MODEL 1
REMARK VINA RESULT: -9.639234231      0.000      0.000
REMARK  7 active torsions:
REMARK  status: ('A' for Active; 'I' for Inactive)
REMARK    1  A    between atoms: N1_1  and  N2_4 
REMARK    2  A    between atoms: N3_9  and  C4_10 
REMARK    3  A    between atoms: C4_10  and  C5_11 
REMARK    4  A    between atoms: C5_11  and  C6_12 
REMARK    5  A    between atoms: C6_12  and  N4_13 
REMARK    6  A    between atoms: N5_16  and  C9_17 
REMARK    7  A    between atoms: C11_19  and  N6_20 
ROOT
HETATM    1  C9  UNL     1     143.672  60.539 132.657  1.00  0.00     0.107 A 
HETATM    2  C10 UNL     1     144.264  59.858 131.620  1.00  0.00     0.079 A 
HETATM    3  C11 UNL     1     143.814  58.584 131.255  1.00  0.00     0.057 A 
HETATM    4  C15 UNL     1     142.770  57.991 131.929  1.00  0.00     0.053 A 
HETATM    5  C16 UNL     1     142.119  56.780 131.816  1.00  0.00     0.124 A 
HETATM    6  N11 UNL     1     141.160  56.777 132.787  1.00  0.00    -0.309 N 
ATOM      7  H11 UNL     1     140.503  56.018 132.968  1.00  0.00     0.186 HD
HETATM    8  N12 UNL     1     141.221  57.912 133.454  1.00  0.00    -0.285 N 
ATOM      9  H12 UNL     1     140.608  58.155 134.233  1.00  0.00     0.188 HD
HETATM   10  C17 UNL     1     142.196  58.713 132.977  1.00  0.00     0.135 A 
HETATM   11  N13 UNL     1     142.655  59.935 133.298  1.00  0.00    -0.327 N 
ATOM     12  H13 UNL     1     142.208  60.430 134.069  1.00  0.00     0.169 HD
ENDROOT
BRANCH   1  13
HETATM   13  N5  UNL     1     144.118  61.853 133.046  1.00  0.00    -0.361 N 
HETATM   14  C8  UNL     1     143.140  62.896 133.200  1.00  0.00     0.144 C 
HETATM   15  C7  UNL     1     143.743  64.159 132.605  1.00  0.00     0.141 C 
HETATM   16  N4  UNL     1     144.924  64.459 133.315  1.00  0.00    -0.390 N 
HETATM   17  C19 UNL     1     145.932  63.485 133.363  1.00  0.00     0.078 C 
HETATM   18  C18 UNL     1     145.506  62.065 133.256  1.00  0.00     0.168 C 
BRANCH  16  19
HETATM   19  C6  UNL     1     144.839  65.394 134.381  1.00  0.00     0.123 C 
BRANCH  19  20
HETATM   20  C5  UNL     1     143.808  66.466 134.110  1.00  0.00     0.036 C 
BRANCH  20  21
HETATM   21  C4  UNL     1     143.405  67.051 135.439  1.00  0.00     0.115 C 
BRANCH  21  22
HETATM   22  N3  UNL     1     143.782  68.412 135.608  1.00  0.00    -0.230 NA
HETATM   23  C3  UNL     1     142.865  69.235 136.314  1.00  0.00     0.121 C 
HETATM   24  C2  UNL     1     143.597  69.890 137.454  1.00  0.00     0.095 C 
HETATM   25  C1  UNL     1     145.010  69.673 137.061  1.00  0.00     0.107 C 
HETATM   26  N2  UNL     1     146.006  70.336 137.520  1.00  0.00    -0.295 N 
HETATM   27  N14 UNL     1     145.038  68.636 136.120  1.00  0.00    -0.307 N 
ATOM     28  H2  UNL     1     145.827  71.068 138.206  1.00  0.00     0.187 HD
ATOM     29  H14 UNL     1     145.875  68.118 135.852  1.00  0.00     0.182 HD
BRANCH  26  30
HETATM   30  N1  UNL     1     147.323  70.105 137.127  1.00  0.00    -0.344 N 
ATOM     31  H12 UNL     1     147.491  69.328 136.488  1.00  0.00     0.176 HD
ATOM     32  H11 UNL     1     148.109  70.670 137.446  1.00  0.00     0.176 HD
ENDBRANCH  26  30
ENDBRANCH  21  22
ENDBRANCH  20  21
ENDBRANCH  19  20
ENDBRANCH  16  19
ENDBRANCH   1  13
BRANCH   3  33
HETATM   33  N6  UNL     1     144.413  57.884 130.177  1.00  0.00    -0.303 N 
HETATM   34  C12 UNL     1     145.416  56.873 130.302  1.00  0.00     0.257 A 
HETATM   35  N7  UNL     1     145.847  56.344 129.025  1.00  0.00    -0.348 N 
HETATM   36  C13 UNL     1     145.420  56.688 127.884  1.00  0.00     0.191 A 
ATOM     37  H7  UNL     1     146.567  55.622 129.047  1.00  0.00     0.163 HD
HETATM   38  N8  UNL     1     145.884  56.126 126.654  1.00  0.00    -0.063 NA
HETATM   39  N9  UNL     1     144.426  57.688 127.797  1.00  0.00    -0.304 N 
HETATM   40  C14 UNL     1     143.955  58.245 128.861  1.00  0.00     0.199 A 
ATOM     41  H9  UNL     1     144.076  57.973 126.882  1.00  0.00     0.171 HD
HETATM   42  N10 UNL     1     142.963  59.234 128.686  1.00  0.00    -0.063 NA
ENDBRANCH   3  33
TORSDOF 7
ENDMDL
MODEL 2
REMARK VINA RESULT: -9.445277692      1.554      1.914
REMARK  7 active torsions:
REMARK  status: ('A' for Active; 'I' for Inactive)
REMARK    1  A    between atoms: N1_1  and  N2_4 
REMARK    2  A    between atoms: N3_9  and  C4_10 
REMARK    3  A    between atoms: C4_10  and  C5_11 
REMARK    4  A    between atoms: C5_11  and  C6_12 
REMARK    5  A    between atoms: C6_12  and  N4_13 
REMARK    6  A    between atoms: N5_16  and  C9_17 
REMARK    7  A    between atoms: C11_19  and  N6_20 
ROOT
HETATM    1  C9  UNL     1     142.570  61.135 132.122  1.00  0.00     0.107 A 
HETATM    2  C10 UNL     1     143.231  60.086 131.529  1.00  0.00     0.079 A 
HETATM    3  C11 UNL     1     142.518  59.043 130.926  1.00  0.00     0.057 A 
HETATM    4  C15 UNL     1     141.142  59.049 130.919  1.00  0.00     0.053 A 
HETATM    5  C16 UNL     1     140.180  58.191 130.427  1.00  0.00     0.124 A 
HETATM    6  N11 UNL     1     138.978  58.754 130.741  1.00  0.00    -0.309 N 
ATOM      7  H11 UNL     1     138.063  58.364 130.514  1.00  0.00     0.186 HD
HETATM    8  N12 UNL     1     139.188  59.884 131.386  1.00  0.00    -0.285 N 
ATOM      9  H12 UNL     1     138.448  60.495 131.731  1.00  0.00     0.188 HD
HETATM   10  C17 UNL     1     140.506  60.130 131.533  1.00  0.00     0.135 A 
HETATM   11  N13 UNL     1     141.225  61.114 132.100  1.00  0.00    -0.327 N 
ATOM     12  H13 UNL     1     140.723  61.887 132.537  1.00  0.00     0.169 HD
ENDROOT
BRANCH   1  13
HETATM   13  N5  UNL     1     143.286  62.220 132.743  1.00  0.00    -0.361 N 
HETATM   14  C8  UNL     1     142.712  63.538 132.702  1.00  0.00     0.144 C 
HETATM   15  C7  UNL     1     143.850  64.509 132.428  1.00  0.00     0.141 C 
HETATM   16  N4  UNL     1     144.788  64.393 133.476  1.00  0.00    -0.390 N 
HETATM   17  C19 UNL     1     145.350  63.132 133.724  1.00  0.00     0.078 C 
HETATM   18  C18 UNL     1     144.531  61.944 133.367  1.00  0.00     0.168 C 
BRANCH  16  19
HETATM   19  C6  UNL     1     144.698  65.315 134.552  1.00  0.00     0.123 C 
BRANCH  19  20
HETATM   20  C5  UNL     1     143.891  66.539 134.181  1.00  0.00     0.036 C 
BRANCH  20  21
HETATM   21  C4  UNL     1     143.387  67.152 135.462  1.00  0.00     0.115 C 
BRANCH  21  22
HETATM   22  N3  UNL     1     143.781  68.506 135.648  1.00  0.00    -0.230 NA
HETATM   23  C3  UNL     1     142.889  69.325 136.389  1.00  0.00     0.121 C 
HETATM   24  C2  UNL     1     143.653  69.950 137.524  1.00  0.00     0.095 C 
HETATM   25  C1  UNL     1     145.054  69.728 137.095  1.00  0.00     0.107 C 
HETATM   26  N2  UNL     1     146.067  70.372 137.543  1.00  0.00    -0.295 N 
HETATM   27  N14 UNL     1     145.050  68.708 136.135  1.00  0.00    -0.307 N 
ATOM     28  H2  UNL     1     145.911  71.093 138.247  1.00  0.00     0.187 HD
ATOM     29  H14 UNL     1     145.876  68.187 135.838  1.00  0.00     0.182 HD
BRANCH  26  30
HETATM   30  N1  UNL     1     147.372  70.135 137.116  1.00  0.00    -0.344 N 
ATOM     31  H12 UNL     1     147.556  70.197 136.115  1.00  0.00     0.176 HD
ATOM     32  H11 UNL     1     148.137  69.908 137.752  1.00  0.00     0.176 HD
ENDBRANCH  26  30
ENDBRANCH  21  22
ENDBRANCH  20  21
ENDBRANCH  19  20
ENDBRANCH  16  19
ENDBRANCH   1  13
BRANCH   3  33
HETATM   33  N6  UNL     1     143.198  57.966 130.302  1.00  0.00    -0.303 N 
HETATM   34  C12 UNL     1     143.554  57.902 128.919  1.00  0.00     0.257 A 
HETATM   35  N7  UNL     1     144.234  56.673 128.567  1.00  0.00    -0.348 N 
HETATM   36  C13 UNL     1     144.520  55.720 129.349  1.00  0.00     0.191 A 
ATOM     37  H7  UNL     1     144.509  56.565 127.591  1.00  0.00     0.163 HD
HETATM   38  N8  UNL     1     145.195  54.527 128.942  1.00  0.00    -0.063 NA
HETATM   39  N9  UNL     1     144.156  55.817 130.711  1.00  0.00    -0.304 N 
HETATM   40  C14 UNL     1     143.542  56.860 131.157  1.00  0.00     0.199 A 
ATOM     41  H9  UNL     1     144.381  55.054 131.348  1.00  0.00     0.171 HD
HETATM   42  N10 UNL     1     143.216  56.878 132.530  1.00  0.00    -0.063 NA
ENDBRANCH   3  33
TORSDOF 7
ENDMDL
MODEL 3
REMARK VINA RESULT: -8.772015191      1.926      2.749
REMARK  7 active torsions:
REMARK  status: ('A' for Active; 'I' for Inactive)
REMARK    1  A    between atoms: N1_1  and  N2_4 
REMARK    2  A    between atoms: N3_9  and  C4_10 
REMARK    3  A    between atoms: C4_10  and  C5_11 
REMARK    4  A    between atoms: C5_11  and  C6_12 
REMARK    5  A    between atoms: C6_12  and  N4_13 
REMARK    6  A    between atoms: N5_16  and  C9_17 
REMARK    7  A    between atoms: C11_19  and  N6_20 
ROOT
HETATM    1  C9  UNL     1     143.636  60.577 132.169  1.00  0.00     0.107 A 
HETATM    2  C10 UNL     1     142.856  60.514 131.039  1.00  0.00     0.079 A 
HETATM    3  C11 UNL     1     142.463  59.277 130.512  1.00  0.00     0.057 A 
HETATM    4  C15 UNL     1     142.853  58.104 131.117  1.00  0.00     0.053 A 
HETATM    5  C16 UNL     1     142.642  56.768 130.846  1.00  0.00     0.124 A 
HETATM    6  N11 UNL     1     143.301  56.078 131.822  1.00  0.00    -0.309 N 
ATOM      7  H11 UNL     1     143.339  55.062 131.906  1.00  0.00     0.186 HD
HETATM    8  N12 UNL     1     143.881  56.936 132.637  1.00  0.00    -0.285 N 
ATOM      9  H12 UNL     1     144.437  56.670 133.450  1.00  0.00     0.188 HD
HETATM   10  C17 UNL     1     143.646  58.209 132.261  1.00  0.00     0.135 A 
HETATM   11  N13 UNL     1     144.002  59.415 132.738  1.00  0.00    -0.327 N 
ATOM     12  H13 UNL     1     144.581  59.450 133.577  1.00  0.00     0.169 HD
ENDROOT
BRANCH   1  13
HETATM   13  N5  UNL     1     144.046  61.841 132.728  1.00  0.00    -0.361 N 
HETATM   14  C8  UNL     1     143.060  62.875 132.893  1.00  0.00     0.144 C 
HETATM   15  C7  UNL     1     143.720  64.184 132.489  1.00  0.00     0.141 C 
HETATM   16  N4  UNL     1     144.828  64.396 133.335  1.00  0.00    -0.390 N 
HETATM   17  C19 UNL     1     145.825  63.410 133.380  1.00  0.00     0.078 C 
HETATM   18  C18 UNL     1     145.408  62.013 133.091  1.00  0.00     0.168 C 
BRANCH  16  19
HETATM   19  C6  UNL     1     144.644  65.221 134.477  1.00  0.00     0.123 C 
BRANCH  19  20
HETATM   20  C5  UNL     1     143.779  66.423 134.171  1.00  0.00     0.036 C 
BRANCH  20  21
HETATM   21  C4  UNL     1     143.395  67.049 135.486  1.00  0.00     0.115 C 
BRANCH  21  22
HETATM   22  N3  UNL     1     143.794  68.408 135.617  1.00  0.00    -0.230 NA
HETATM   23  C3  UNL     1     142.889  69.267 136.293  1.00  0.00     0.121 C 
HETATM   24  C2  UNL     1     143.627  69.942 137.417  1.00  0.00     0.095 C 
HETATM   25  C1  UNL     1     145.037  69.691 137.038  1.00  0.00     0.107 C 
HETATM   26  N2  UNL     1     146.043  70.349 137.481  1.00  0.00    -0.295 N 
HETATM   27  N14 UNL     1     145.052  68.625 136.128  1.00  0.00    -0.307 N 
ATOM     28  H2  UNL     1     145.873  71.105 138.145  1.00  0.00     0.187 HD
ATOM     29  H14 UNL     1     145.880  68.085 135.879  1.00  0.00     0.182 HD
BRANCH  26  30
HETATM   30  N1  UNL     1     147.357  70.084 137.102  1.00  0.00    -0.344 N 
ATOM     31  H12 UNL     1     147.655  69.109 137.096  1.00  0.00     0.176 HD
ATOM     32  H11 UNL     1     148.020  70.811 136.836  1.00  0.00     0.176 HD
ENDBRANCH  26  30
ENDBRANCH  21  22
ENDBRANCH  20  21
ENDBRANCH  19  20
ENDBRANCH  16  19
ENDBRANCH   1  13
BRANCH   3  33
HETATM   33  N6  UNL     1     141.648  59.208 129.354  1.00  0.00    -0.303 N 
HETATM   34  C12 UNL     1     142.124  59.097 128.011  1.00  0.00     0.257 A 
HETATM   35  N7  UNL     1     141.056  59.057 127.034  1.00  0.00    -0.348 N 
HETATM   36  C13 UNL     1     139.814  59.104 127.273  1.00  0.00     0.191 A 
ATOM     37  H7  UNL     1     141.333  58.984 126.055  1.00  0.00     0.163 HD
HETATM   38  N8  UNL     1     138.803  59.060 126.264  1.00  0.00    -0.063 NA
HETATM   39  N9  UNL     1     139.377  59.211 128.613  1.00  0.00    -0.304 N 
HETATM   40  C14 UNL     1     140.227  59.259 129.582  1.00  0.00     0.199 A 
ATOM     41  H9  UNL     1     138.379  59.251 128.816  1.00  0.00     0.171 HD
HETATM   42  N10 UNL     1     139.708  59.364 130.891  1.00  0.00    -0.063 NA
ENDBRANCH   3  33
TORSDOF 7
ENDMDL
MODEL 4
REMARK VINA RESULT: -8.635732797      4.713      7.143
REMARK  7 active torsions:
REMARK  status: ('A' for Active; 'I' for Inactive)
REMARK    1  A    between atoms: N1_1  and  N2_4 
REMARK    2  A    between atoms: N3_9  and  C4_10 
REMARK    3  A    between atoms: C4_10  and  C5_11 
REMARK    4  A    between atoms: C5_11  and  C6_12 
REMARK    5  A    between atoms: C6_12  and  N4_13 
REMARK    6  A    between atoms: N5_16  and  C9_17 
REMARK    7  A    between atoms: C11_19  and  N6_20 
ROOT
HETATM    1  C9  UNL     1     142.566  60.811 131.798  1.00  0.00     0.107 A 
HETATM    2  C10 UNL     1     141.529  61.596 131.355  1.00  0.00     0.079 A 
HETATM    3  C11 UNL     1     140.426  61.022 130.710  1.00  0.00     0.057 A 
HETATM    4  C15 UNL     1     140.363  59.662 130.510  1.00  0.00     0.053 A 
HETATM    5  C16 UNL     1     139.442  58.820 129.921  1.00  0.00     0.124 A 
HETATM    6  N11 UNL     1     139.959  57.561 130.032  1.00  0.00    -0.309 N 
ATOM      7  H11 UNL     1     139.516  56.707 129.694  1.00  0.00     0.186 HD
HETATM    8  N12 UNL     1     141.122  57.628 130.648  1.00  0.00    -0.285 N 
ATOM      9  H12 UNL     1     141.711  56.821 130.854  1.00  0.00     0.188 HD
HETATM   10  C17 UNL     1     141.437  58.899 130.973  1.00  0.00     0.135 A 
HETATM   11  N13 UNL     1     142.478  59.486 131.589  1.00  0.00    -0.327 N 
ATOM     12  H13 UNL     1     143.242  58.893 131.914  1.00  0.00     0.169 HD
ENDROOT
BRANCH   1  13
HETATM   13  N5  UNL     1     143.708  61.383 132.468  1.00  0.00    -0.361 N 
HETATM   14  C8  UNL     1     143.592  62.705 133.022  1.00  0.00     0.144 C 
HETATM   15  C7  UNL     1     144.895  63.428 132.719  1.00  0.00     0.141 C 
HETATM   16  N4  UNL     1     145.946  62.710 133.328  1.00  0.00    -0.390 N 
HETATM   17  C19 UNL     1     146.114  61.362 132.981  1.00  0.00     0.078 C 
HETATM   18  C18 UNL     1     144.901  60.618 132.550  1.00  0.00     0.168 C 
BRANCH  16  19
HETATM   19  C6  UNL     1     146.387  63.137 134.608  1.00  0.00     0.123 C 
BRANCH  19  20
HETATM   20  C5  UNL     1     146.231  62.052 135.649  1.00  0.00     0.036 C 
BRANCH  20  21
HETATM   21  C4  UNL     1     147.552  61.917 136.362  1.00  0.00     0.115 C 
BRANCH  21  22
HETATM   22  N3  UNL     1     147.503  61.086 137.516  1.00  0.00    -0.230 NA
HETATM   23  C3  UNL     1     146.274  60.418 137.758  1.00  0.00     0.121 C 
HETATM   24  C2  UNL     1     146.553  58.945 137.887  1.00  0.00     0.095 C 
HETATM   25  C1  UNL     1     148.021  58.940 138.094  1.00  0.00     0.107 C 
HETATM   26  N2  UNL     1     148.686  57.966 138.595  1.00  0.00    -0.295 N 
HETATM   27  N14 UNL     1     148.520  60.171 137.649  1.00  0.00    -0.307 N 
ATOM     28  H2  UNL     1     148.178  57.126 138.876  1.00  0.00     0.187 HD
ATOM     29  H14 UNL     1     149.502  60.361 137.450  1.00  0.00     0.182 HD
BRANCH  26  30
HETATM   30  N1  UNL     1     150.067  57.996 138.775  1.00  0.00    -0.344 N 
ATOM     31  H12 UNL     1     150.639  57.507 138.087  1.00  0.00     0.176 HD
ATOM     32  H11 UNL     1     150.520  58.477 139.551  1.00  0.00     0.176 HD
ENDBRANCH  26  30
ENDBRANCH  21  22
ENDBRANCH  20  21
ENDBRANCH  19  20
ENDBRANCH  16  19
ENDBRANCH   1  13
BRANCH   3  33
HETATM   33  N6  UNL     1     139.348  61.827 130.262  1.00  0.00    -0.303 N 
HETATM   34  C12 UNL     1     139.272  62.478 128.992  1.00  0.00     0.257 A 
HETATM   35  N7  UNL     1     138.054  63.241 128.819  1.00  0.00    -0.348 N 
HETATM   36  C13 UNL     1     137.112  63.356 129.658  1.00  0.00     0.191 A 
ATOM     37  H7  UNL     1     137.943  63.734 127.934  1.00  0.00     0.163 HD
HETATM   38  N8  UNL     1     135.928  64.125 129.430  1.00  0.00    -0.063 NA
HETATM   39  N9  UNL     1     137.218  62.696 130.903  1.00  0.00    -0.304 N 
HETATM   40  C14 UNL     1     138.255  61.984 131.186  1.00  0.00     0.199 A 
ATOM     41  H9  UNL     1     136.465  62.784 131.585  1.00  0.00     0.171 HD
HETATM   42  N10 UNL     1     138.281  61.358 132.451  1.00  0.00    -0.063 NA
ENDBRANCH   3  33
TORSDOF 7
ENDMDL
MODEL 5
REMARK VINA RESULT: -8.619856767      3.982      9.351
REMARK  7 active torsions:
REMARK  status: ('A' for Active; 'I' for Inactive)
REMARK    1  A    between atoms: N1_1  and  N2_4 
REMARK    2  A    between atoms: N3_9  and  C4_10 
REMARK    3  A    between atoms: C4_10  and  C5_11 
REMARK    4  A    between atoms: C5_11  and  C6_12 
REMARK    5  A    between atoms: C6_12  and  N4_13 
REMARK    6  A    between atoms: N5_16  and  C9_17 
REMARK    7  A    between atoms: C11_19  and  N6_20 
ROOT
HETATM    1  C9  UNL     1     143.806  59.696 131.314  1.00  0.00     0.107 A 
HETATM    2  C10 UNL     1     144.737  59.768 132.323  1.00  0.00     0.079 A 
HETATM    3  C11 UNL     1     144.701  60.814 133.253  1.00  0.00     0.057 A 
HETATM    4  C15 UNL     1     143.733  61.789 133.172  1.00  0.00     0.053 A 
HETATM    5  C16 UNL     1     143.441  62.917 133.910  1.00  0.00     0.124 A 
HETATM    6  N11 UNL     1     142.348  63.481 133.320  1.00  0.00    -0.309 N 
ATOM      7  H11 UNL     1     141.881  64.333 133.630  1.00  0.00     0.186 HD
HETATM    8  N12 UNL     1     141.992  62.747 132.285  1.00  0.00    -0.285 N 
ATOM      9  H12 UNL     1     141.201  62.957 131.676  1.00  0.00     0.188 HD
HETATM   10  C17 UNL     1     142.806  61.682 132.133  1.00  0.00     0.135 A 
HETATM   11  N13 UNL     1     142.872  60.662 131.259  1.00  0.00    -0.327 N 
ATOM     12  H13 UNL     1     142.176  60.619 130.515  1.00  0.00     0.169 HD
ENDROOT
BRANCH   1  13
HETATM   13  N5  UNL     1     143.824  58.625 130.350  1.00  0.00    -0.361 N 
HETATM   14  C8  UNL     1     143.171  58.824 129.084  1.00  0.00     0.144 C 
HETATM   15  C7  UNL     1     142.449  57.529 128.749  1.00  0.00     0.141 C 
HETATM   16  N4  UNL     1     143.410  56.499 128.670  1.00  0.00    -0.390 N 
HETATM   17  C19 UNL     1     144.218  56.261 129.791  1.00  0.00     0.078 C 
HETATM   18  C18 UNL     1     144.483  57.414 130.691  1.00  0.00     0.168 C 
BRANCH  16  19
HETATM   19  C6  UNL     1     143.920  56.163 127.388  1.00  0.00     0.123 C 
BRANCH  19  20
HETATM   20  C5  UNL     1     145.429  56.252 127.341  1.00  0.00     0.036 C 
BRANCH  20  21
HETATM   21  C4  UNL     1     145.791  57.705 127.174  1.00  0.00     0.115 C 
BRANCH  21  22
HETATM   22  N3  UNL     1     146.785  58.160 128.083  1.00  0.00    -0.230 NA
HETATM   23  C3  UNL     1     147.651  57.170 128.616  1.00  0.00     0.121 C 
HETATM   24  C2  UNL     1     149.071  57.589 128.347  1.00  0.00     0.095 C 
HETATM   25  C1  UNL     1     148.898  59.021 128.009  1.00  0.00     0.107 C 
HETATM   26  N2  UNL     1     149.831  59.898 128.038  1.00  0.00    -0.295 N 
HETATM   27  N14 UNL     1     147.555  59.219 127.662  1.00  0.00    -0.307 N 
ATOM     28  H2  UNL     1     150.768  59.601 128.313  1.00  0.00     0.187 HD
ATOM     29  H14 UNL     1     147.197  60.035 127.165  1.00  0.00     0.182 HD
BRANCH  26  30
HETATM   30  N1  UNL     1     149.631  61.238 127.712  1.00  0.00    -0.344 N 
ATOM     31  H12 UNL     1     150.313  61.676 127.093  1.00  0.00     0.176 HD
ATOM     32  H11 UNL     1     148.846  61.787 128.061  1.00  0.00     0.176 HD
ENDBRANCH  26  30
ENDBRANCH  21  22
ENDBRANCH  20  21
ENDBRANCH  19  20
ENDBRANCH  16  19
ENDBRANCH   1  13
BRANCH   3  33
HETATM   33  N6  UNL     1     145.652  60.885 134.302  1.00  0.00    -0.303 N 
HETATM   34  C12 UNL     1     145.708  60.008 135.429  1.00  0.00     0.257 A 
HETATM   35  N7  UNL     1     146.784  60.330 136.343  1.00  0.00    -0.348 N 
HETATM   36  C13 UNL     1     147.625  61.267 136.216  1.00  0.00     0.191 A 
ATOM     37  H7  UNL     1     146.872  59.743 137.172  1.00  0.00     0.163 HD
HETATM   38  N8  UNL     1     148.670  61.536 137.154  1.00  0.00    -0.063 NA
HETATM   39  N9  UNL     1     147.543  62.113 135.088  1.00  0.00    -0.304 N 
HETATM   40  C14 UNL     1     146.628  61.938 134.195  1.00  0.00     0.199 A 
ATOM     41  H9  UNL     1     148.216  62.872 134.977  1.00  0.00     0.171 HD
HETATM   42  N10 UNL     1     146.617  62.826 133.099  1.00  0.00    -0.063 NA
ENDBRANCH   3  33
TORSDOF 7
ENDMDL
