MODEL 1
REMARK VINA RESULT: -8.403039573      0.000      0.000
REMARK  9 active torsions:
REMARK  status: ('A' for Active; 'I' for Inactive)
REMARK    1  A    between atoms: N1_1  and  C1_5 
REMARK    2  A    between atoms: C1_5  and  C2_6 
REMARK    3  A    between atoms: C1_5  and  C13_30 
REMARK    4  A    between atoms: C3_11  and  C4_12 
REMARK    5  A    between atoms: C4_12  and  N4_13 
REMARK    6  A    between atoms: N5_16  and  C7_17 
REMARK    7  A    between atoms: C7_17  and  N6_18 
REMARK    8  A    between atoms: C8_19  and  O1_20 
REMARK    9  A    between atoms: C14_31  and  O3_32 
ROOT
HETATM    1  C2  UNL     1     141.215  60.808 131.367  1.00  0.00     0.103 A 
HETATM    2  N2  UNL     1     140.995  61.936 132.027  1.00  0.00    -0.295 N 
ATOM      3  H2  UNL     1     140.042  62.207 132.266  1.00  0.00     0.187 HD
HETATM    4  N3  UNL     1     141.959  62.675 132.361  1.00  0.00    -0.292 N 
ATOM      5  H3  UNL     1     141.785  63.541 132.870  1.00  0.00     0.187 HD
HETATM    6  C3  UNL     1     143.206  62.325 132.050  1.00  0.00     0.106 A 
HETATM    7  S1  UNL     1     142.929  60.846 131.234  1.00  0.00    -0.052 SA
ENDROOT
BRANCH   1   8
HETATM    8  C1  UNL     1     140.219  59.797 130.886  1.00  0.00     0.284 C 
BRANCH   8   9
HETATM    9  N1  UNL     1     138.987  59.880 131.648  1.00  0.00    -0.065 N 
ATOM     10  H13 UNL     1     138.630  58.956 131.890  1.00  0.00     0.275 HD
ATOM     11  H12 UNL     1     139.150  60.234 132.591  1.00  0.00     0.275 HD
ATOM     12  H11 UNL     1     138.289  60.434 131.153  1.00  0.00     0.275 HD
ENDBRANCH   8   9
BRANCH   8  13
HETATM   13  C13 UNL     1     140.871  58.468 130.973  1.00  0.00     0.098 A 
HETATM   14  C14 UNL     1     141.181  57.825 132.137  1.00  0.00     0.158 A 
HETATM   15  N8  UNL     1     141.790  56.605 132.137  1.00  0.00    -0.288 N 
HETATM   16  C15 UNL     1     142.096  56.013 130.972  1.00  0.00     0.329 A 
ATOM     17  H8  UNL     1     142.011  56.144 133.020  1.00  0.00     0.172 HD
HETATM   18  O4  UNL     1     142.656  54.892 130.960  1.00  0.00    -0.247 OA
HETATM   19  N9  UNL     1     141.806  56.617 129.812  1.00  0.00    -0.275 N 
HETATM   20  C16 UNL     1     141.205  57.819 129.799  1.00  0.00     0.262 A 
ATOM     21  H9  UNL     1     142.043  56.160 128.931  1.00  0.00     0.173 HD
HETATM   22  O5  UNL     1     140.970  58.312 128.659  1.00  0.00    -0.267 OA
BRANCH  14  23
HETATM   23  O3  UNL     1     140.879  58.404 133.341  1.00  0.00    -0.345 OA
ATOM     24  H3  UNL     1     141.163  57.995 134.149  1.00  0.00     0.219 HD
ENDBRANCH  14  23
ENDBRANCH   8  13
ENDBRANCH   1   8
BRANCH   6  25
HETATM   25  C4  UNL     1     144.453  63.093 132.367  1.00  0.00     0.128 C 
BRANCH  25  26
HETATM   26  N4  UNL     1     145.084  62.624 133.528  1.00  0.00    -0.364 N 
HETATM   27  C5  UNL     1     144.951  61.270 133.894  1.00  0.00     0.083 C 
HETATM   28  C6  UNL     1     145.343  60.984 135.327  1.00  0.00     0.163 C 
HETATM   29  N5  UNL     1     146.455  61.762 135.765  1.00  0.00    -0.390 N 
HETATM   30  C11 UNL     1     146.380  63.157 135.436  1.00  0.00     0.139 C 
HETATM   31  C12 UNL     1     146.307  63.236 133.901  1.00  0.00     0.147 C 
BRANCH  29  32
HETATM   32  C7  UNL     1     146.944  61.470 137.067  1.00  0.00     0.256 C 
BRANCH  32  33
HETATM   33  N6  UNL     1     147.846  60.337 137.136  1.00  0.00    -0.262 N 
HETATM   34  C8  UNL     1     149.161  60.343 136.858  1.00  0.00     0.163 A 
HETATM   35  C9  UNL     1     149.701  59.080 137.032  1.00  0.00     0.149 A 
HETATM   36  N7  UNL     1     148.674  58.308 137.424  1.00  0.00    -0.314 N 
HETATM   37  C10 UNL     1     147.566  59.057 137.486  1.00  0.00     0.329 A 
ATOM     38  H7  UNL     1     148.730  57.312 137.639  1.00  0.00     0.170 HD
HETATM   39  O2  UNL     1     146.431  58.675 137.812  1.00  0.00    -0.246 OA
BRANCH  34  40
HETATM   40  O1  UNL     1     149.936  61.437 136.447  1.00  0.00    -0.345 OA
ATOM     41  H1  UNL     1     150.184  62.192 136.966  1.00  0.00     0.219 HD
ENDBRANCH  34  40
ENDBRANCH  32  33
ENDBRANCH  29  32
ENDBRANCH  25  26
ENDBRANCH   6  25
TORSDOF 9
ENDMDL
MODEL 2
REMARK VINA RESULT: -8.239172636      2.411      2.928
REMARK  9 active torsions:
REMARK  status: ('A' for Active; 'I' for Inactive)
REMARK    1  A    between atoms: N1_1  and  C1_5 
REMARK    2  A    between atoms: C1_5  and  C2_6 
REMARK    3  A    between atoms: C1_5  and  C13_30 
REMARK    4  A    between atoms: C3_11  and  C4_12 
REMARK    5  A    between atoms: C4_12  and  N4_13 
REMARK    6  A    between atoms: N5_16  and  C7_17 
REMARK    7  A    between atoms: C7_17  and  N6_18 
REMARK    8  A    between atoms: C8_19  and  O1_20 
REMARK    9  A    between atoms: C14_31  and  O3_32 
ROOT
HETATM    1  C2  UNL     1     142.515  58.469 131.271  1.00  0.00     0.103 A 
HETATM    2  N2  UNL     1     141.894  58.622 132.431  1.00  0.00    -0.295 N 
ATOM      3  H2  UNL     1     141.208  57.931 132.735  1.00  0.00     0.187 HD
HETATM    4  N3  UNL     1     142.146  59.617 133.160  1.00  0.00    -0.292 N 
ATOM      5  H3  UNL     1     141.666  59.729 134.053  1.00  0.00     0.187 HD
HETATM    6  C3  UNL     1     143.040  60.522 132.766  1.00  0.00     0.106 A 
HETATM    7  S1  UNL     1     143.518  59.865 131.260  1.00  0.00    -0.052 SA
ENDROOT
BRANCH   1   8
HETATM    8  C1  UNL     1     142.364  57.366 130.267  1.00  0.00     0.284 C 
BRANCH   8   9
HETATM    9  N1  UNL     1     141.747  56.198 130.869  1.00  0.00    -0.065 N 
ATOM     10  H13 UNL     1     142.360  55.760 131.557  1.00  0.00     0.275 HD
ATOM     11  H12 UNL     1     140.979  56.456 131.489  1.00  0.00     0.275 HD
ATOM     12  H11 UNL     1     141.449  55.535 130.155  1.00  0.00     0.275 HD
ENDBRANCH   8   9
BRANCH   8  13
HETATM   13  C13 UNL     1     143.712  57.093 129.713  1.00  0.00     0.098 A 
HETATM   14  C14 UNL     1     144.732  56.496 130.397  1.00  0.00     0.158 A 
HETATM   15  N8  UNL     1     145.950  56.287 129.823  1.00  0.00    -0.288 N 
HETATM   16  C15 UNL     1     146.163  56.672 128.554  1.00  0.00     0.329 A 
ATOM     17  H8  UNL     1     146.696  55.839 130.354  1.00  0.00     0.172 HD
HETATM   18  O4  UNL     1     147.279  56.484 128.015  1.00  0.00    -0.247 OA
HETATM   19  N9  UNL     1     145.185  57.260 127.854  1.00  0.00    -0.275 N 
HETATM   20  C16 UNL     1     143.979  57.472 128.410  1.00  0.00     0.262 A 
ATOM     21  H9  UNL     1     145.355  57.550 126.892  1.00  0.00     0.173 HD
HETATM   22  O5  UNL     1     143.117  58.032 127.676  1.00  0.00    -0.267 OA
BRANCH  14  23
HETATM   23  O3  UNL     1     144.543  56.092 131.692  1.00  0.00    -0.345 OA
ATOM     24  H3  UNL     1     145.203  56.279 132.349  1.00  0.00     0.219 HD
ENDBRANCH  14  23
ENDBRANCH   8  13
ENDBRANCH   1   8
BRANCH   6  25
HETATM   25  C4  UNL     1     143.445  61.758 133.511  1.00  0.00     0.128 C 
BRANCH  25  26
HETATM   26  N4  UNL     1     144.640  61.581 134.222  1.00  0.00    -0.364 N 
HETATM   27  C5  UNL     1     145.007  60.292 134.656  1.00  0.00     0.083 C 
HETATM   28  C6  UNL     1     146.088  60.289 135.716  1.00  0.00     0.163 C 
HETATM   29  N5  UNL     1     147.066  61.306 135.514  1.00  0.00    -0.390 N 
HETATM   30  C11 UNL     1     146.531  62.604 135.213  1.00  0.00     0.139 C 
HETATM   31  C12 UNL     1     145.720  62.447 133.916  1.00  0.00     0.147 C 
BRANCH  29  32
HETATM   32  C7  UNL     1     148.168  61.296 136.411  1.00  0.00     0.256 C 
BRANCH  32  33
HETATM   33  N6  UNL     1     148.193  60.176 137.330  1.00  0.00    -0.262 N 
HETATM   34  C8  UNL     1     148.834  59.008 137.152  1.00  0.00     0.163 A 
HETATM   35  C9  UNL     1     148.634  58.172 138.237  1.00  0.00     0.149 A 
HETATM   36  N7  UNL     1     147.853  58.867 139.080  1.00  0.00    -0.314 N 
HETATM   37  C10 UNL     1     147.588  60.064 138.539  1.00  0.00     0.329 A 
ATOM     38  H7  UNL     1     147.516  58.538 139.985  1.00  0.00     0.170 HD
HETATM   39  O2  UNL     1     146.897  60.966 139.039  1.00  0.00    -0.246 OA
BRANCH  34  40
HETATM   40  O1  UNL     1     149.611  58.627 136.048  1.00  0.00    -0.345 OA
ATOM     41  H1  UNL     1     150.163  57.859 135.973  1.00  0.00     0.219 HD
ENDBRANCH  34  40
ENDBRANCH  32  33
ENDBRANCH  29  32
ENDBRANCH  25  26
ENDBRANCH   6  25
TORSDOF 9
ENDMDL
MODEL 3
REMARK VINA RESULT: -8.166608945      2.136      2.780
REMARK  9 active torsions:
REMARK  status: ('A' for Active; 'I' for Inactive)
REMARK    1  A    between atoms: N1_1  and  C1_5 
REMARK    2  A    between atoms: C1_5  and  C2_6 
REMARK    3  A    between atoms: C1_5  and  C13_30 
REMARK    4  A    between atoms: C3_11  and  C4_12 
REMARK    5  A    between atoms: C4_12  and  N4_13 
REMARK    6  A    between atoms: N5_16  and  C7_17 
REMARK    7  A    between atoms: C7_17  and  N6_18 
REMARK    8  A    between atoms: C8_19  and  O1_20 
REMARK    9  A    between atoms: C14_31  and  O3_32 
ROOT
HETATM    1  C2  UNL     1     142.577  58.629 131.349  1.00  0.00     0.103 A 
HETATM    2  N2  UNL     1     143.749  59.174 131.058  1.00  0.00    -0.295 N 
ATOM      3  H2  UNL     1     144.355  58.736 130.365  1.00  0.00     0.187 HD
HETATM    4  N3  UNL     1     144.119  60.231 131.634  1.00  0.00    -0.292 N 
ATOM      5  H3  UNL     1     145.021  60.647 131.406  1.00  0.00     0.187 HD
HETATM    6  C3  UNL     1     143.331  60.806 132.541  1.00  0.00     0.106 A 
HETATM    7  S1  UNL     1     141.997  59.734 132.532  1.00  0.00    -0.052 SA
ENDROOT
BRANCH   1   8
HETATM    8  C1  UNL     1     141.955  57.390 130.781  1.00  0.00     0.284 C 
BRANCH   8   9
HETATM    9  N1  UNL     1     141.491  56.511 131.839  1.00  0.00    -0.065 N 
ATOM     10  H13 UNL     1     141.412  57.002 132.730  1.00  0.00     0.275 HD
ATOM     11  H12 UNL     1     140.511  56.256 131.715  1.00  0.00     0.275 HD
ATOM     12  H11 UNL     1     142.088  55.687 131.917  1.00  0.00     0.275 HD
ENDBRANCH   8   9
BRANCH   8  13
HETATM   13  C13 UNL     1     142.966  56.759 129.900  1.00  0.00     0.098 A 
HETATM   14  C14 UNL     1     144.109  56.149 130.334  1.00  0.00     0.158 A 
HETATM   15  N8  UNL     1     144.999  55.598 129.461  1.00  0.00    -0.288 N 
HETATM   16  C15 UNL     1     144.756  55.650 128.141  1.00  0.00     0.329 A 
ATOM     17  H8  UNL     1     145.845  55.148 129.808  1.00  0.00     0.172 HD
HETATM   18  O4  UNL     1     145.567  55.146 127.329  1.00  0.00    -0.247 OA
HETATM   19  N9  UNL     1     143.645  56.240 127.682  1.00  0.00    -0.275 N 
HETATM   20  C16 UNL     1     142.760  56.786 128.533  1.00  0.00     0.262 A 
ATOM     21  H9  UNL     1     143.470  56.275 126.678  1.00  0.00     0.173 HD
HETATM   22  O5  UNL     1     141.741  57.321 128.010  1.00  0.00    -0.267 OA
BRANCH  14  23
HETATM   23  O3  UNL     1     144.382  56.081 131.674  1.00  0.00    -0.345 OA
ATOM     24  H3  UNL     1     143.688  56.223 132.307  1.00  0.00     0.219 HD
ENDBRANCH  14  23
ENDBRANCH   8  13
ENDBRANCH   1   8
BRANCH   6  25
HETATM   25  C4  UNL     1     143.626  62.054 133.316  1.00  0.00     0.128 C 
BRANCH  25  26
HETATM   26  N4  UNL     1     144.769  61.923 134.118  1.00  0.00    -0.364 N 
HETATM   27  C5  UNL     1     145.429  63.077 134.585  1.00  0.00     0.083 C 
HETATM   28  C6  UNL     1     146.827  62.815 135.100  1.00  0.00     0.163 C 
HETATM   29  N5  UNL     1     146.941  61.570 135.787  1.00  0.00    -0.390 N 
HETATM   30  C11 UNL     1     146.335  60.455 135.116  1.00  0.00     0.139 C 
HETATM   31  C12 UNL     1     144.842  60.795 134.975  1.00  0.00     0.147 C 
BRANCH  29  32
HETATM   32  C7  UNL     1     148.201  61.305 136.390  1.00  0.00     0.256 C 
BRANCH  32  33
HETATM   33  N6  UNL     1     148.204  60.196 137.324  1.00  0.00    -0.262 N 
HETATM   34  C8  UNL     1     148.852  59.028 137.177  1.00  0.00     0.163 A 
HETATM   35  C9  UNL     1     148.627  58.206 138.267  1.00  0.00     0.149 A 
HETATM   36  N7  UNL     1     147.823  58.909 139.080  1.00  0.00    -0.314 N 
HETATM   37  C10 UNL     1     147.569  60.098 138.518  1.00  0.00     0.329 A 
ATOM     38  H7  UNL     1     147.463  58.590 139.981  1.00  0.00     0.170 HD
HETATM   39  O2  UNL     1     146.863  61.004 138.988  1.00  0.00    -0.246 OA
BRANCH  34  40
HETATM   40  O1  UNL     1     149.659  58.636 136.099  1.00  0.00    -0.345 OA
ATOM     41  H1  UNL     1     149.373  58.400 135.224  1.00  0.00     0.219 HD
ENDBRANCH  34  40
ENDBRANCH  32  33
ENDBRANCH  29  32
ENDBRANCH  25  26
ENDBRANCH   6  25
TORSDOF 9
ENDMDL
MODEL 4
REMARK VINA RESULT: -8.138430895      2.433      3.258
REMARK  9 active torsions:
REMARK  status: ('A' for Active; 'I' for Inactive)
REMARK    1  A    between atoms: N1_1  and  C1_5 
REMARK    2  A    between atoms: C1_5  and  C2_6 
REMARK    3  A    between atoms: C1_5  and  C13_30 
REMARK    4  A    between atoms: C3_11  and  C4_12 
REMARK    5  A    between atoms: C4_12  and  N4_13 
REMARK    6  A    between atoms: N5_16  and  C7_17 
REMARK    7  A    between atoms: C7_17  and  N6_18 
REMARK    8  A    between atoms: C8_19  and  O1_20 
REMARK    9  A    between atoms: C14_31  and  O3_32 
ROOT
HETATM    1  C2  UNL     1     142.539  58.387 131.274  1.00  0.00     0.103 A 
HETATM    2  N2  UNL     1     141.998  58.467 132.482  1.00  0.00    -0.295 N 
ATOM      3  H2  UNL     1     141.378  57.727 132.811  1.00  0.00     0.187 HD
HETATM    4  N3  UNL     1     142.245  59.454 133.224  1.00  0.00    -0.292 N 
ATOM      5  H3  UNL     1     141.828  59.510 134.153  1.00  0.00     0.187 HD
HETATM    6  C3  UNL     1     143.053  60.423 132.797  1.00  0.00     0.106 A 
HETATM    7  S1  UNL     1     143.455  59.841 131.238  1.00  0.00    -0.052 SA
ENDROOT
BRANCH   1   8
HETATM    8  C1  UNL     1     142.377  57.308 130.247  1.00  0.00     0.284 C 
BRANCH   8   9
HETATM    9  N1  UNL     1     141.855  56.094 130.848  1.00  0.00    -0.065 N 
ATOM     10  H13 UNL     1     142.371  55.270 130.543  1.00  0.00     0.275 HD
ATOM     11  H12 UNL     1     142.065  56.048 131.846  1.00  0.00     0.275 HD
ATOM     12  H11 UNL     1     140.855  56.000 130.669  1.00  0.00     0.275 HD
ENDBRANCH   8   9
BRANCH   8  13
HETATM   13  C13 UNL     1     143.699  57.118 129.604  1.00  0.00     0.098 A 
HETATM   14  C14 UNL     1     144.008  57.494 128.327  1.00  0.00     0.158 A 
HETATM   15  N8  UNL     1     145.246  57.277 127.800  1.00  0.00    -0.288 N 
HETATM   16  C15 UNL     1     146.192  56.680 128.543  1.00  0.00     0.329 A 
ATOM     17  H8  UNL     1     145.453  57.568 126.845  1.00  0.00     0.172 HD
HETATM   18  O4  UNL     1     147.333  56.476 128.069  1.00  0.00    -0.247 OA
HETATM   19  N9  UNL     1     145.922  56.298 129.798  1.00  0.00    -0.275 N 
HETATM   20  C16 UNL     1     144.705  56.507 130.330  1.00  0.00     0.262 A 
ATOM     21  H9  UNL     1     146.646  55.845 130.355  1.00  0.00     0.173 HD
HETATM   22  O5  UNL     1     144.542  56.115 131.519  1.00  0.00    -0.267 OA
BRANCH  14  23
HETATM   23  O3  UNL     1     143.064  58.106 127.547  1.00  0.00    -0.345 OA
ATOM     24  H3  UNL     1     142.401  58.657 127.947  1.00  0.00     0.219 HD
ENDBRANCH  14  23
ENDBRANCH   8  13
ENDBRANCH   1   8
BRANCH   6  25
HETATM   25  C4  UNL     1     143.440  61.659 133.552  1.00  0.00     0.128 C 
BRANCH  25  26
HETATM   26  N4  UNL     1     144.651  61.501 134.242  1.00  0.00    -0.364 N 
HETATM   27  C5  UNL     1     145.103  60.207 134.567  1.00  0.00     0.083 C 
HETATM   28  C6  UNL     1     146.192  60.188 135.618  1.00  0.00     0.163 C 
HETATM   29  N5  UNL     1     147.102  61.279 135.496  1.00  0.00    -0.390 N 
HETATM   30  C11 UNL     1     146.482  62.560 135.304  1.00  0.00     0.139 C 
HETATM   31  C12 UNL     1     145.670  62.457 134.002  1.00  0.00     0.147 C 
BRANCH  29  32
HETATM   32  C7  UNL     1     148.211  61.267 136.384  1.00  0.00     0.256 C 
BRANCH  32  33
HETATM   33  N6  UNL     1     148.228  60.160 137.319  1.00  0.00    -0.262 N 
HETATM   34  C8  UNL     1     148.881  58.995 137.169  1.00  0.00     0.163 A 
HETATM   35  C9  UNL     1     148.669  58.173 138.262  1.00  0.00     0.149 A 
HETATM   36  N7  UNL     1     147.867  58.873 139.081  1.00  0.00    -0.314 N 
HETATM   37  C10 UNL     1     147.603  60.060 138.519  1.00  0.00     0.329 A 
ATOM     38  H7  UNL     1     147.517  58.554 139.984  1.00  0.00     0.170 HD
HETATM   39  O2  UNL     1     146.896  60.963 138.993  1.00  0.00    -0.246 OA
BRANCH  34  40
HETATM   40  O1  UNL     1     149.681  58.605 136.085  1.00  0.00    -0.345 OA
ATOM     41  H1  UNL     1     150.272  57.863 136.044  1.00  0.00     0.219 HD
ENDBRANCH  34  40
ENDBRANCH  32  33
ENDBRANCH  29  32
ENDBRANCH  25  26
ENDBRANCH   6  25
TORSDOF 9
ENDMDL
MODEL 5
REMARK VINA RESULT: -8.097421052      2.101      3.014
REMARK  9 active torsions:
REMARK  status: ('A' for Active; 'I' for Inactive)
REMARK    1  A    between atoms: N1_1  and  C1_5 
REMARK    2  A    between atoms: C1_5  and  C2_6 
REMARK    3  A    between atoms: C1_5  and  C13_30 
REMARK    4  A    between atoms: C3_11  and  C4_12 
REMARK    5  A    between atoms: C4_12  and  N4_13 
REMARK    6  A    between atoms: N5_16  and  C7_17 
REMARK    7  A    between atoms: C7_17  and  N6_18 
REMARK    8  A    between atoms: C8_19  and  O1_20 
REMARK    9  A    between atoms: C14_31  and  O3_32 
ROOT
HETATM    1  C2  UNL     1     142.488  58.648 131.396  1.00  0.00     0.103 A 
HETATM    2  N2  UNL     1     143.628  59.227 131.047  1.00  0.00    -0.295 N 
ATOM      3  H2  UNL     1     144.202  58.816 130.311  1.00  0.00     0.187 HD
HETATM    4  N3  UNL     1     144.005  60.283 131.620  1.00  0.00    -0.292 N 
ATOM      5  H3  UNL     1     144.883  60.726 131.347  1.00  0.00     0.187 HD
HETATM    6  C3  UNL     1     143.259  60.822 132.582  1.00  0.00     0.106 A 
HETATM    7  S1  UNL     1     141.952  59.718 132.631  1.00  0.00    -0.052 SA
ENDROOT
BRANCH   1   8
HETATM    8  C1  UNL     1     141.864  57.403 130.842  1.00  0.00     0.284 C 
BRANCH   8   9
HETATM    9  N1  UNL     1     141.488  56.493 131.909  1.00  0.00    -0.065 N 
ATOM     10  H13 UNL     1     142.068  55.654 131.911  1.00  0.00     0.275 HD
ATOM     11  H12 UNL     1     141.746  56.861 132.826  1.00  0.00     0.275 HD
ATOM     12  H11 UNL     1     140.496  56.264 131.860  1.00  0.00     0.275 HD
ENDBRANCH   8   9
BRANCH   8  13
HETATM   13  C13 UNL     1     142.834  56.816 129.889  1.00  0.00     0.098 A 
HETATM   14  C14 UNL     1     142.688  56.807 128.531  1.00  0.00     0.158 A 
HETATM   15  N8  UNL     1     143.622  56.237 127.717  1.00  0.00    -0.288 N 
HETATM   16  C15 UNL     1     144.714  55.669 128.252  1.00  0.00     0.329 A 
ATOM     17  H8  UNL     1     143.491  56.243 126.706  1.00  0.00     0.172 HD
HETATM   18  O4  UNL     1     145.579  55.143 127.513  1.00  0.00    -0.247 OA
HETATM   19  N9  UNL     1     144.889  55.660 129.579  1.00  0.00    -0.275 N 
HETATM   20  C16 UNL     1     143.976  56.219 130.392  1.00  0.00     0.262 A 
ATOM     21  H9  UNL     1     145.722  55.226 129.977  1.00  0.00     0.173 HD
HETATM   22  O5  UNL     1     144.224  56.164 131.630  1.00  0.00    -0.267 OA
BRANCH  14  23
HETATM   23  O3  UNL     1     141.585  57.380 127.958  1.00  0.00    -0.345 OA
ATOM     24  H3  UNL     1     141.665  58.206 127.496  1.00  0.00     0.219 HD
ENDBRANCH  14  23
ENDBRANCH   8  13
ENDBRANCH   1   8
BRANCH   6  25
HETATM   25  C4  UNL     1     143.569  62.065 133.361  1.00  0.00     0.128 C 
BRANCH  25  26
HETATM   26  N4  UNL     1     144.721  61.923 134.148  1.00  0.00    -0.364 N 
HETATM   27  C5  UNL     1     145.379  63.071 134.631  1.00  0.00     0.083 C 
HETATM   28  C6  UNL     1     146.785  62.807 135.125  1.00  0.00     0.163 C 
HETATM   29  N5  UNL     1     146.914  61.549 135.784  1.00  0.00    -0.390 N 
HETATM   30  C11 UNL     1     146.307  60.444 135.097  1.00  0.00     0.139 C 
HETATM   31  C12 UNL     1     144.810  60.778 134.979  1.00  0.00     0.147 C 
BRANCH  29  32
HETATM   32  C7  UNL     1     148.182  61.279 136.368  1.00  0.00     0.256 C 
BRANCH  32  33
HETATM   33  N6  UNL     1     148.195  60.172 137.304  1.00  0.00    -0.262 N 
HETATM   34  C8  UNL     1     148.839  59.002 137.150  1.00  0.00     0.163 A 
HETATM   35  C9  UNL     1     148.626  58.182 138.245  1.00  0.00     0.149 A 
HETATM   36  N7  UNL     1     147.833  58.888 139.067  1.00  0.00    -0.314 N 
HETATM   37  C10 UNL     1     147.575  60.077 138.506  1.00  0.00     0.329 A 
ATOM     38  H7  UNL     1     147.484  58.572 139.972  1.00  0.00     0.170 HD
HETATM   39  O2  UNL     1     146.876  60.985 138.983  1.00  0.00    -0.246 OA
BRANCH  34  40
HETATM   40  O1  UNL     1     149.631  58.606 136.063  1.00  0.00    -0.345 OA
ATOM     41  H1  UNL     1     149.364  58.533 135.155  1.00  0.00     0.219 HD
ENDBRANCH  34  40
ENDBRANCH  32  33
ENDBRANCH  29  32
ENDBRANCH  25  26
ENDBRANCH   6  25
TORSDOF 9
ENDMDL
