MODEL 1
REMARK VINA RESULT: -6.322854024      0.000      0.000
REMARK  11 active torsions:
REMARK  status: ('A' for Active; 'I' for Inactive)
REMARK    1  A    between atoms: O1_2  and  C2_3 
REMARK    2  A    between atoms: C3_4  and  O2_5 
REMARK    3  A    between atoms: C4_7  and  N1_8 
REMARK    4  A    between atoms: C6_13  and  N2_14 
REMARK    5  A    between atoms: C7_18  and  O3_19 
REMARK    6  A    between atoms: O3_19  and  C8_20 
REMARK    7  A    between atoms: C8_20  and  C9_22 
REMARK    8  A    between atoms: C9_22  and  S1_23 
REMARK    9  A    between atoms: S1_23  and  C10_24 
REMARK   10  A    between atoms: C10_24  and  C11_25 
REMARK   11  A    between atoms: C11_25  and  N3_26 
ROOT
HETATM    1  N3  UNL     1      -1.634  -6.530  17.057  1.00  0.00     0.013 N 
HETATM    2  C12 UNL     1      -0.327  -5.977  17.283  1.00  0.00     0.292 C 
HETATM    3  C13 UNL     1      -1.993  -7.308  18.258  1.00  0.00     0.292 C 
HETATM    4  C14 UNL     1      -1.645  -7.375  15.960  1.00  0.00     0.283 C 
HETATM    5  N4  UNL     1      -1.655  -8.104  15.051  1.00  0.00    -0.165 NA
ENDROOT
BRANCH   1   6
HETATM    6  C11 UNL     1      -2.602  -5.487  16.930  1.00  0.00     0.265 C 
BRANCH   6   7
HETATM    7  C10 UNL     1      -2.251  -4.236  17.714  1.00  0.00     0.103 C 
BRANCH   7   8
HETATM    8  S1  UNL     1      -2.394  -2.842  16.593  1.00  0.00    -0.158 SA
BRANCH   8   9
HETATM    9  C9  UNL     1      -2.345  -3.408  14.894  1.00  0.00     0.184 C 
BRANCH   9  10
HETATM   10  C8  UNL     1      -3.143  -2.510  14.036  1.00  0.00     0.268 C 
HETATM   11  O4  UNL     1      -2.724  -1.319  13.951  1.00  0.00    -0.264 OA
BRANCH  10  12
HETATM   12  O3  UNL     1      -4.282  -2.853  13.347  1.00  0.00    -0.311 OA
BRANCH  12  13
HETATM   13  C7  UNL     1      -5.303  -3.556  14.042  1.00  0.00     0.193 C 
HETATM   14  C2  UNL     1      -6.443  -2.749  14.515  1.00  0.00     0.183 C 
HETATM   15  C3  UNL     1      -7.751  -3.497  14.398  1.00  0.00     0.180 C 
HETATM   16  C4  UNL     1      -7.682  -4.951  14.687  1.00  0.00     0.216 C 
HETATM   17  C5  UNL     1      -6.507  -5.662  14.066  1.00  0.00     0.071 C 
HETATM   18  C6  UNL     1      -5.781  -4.712  13.119  1.00  0.00     0.217 C 
BRANCH  14  19
HETATM   19  O1  UNL     1      -6.229  -2.340  15.833  1.00  0.00    -0.385 OA
HETATM   20  C1  UNL     1      -5.746  -1.045  15.923  1.00  0.00     0.202 C 
ENDBRANCH  14  19
BRANCH  15  21
HETATM   21  O2  UNL     1      -8.410  -3.251  13.196  1.00  0.00    -0.391 OA
ATOM     22  H2  UNL     1      -9.225  -3.733  13.117  1.00  0.00     0.210 HD
ENDBRANCH  15  21
BRANCH  16  23
HETATM   23  N1  UNL     1      -7.755  -5.179  16.118  1.00  0.00    -0.072 N 
ATOM     24  H13 UNL     1      -6.885  -5.559  16.489  1.00  0.00     0.274 HD
ATOM     25  H12 UNL     1      -7.772  -4.305  16.643  1.00  0.00     0.274 HD
ATOM     26  H11 UNL     1      -8.555  -5.771  16.338  1.00  0.00     0.274 HD
ENDBRANCH  16  23
BRANCH  18  27
HETATM   27  N2  UNL     1      -4.585  -5.303  12.585  1.00  0.00    -0.072 N 
ATOM     28  H23 UNL     1      -4.754  -6.256  12.262  1.00  0.00     0.274 HD
ATOM     29  H22 UNL     1      -4.324  -4.877  11.696  1.00  0.00     0.274 HD
ATOM     30  H21 UNL     1      -3.815  -5.268  13.253  1.00  0.00     0.274 HD
ENDBRANCH  18  27
ENDBRANCH  12  13
ENDBRANCH  10  12
ENDBRANCH   9  10
ENDBRANCH   8   9
ENDBRANCH   7   8
ENDBRANCH   6   7
ENDBRANCH   1   6
TORSDOF 11
ENDMDL
MODEL 2
REMARK VINA RESULT: -6.251981526      1.492      2.440
REMARK  11 active torsions:
REMARK  status: ('A' for Active; 'I' for Inactive)
REMARK    1  A    between atoms: O1_2  and  C2_3 
REMARK    2  A    between atoms: C3_4  and  O2_5 
REMARK    3  A    between atoms: C4_7  and  N1_8 
REMARK    4  A    between atoms: C6_13  and  N2_14 
REMARK    5  A    between atoms: C7_18  and  O3_19 
REMARK    6  A    between atoms: O3_19  and  C8_20 
REMARK    7  A    between atoms: C8_20  and  C9_22 
REMARK    8  A    between atoms: C9_22  and  S1_23 
REMARK    9  A    between atoms: S1_23  and  C10_24 
REMARK   10  A    between atoms: C10_24  and  C11_25 
REMARK   11  A    between atoms: C11_25  and  N3_26 
ROOT
HETATM    1  N3  UNL     1      -1.303  -6.391  16.894  1.00  0.00     0.013 N 
HETATM    2  C12 UNL     1       0.057  -5.929  16.931  1.00  0.00     0.292 C 
HETATM    3  C13 UNL     1      -1.599  -6.989  18.209  1.00  0.00     0.292 C 
HETATM    4  C14 UNL     1      -1.486  -7.353  15.915  1.00  0.00     0.283 C 
HETATM    5  N4  UNL     1      -1.640  -8.180  15.108  1.00  0.00    -0.165 NA
ENDROOT
BRANCH   1   6
HETATM    6  C11 UNL     1      -2.199  -5.289  16.726  1.00  0.00     0.265 C 
BRANCH   6   7
HETATM    7  C10 UNL     1      -1.939  -4.146  17.688  1.00  0.00     0.103 C 
BRANCH   7   8
HETATM    8  S1  UNL     1      -1.884  -2.634  16.722  1.00  0.00    -0.158 SA
BRANCH   8   9
HETATM    9  C9  UNL     1      -2.241  -2.986  15.003  1.00  0.00     0.184 C 
BRANCH   9  10
HETATM   10  C8  UNL     1      -3.069  -1.909  14.425  1.00  0.00     0.268 C 
HETATM   11  O4  UNL     1      -2.536  -1.256  13.480  1.00  0.00    -0.264 OA
BRANCH  10  12
HETATM   12  O3  UNL     1      -4.337  -1.561  14.826  1.00  0.00    -0.311 OA
BRANCH  12  13
HETATM   13  C7  UNL     1      -5.379  -2.513  14.666  1.00  0.00     0.193 C 
HETATM   14  C2  UNL     1      -5.140  -3.579  13.675  1.00  0.00     0.183 C 
HETATM   15  C3  UNL     1      -5.706  -4.906  14.127  1.00  0.00     0.180 C 
HETATM   16  C4  UNL     1      -6.991  -4.833  14.865  1.00  0.00     0.216 C 
HETATM   17  C5  UNL     1      -7.060  -3.745  15.908  1.00  0.00     0.071 C 
HETATM   18  C6  UNL     1      -5.683  -3.110  16.068  1.00  0.00     0.217 C 
BRANCH  14  19
HETATM   19  O1  UNL     1      -5.674  -3.215  12.437  1.00  0.00    -0.385 OA
HETATM   20  C1  UNL     1      -5.495  -4.186  11.467  1.00  0.00     0.202 C 
ENDBRANCH  14  19
BRANCH  15  21
HETATM   21  O2  UNL     1      -4.776  -5.687  14.809  1.00  0.00    -0.391 OA
ATOM     22  H2  UNL     1      -5.047  -5.895  15.695  1.00  0.00     0.210 HD
ENDBRANCH  15  21
BRANCH  16  23
HETATM   23  N1  UNL     1      -8.098  -4.753  13.930  1.00  0.00    -0.072 N 
ATOM     24  H13 UNL     1      -7.795  -4.892  12.967  1.00  0.00     0.274 HD
ATOM     25  H12 UNL     1      -8.721  -5.557  14.007  1.00  0.00     0.274 HD
ATOM     26  H11 UNL     1      -8.596  -3.872  14.051  1.00  0.00     0.274 HD
ENDBRANCH  16  23
BRANCH  18  27
HETATM   27  N2  UNL     1      -5.715  -1.990  16.968  1.00  0.00    -0.072 N 
ATOM     28  H23 UNL     1      -6.524  -2.035  17.588  1.00  0.00     0.274 HD
ATOM     29  H22 UNL     1      -4.975  -2.053  17.668  1.00  0.00     0.274 HD
ATOM     30  H21 UNL     1      -5.678  -1.102  16.468  1.00  0.00     0.274 HD
ENDBRANCH  18  27
ENDBRANCH  12  13
ENDBRANCH  10  12
ENDBRANCH   9  10
ENDBRANCH   8   9
ENDBRANCH   7   8
ENDBRANCH   6   7
ENDBRANCH   1   6
TORSDOF 11
ENDMDL
MODEL 3
REMARK VINA RESULT: -6.249655388      2.268      5.943
REMARK  11 active torsions:
REMARK  status: ('A' for Active; 'I' for Inactive)
REMARK    1  A    between atoms: O1_2  and  C2_3 
REMARK    2  A    between atoms: C3_4  and  O2_5 
REMARK    3  A    between atoms: C4_7  and  N1_8 
REMARK    4  A    between atoms: C6_13  and  N2_14 
REMARK    5  A    between atoms: C7_18  and  O3_19 
REMARK    6  A    between atoms: O3_19  and  C8_20 
REMARK    7  A    between atoms: C8_20  and  C9_22 
REMARK    8  A    between atoms: C9_22  and  S1_23 
REMARK    9  A    between atoms: S1_23  and  C10_24 
REMARK   10  A    between atoms: C10_24  and  C11_25 
REMARK   11  A    between atoms: C11_25  and  N3_26 
ROOT
HETATM    1  N3  UNL     1      -8.176  -4.865  15.172  1.00  0.00     0.013 N 
HETATM    2  C12 UNL     1      -7.399  -5.670  14.271  1.00  0.00     0.292 C 
HETATM    3  C13 UNL     1      -8.497  -5.703  16.343  1.00  0.00     0.292 C 
HETATM    4  C14 UNL     1      -9.359  -4.446  14.587  1.00  0.00     0.283 C 
HETATM    5  N4  UNL     1     -10.366  -4.110  14.107  1.00  0.00    -0.165 NA
ENDROOT
BRANCH   1   6
HETATM    6  C11 UNL     1      -7.403  -3.761  15.648  1.00  0.00     0.265 C 
BRANCH   6   7
HETATM    7  C10 UNL     1      -6.765  -2.945  14.540  1.00  0.00     0.103 C 
BRANCH   7   8
HETATM    8  S1  UNL     1      -5.893  -1.580  15.311  1.00  0.00    -0.158 SA
BRANCH   8   9
HETATM    9  C9  UNL     1      -4.322  -2.140  15.964  1.00  0.00     0.184 C 
BRANCH   9  10
HETATM   10  C8  UNL     1      -3.232  -1.794  15.031  1.00  0.00     0.268 C 
HETATM   11  O4  UNL     1      -3.419  -0.755  14.333  1.00  0.00    -0.264 OA
BRANCH  10  12
HETATM   12  O3  UNL     1      -2.063  -2.497  14.858  1.00  0.00    -0.311 OA
BRANCH  12  13
HETATM   13  C7  UNL     1      -2.007  -3.836  15.329  1.00  0.00     0.193 C 
HETATM   14  C2  UNL     1      -2.210  -4.890  14.317  1.00  0.00     0.183 C 
HETATM   15  C3  UNL     1      -1.330  -6.092  14.572  1.00  0.00     0.180 C 
HETATM   16  C4  UNL     1      -1.127  -6.443  15.999  1.00  0.00     0.216 C 
HETATM   17  C5  UNL     1      -0.845  -5.269  16.903  1.00  0.00     0.071 C 
HETATM   18  C6  UNL     1      -0.647  -4.015  16.058  1.00  0.00     0.217 C 
BRANCH  14  19
HETATM   19  O1  UNL     1      -3.554  -5.266  14.276  1.00  0.00    -0.385 OA
HETATM   20  C1  UNL     1      -4.207  -4.809  13.145  1.00  0.00     0.202 C 
ENDBRANCH  14  19
BRANCH  15  21
HETATM   21  O2  UNL     1      -0.118  -6.032  13.889  1.00  0.00    -0.391 OA
ATOM     22  H2  UNL     1       0.531  -5.502  14.336  1.00  0.00     0.210 HD
ENDBRANCH  15  21
BRANCH  16  23
HETATM   23  N1  UNL     1      -2.242  -7.238  16.481  1.00  0.00    -0.072 N 
ATOM     24  H13 UNL     1      -2.840  -7.557  15.719  1.00  0.00     0.274 HD
ATOM     25  H12 UNL     1      -1.940  -8.149  16.825  1.00  0.00     0.274 HD
ATOM     26  H11 UNL     1      -2.765  -6.718  17.185  1.00  0.00     0.274 HD
ENDBRANCH  16  23
BRANCH  18  27
HETATM   27  N2  UNL     1      -0.487  -2.844  16.875  1.00  0.00    -0.072 N 
ATOM     28  H23 UNL     1      -1.384  -2.514  17.232  1.00  0.00     0.274 HD
ATOM     29  H22 UNL     1      -0.035  -3.067  17.762  1.00  0.00     0.274 HD
ATOM     30  H21 UNL     1       0.012  -2.104  16.381  1.00  0.00     0.274 HD
ENDBRANCH  18  27
ENDBRANCH  12  13
ENDBRANCH  10  12
ENDBRANCH   9  10
ENDBRANCH   8   9
ENDBRANCH   7   8
ENDBRANCH   6   7
ENDBRANCH   1   6
TORSDOF 11
ENDMDL
MODEL 4
REMARK VINA RESULT: -6.207300505      4.359      5.525
REMARK  11 active torsions:
REMARK  status: ('A' for Active; 'I' for Inactive)
REMARK    1  A    between atoms: O1_2  and  C2_3 
REMARK    2  A    between atoms: C3_4  and  O2_5 
REMARK    3  A    between atoms: C4_7  and  N1_8 
REMARK    4  A    between atoms: C6_13  and  N2_14 
REMARK    5  A    between atoms: C7_18  and  O3_19 
REMARK    6  A    between atoms: O3_19  and  C8_20 
REMARK    7  A    between atoms: C8_20  and  C9_22 
REMARK    8  A    between atoms: C9_22  and  S1_23 
REMARK    9  A    between atoms: S1_23  and  C10_24 
REMARK   10  A    between atoms: C10_24  and  C11_25 
REMARK   11  A    between atoms: C11_25  and  N3_26 
ROOT
HETATM    1  N3  UNL     1       0.804   1.954  17.758  1.00  0.00     0.013 N 
HETATM    2  C12 UNL     1       0.697   2.682  16.524  1.00  0.00     0.292 C 
HETATM    3  C13 UNL     1       0.982   2.944  18.837  1.00  0.00     0.292 C 
HETATM    4  C14 UNL     1       1.896   1.102  17.751  1.00  0.00     0.283 C 
HETATM    5  N4  UNL     1       2.826   0.400  17.759  1.00  0.00    -0.165 NA
ENDROOT
BRANCH   1   6
HETATM    6  C11 UNL     1      -0.411   1.253  18.031  1.00  0.00     0.265 C 
BRANCH   6   7
HETATM    7  C10 UNL     1      -1.551   1.634  17.105  1.00  0.00     0.103 C 
BRANCH   7   8
HETATM    8  S1  UNL     1      -2.615   0.198  16.943  1.00  0.00    -0.158 SA
BRANCH   8   9
HETATM    9  C9  UNL     1      -3.393   0.185  15.330  1.00  0.00     0.184 C 
BRANCH   9  10
HETATM   10  C8  UNL     1      -3.257  -1.148  14.711  1.00  0.00     0.268 C 
HETATM   11  O4  UNL     1      -2.655  -1.175  13.598  1.00  0.00    -0.264 OA
BRANCH  10  12
HETATM   12  O3  UNL     1      -3.728  -2.331  15.229  1.00  0.00    -0.311 OA
BRANCH  12  13
HETATM   13  C7  UNL     1      -5.022  -2.769  14.839  1.00  0.00     0.193 C 
HETATM   14  C2  UNL     1      -5.069  -3.815  13.801  1.00  0.00     0.183 C 
HETATM   15  C3  UNL     1      -6.185  -4.805  14.048  1.00  0.00     0.180 C 
HETATM   16  C4  UNL     1      -7.436  -4.230  14.600  1.00  0.00     0.216 C 
HETATM   17  C5  UNL     1      -7.236  -3.235  15.715  1.00  0.00     0.071 C 
HETATM   18  C6  UNL     1      -5.767  -3.223  16.125  1.00  0.00     0.217 C 
BRANCH  14  19
HETATM   19  O1  UNL     1      -5.200  -3.235  12.537  1.00  0.00    -0.385 OA
HETATM   20  C1  UNL     1      -5.404  -4.168  11.535  1.00  0.00     0.202 C 
ENDBRANCH  14  19
BRANCH  15  21
HETATM   21  O2  UNL     1      -5.772  -5.915  14.781  1.00  0.00    -0.391 OA
ATOM     22  H2  UNL     1      -6.056  -5.885  15.687  1.00  0.00     0.210 HD
ENDBRANCH  15  21
BRANCH  16  23
HETATM   23  N1  UNL     1      -8.248  -3.682  13.529  1.00  0.00    -0.072 N 
ATOM     24  H13 UNL     1      -7.679  -3.346  12.753  1.00  0.00     0.274 HD
ATOM     25  H12 UNL     1      -8.764  -4.408  13.032  1.00  0.00     0.274 HD
ATOM     26  H11 UNL     1      -8.865  -2.957  13.893  1.00  0.00     0.274 HD
ENDBRANCH  16  23
BRANCH  18  27
HETATM   27  N2  UNL     1      -5.497  -2.210  17.108  1.00  0.00    -0.072 N 
ATOM     28  H23 UNL     1      -5.638  -1.275  16.726  1.00  0.00     0.274 HD
ATOM     29  H22 UNL     1      -6.214  -2.195  17.834  1.00  0.00     0.274 HD
ATOM     30  H21 UNL     1      -4.565  -2.312  17.510  1.00  0.00     0.274 HD
ENDBRANCH  18  27
ENDBRANCH  12  13
ENDBRANCH  10  12
ENDBRANCH   9  10
ENDBRANCH   8   9
ENDBRANCH   7   8
ENDBRANCH   6   7
ENDBRANCH   1   6
TORSDOF 11
ENDMDL
MODEL 5
REMARK VINA RESULT: -6.188450674      2.332      5.888
REMARK  11 active torsions:
REMARK  status: ('A' for Active; 'I' for Inactive)
REMARK    1  A    between atoms: O1_2  and  C2_3 
REMARK    2  A    between atoms: C3_4  and  O2_5 
REMARK    3  A    between atoms: C4_7  and  N1_8 
REMARK    4  A    between atoms: C6_13  and  N2_14 
REMARK    5  A    between atoms: C7_18  and  O3_19 
REMARK    6  A    between atoms: O3_19  and  C8_20 
REMARK    7  A    between atoms: C8_20  and  C9_22 
REMARK    8  A    between atoms: C9_22  and  S1_23 
REMARK    9  A    between atoms: S1_23  and  C10_24 
REMARK   10  A    between atoms: C10_24  and  C11_25 
REMARK   11  A    between atoms: C11_25  and  N3_26 
ROOT
HETATM    1  N3  UNL     1      -8.005  -4.593  15.014  1.00  0.00     0.013 N 
HETATM    2  C12 UNL     1      -7.138  -5.258  14.082  1.00  0.00     0.292 C 
HETATM    3  C13 UNL     1      -8.165  -5.487  16.177  1.00  0.00     0.292 C 
HETATM    4  C14 UNL     1      -9.253  -4.351  14.464  1.00  0.00     0.283 C 
HETATM    5  N4  UNL     1     -10.311  -4.165  14.013  1.00  0.00    -0.165 NA
ENDROOT
BRANCH   1   6
HETATM    6  C11 UNL     1      -7.397  -3.391  15.493  1.00  0.00     0.265 C 
BRANCH   6   7
HETATM    7  C10 UNL     1      -6.017  -3.140  14.915  1.00  0.00     0.103 C 
BRANCH   7   8
HETATM    8  S1  UNL     1      -5.270  -1.813  15.865  1.00  0.00    -0.158 SA
BRANCH   8   9
HETATM    9  C9  UNL     1      -3.529  -2.143  16.122  1.00  0.00     0.184 C 
BRANCH   9  10
HETATM   10  C8  UNL     1      -2.871  -2.437  14.834  1.00  0.00     0.268 C 
HETATM   11  O4  UNL     1      -2.811  -1.472  14.017  1.00  0.00    -0.264 OA
BRANCH  10  12
HETATM   12  O3  UNL     1      -2.341  -3.647  14.455  1.00  0.00    -0.311 OA
BRANCH  12  13
HETATM   13  C7  UNL     1      -2.005  -4.583  15.471  1.00  0.00     0.193 C 
HETATM   14  C2  UNL     1      -2.873  -5.771  15.573  1.00  0.00     0.183 C 
HETATM   15  C3  UNL     1      -2.087  -7.014  15.922  1.00  0.00     0.180 C 
HETATM   16  C4  UNL     1      -0.963  -6.813  16.871  1.00  0.00     0.216 C 
HETATM   17  C5  UNL     1      -0.110  -5.601  16.590  1.00  0.00     0.071 C 
HETATM   18  C6  UNL     1      -0.521  -4.990  15.255  1.00  0.00     0.217 C 
BRANCH  14  19
HETATM   19  O1  UNL     1      -3.883  -5.551  16.513  1.00  0.00    -0.385 OA
HETATM   20  C1  UNL     1      -4.717  -6.643  16.672  1.00  0.00     0.202 C 
ENDBRANCH  14  19
BRANCH  15  21
HETATM   21  O2  UNL     1      -1.678  -7.729  14.799  1.00  0.00    -0.391 OA
ATOM     22  H2  UNL     1      -2.400  -7.964  14.229  1.00  0.00     0.210 HD
ENDBRANCH  15  21
BRANCH  16  23
HETATM   23  N1  UNL     1      -1.456  -6.821  18.236  1.00  0.00    -0.072 N 
ATOM     24  H13 UNL     1      -1.326  -5.919  18.694  1.00  0.00     0.274 HD
ATOM     25  H12 UNL     1      -2.474  -6.862  18.274  1.00  0.00     0.274 HD
ATOM     26  H11 UNL     1      -1.024  -7.582  18.759  1.00  0.00     0.274 HD
ENDBRANCH  16  23
BRANCH  18  27
HETATM   27  N2  UNL     1       0.183  -3.765  14.992  1.00  0.00    -0.072 N 
ATOM     28  H23 UNL     1      -0.404  -3.100  14.489  1.00  0.00     0.274 HD
ATOM     29  H22 UNL     1       0.334  -3.230  15.847  1.00  0.00     0.274 HD
ATOM     30  H21 UNL     1       1.061  -3.933  14.500  1.00  0.00     0.274 HD
ENDBRANCH  18  27
ENDBRANCH  12  13
ENDBRANCH  10  12
ENDBRANCH   9  10
ENDBRANCH   8   9
ENDBRANCH   7   8
ENDBRANCH   6   7
ENDBRANCH   1   6
TORSDOF 11
ENDMDL
