MODEL 1
REMARK VINA RESULT: -8.096405859      0.000      0.000
REMARK  6 active torsions:
REMARK  status: ('A' for Active; 'I' for Inactive)
REMARK    1  A    between atoms: C2_2  and  C3_3 
REMARK    2  A    between atoms: C3_3  and  C4_4 
REMARK    3  A    between atoms: N1_6  and  N2_7 
REMARK    4  A    between atoms: C8_15  and  C9_16 
REMARK    5  A    between atoms: C12_19  and  C13_20 
REMARK    6  A    between atoms: C13_20  and  N4_21 
ROOT
HETATM    1  C9  UNL     1      -2.914  -6.327  16.290  1.00  0.00     0.157 C 
HETATM    2  C10 UNL     1      -2.184  -5.301  15.480  1.00  0.00     0.068 C 
HETATM    3  C11 UNL     1      -0.736  -5.629  15.172  1.00  0.00     0.040 C 
HETATM    4  C12 UNL     1      -0.138  -6.708  16.003  1.00  0.00     0.077 C 
HETATM    5  C14 UNL     1      -1.141  -7.842  16.017  1.00  0.00     0.204 C 
HETATM    6  O2  UNL     1      -2.425  -7.548  15.759  1.00  0.00    -0.354 OA
HETATM    7  N5  UNL     1      -0.049  -6.225  17.405  1.00  0.00    -0.351 N 
ATOM      8  H5  UNL     1       0.856  -6.028  17.831  1.00  0.00     0.163 HD
HETATM    9  C15 UNL     1      -1.167  -6.057  18.089  1.00  0.00     0.189 C 
HETATM   10  N6  UNL     1      -0.942  -5.584  19.437  1.00  0.00    -0.064 NA
HETATM   11  N7  UNL     1      -2.527  -6.278  17.709  1.00  0.00    -0.325 N 
HETATM   12  C16 UNL     1      -3.501  -6.466  18.752  1.00  0.00     0.156 C 
ENDROOT
BRANCH   1  13
HETATM   13  C8  UNL     1      -4.366  -6.309  16.069  1.00  0.00     0.040 C 
HETATM   14  C2  UNL     1      -5.173  -5.204  15.688  1.00  0.00    -0.059 C 
HETATM   15  C1  UNL     1      -6.675  -5.699  15.714  1.00  0.00     0.048 C 
BRANCH  14  16
HETATM   16  C3  UNL     1      -5.063  -4.273  14.584  1.00  0.00     0.040 C 
BRANCH  16  17
HETATM   17  C4  UNL     1      -4.621  -2.879  14.739  1.00  0.00     0.066 C 
HETATM   18  C5  UNL     1      -3.415  -2.363  14.068  1.00  0.00     0.208 C 
HETATM   19  N1  UNL     1      -3.288  -0.952  14.374  1.00  0.00    -0.306 N 
HETATM   20  C6  UNL     1      -4.059  -0.388  15.435  1.00  0.00     0.171 C 
HETATM   21  C7  UNL     1      -5.481  -0.883  15.470  1.00  0.00     0.197 C 
HETATM   22  O1  UNL     1      -5.698  -1.963  14.641  1.00  0.00    -0.352 OA
BRANCH  19  23
HETATM   23  N2  UNL     1      -2.423  -0.153  13.647  1.00  0.00    -0.251 N 
HETATM   24  N3  UNL     1      -2.265   1.068  13.954  1.00  0.00    -0.331 N 
ATOM     25  H32 UNL     1      -2.785   1.447  14.744  1.00  0.00     0.178 HD
ATOM     26  H31 UNL     1      -1.628   1.657  13.417  1.00  0.00     0.178 HD
ATOM     27  H2  UNL     1      -1.911  -0.549  12.858  1.00  0.00     0.207 HD
ENDBRANCH  19  23
ENDBRANCH  16  17
ENDBRANCH  14  16
ENDBRANCH   1  13
BRANCH   4  28
HETATM   28  C13 UNL     1       1.196  -7.102  15.488  1.00  0.00     0.262 C 
BRANCH  28  29
HETATM   29  N4  UNL     1       1.340  -8.541  15.536  1.00  0.00    -0.077 N 
ATOM     30  H43 UNL     1       1.441  -8.883  16.491  1.00  0.00     0.274 HD
ATOM     31  H42 UNL     1       0.471  -9.020  15.297  1.00  0.00     0.274 HD
ATOM     32  H41 UNL     1       2.114  -8.834  14.940  1.00  0.00     0.274 HD
ENDBRANCH  28  29
ENDBRANCH   4  28
TORSDOF 6
ENDMDL
MODEL 2
REMARK VINA RESULT: -7.905814521      3.834      5.885
REMARK  6 active torsions:
REMARK  status: ('A' for Active; 'I' for Inactive)
REMARK    1  A    between atoms: C2_2  and  C3_3 
REMARK    2  A    between atoms: C3_3  and  C4_4 
REMARK    3  A    between atoms: N1_6  and  N2_7 
REMARK    4  A    between atoms: C8_15  and  C9_16 
REMARK    5  A    between atoms: C12_19  and  C13_20 
REMARK    6  A    between atoms: C13_20  and  N4_21 
ROOT
HETATM    1  C9  UNL     1      -6.913  -5.727  15.077  1.00  0.00     0.157 C 
HETATM    2  C10 UNL     1      -7.475  -7.091  15.337  1.00  0.00     0.068 C 
HETATM    3  C11 UNL     1      -7.981  -7.829  14.114  1.00  0.00     0.040 C 
HETATM    4  C12 UNL     1      -8.197  -6.985  12.908  1.00  0.00     0.077 C 
HETATM    5  C14 UNL     1      -6.961  -6.122  12.762  1.00  0.00     0.204 C 
HETATM    6  O2  UNL     1      -6.213  -5.907  13.857  1.00  0.00    -0.354 OA
HETATM    7  N5  UNL     1      -9.317  -6.048  13.185  1.00  0.00    -0.351 N 
ATOM      8  H5  UNL     1     -10.212  -6.152  12.708  1.00  0.00     0.163 HD
HETATM    9  C15 UNL     1      -9.130  -5.079  14.064  1.00  0.00     0.189 C 
HETATM   10  N6  UNL     1     -10.295  -4.241  14.241  1.00  0.00    -0.064 NA
HETATM   11  N7  UNL     1      -7.975  -4.738  14.834  1.00  0.00    -0.325 N 
HETATM   12  C16 UNL     1      -7.875  -3.399  15.349  1.00  0.00     0.156 C 
ENDROOT
BRANCH   1  13
HETATM   13  C8  UNL     1      -5.928  -5.308  16.083  1.00  0.00     0.040 C 
HETATM   14  C2  UNL     1      -4.544  -5.054  15.890  1.00  0.00    -0.059 C 
HETATM   15  C1  UNL     1      -3.926  -4.761  17.316  1.00  0.00     0.048 C 
BRANCH  14  16
HETATM   16  C3  UNL     1      -3.850  -4.196  14.953  1.00  0.00     0.040 C 
BRANCH  16  17
HETATM   17  C4  UNL     1      -3.739  -2.738  15.116  1.00  0.00     0.066 C 
HETATM   18  C5  UNL     1      -2.962  -1.905  14.182  1.00  0.00     0.208 C 
HETATM   19  N1  UNL     1      -3.098  -0.518  14.583  1.00  0.00    -0.306 N 
HETATM   20  C6  UNL     1      -3.620  -0.206  15.874  1.00  0.00     0.171 C 
HETATM   21  C7  UNL     1      -4.795  -1.061  16.268  1.00  0.00     0.197 C 
HETATM   22  O1  UNL     1      -4.984  -2.139  15.430  1.00  0.00    -0.352 OA
BRANCH  19  23
HETATM   23  N2  UNL     1      -2.722   0.498  13.722  1.00  0.00    -0.251 N 
HETATM   24  N3  UNL     1      -1.938   1.415  14.115  1.00  0.00    -0.331 N 
ATOM     25  H32 UNL     1      -1.591   1.388  15.074  1.00  0.00     0.178 HD
ATOM     26  H31 UNL     1      -1.661   2.165  13.481  1.00  0.00     0.178 HD
ATOM     27  H2  UNL     1      -3.079   0.511  12.767  1.00  0.00     0.207 HD
ENDBRANCH  19  23
ENDBRANCH  16  17
ENDBRANCH  14  16
ENDBRANCH   1  13
BRANCH   4  28
HETATM   28  C13 UNL     1      -8.482  -7.819  11.716  1.00  0.00     0.262 C 
BRANCH  28  29
HETATM   29  N4  UNL     1      -7.573  -7.477  10.643  1.00  0.00    -0.077 N 
ATOM     30  H43 UNL     1      -6.636  -7.268  10.988  1.00  0.00     0.274 HD
ATOM     31  H42 UNL     1      -7.341  -8.285  10.066  1.00  0.00     0.274 HD
ATOM     32  H41 UNL     1      -7.957  -6.710  10.091  1.00  0.00     0.274 HD
ENDBRANCH  28  29
ENDBRANCH   4  28
TORSDOF 6
ENDMDL
MODEL 3
REMARK VINA RESULT: -7.840535856      4.317      5.900
REMARK  6 active torsions:
REMARK  status: ('A' for Active; 'I' for Inactive)
REMARK    1  A    between atoms: C2_2  and  C3_3 
REMARK    2  A    between atoms: C3_3  and  C4_4 
REMARK    3  A    between atoms: N1_6  and  N2_7 
REMARK    4  A    between atoms: C8_15  and  C9_16 
REMARK    5  A    between atoms: C12_19  and  C13_20 
REMARK    6  A    between atoms: C13_20  and  N4_21 
ROOT
HETATM    1  C9  UNL     1      -7.262  -5.986  14.171  1.00  0.00     0.157 C 
HETATM    2  C10 UNL     1      -7.856  -4.928  15.047  1.00  0.00     0.068 C 
HETATM    3  C11 UNL     1      -7.982  -5.293  16.513  1.00  0.00     0.040 C 
HETATM    4  C12 UNL     1      -7.856  -6.743  16.818  1.00  0.00     0.077 C 
HETATM    5  C14 UNL     1      -6.642  -7.237  16.060  1.00  0.00     0.204 C 
HETATM    6  O2  UNL     1      -6.240  -6.531  14.990  1.00  0.00    -0.354 OA
HETATM    7  N5  UNL     1      -9.021  -7.451  16.226  1.00  0.00    -0.351 N 
ATOM      8  H5  UNL     1      -9.740  -7.858  16.822  1.00  0.00     0.163 HD
HETATM    9  C15 UNL     1      -9.105  -7.541  14.910  1.00  0.00     0.189 C 
HETATM   10  N6  UNL     1     -10.283  -8.251  14.464  1.00  0.00    -0.064 NA
HETATM   11  N7  UNL     1      -8.223  -7.065  13.891  1.00  0.00    -0.325 N 
HETATM   12  C16 UNL     1      -8.291  -7.681  12.592  1.00  0.00     0.156 C 
ENDROOT
BRANCH   1  13
HETATM   13  C8  UNL     1      -6.611  -5.444  12.971  1.00  0.00     0.040 C 
HETATM   14  C2  UNL     1      -5.772  -4.300  12.880  1.00  0.00    -0.059 C 
HETATM   15  C1  UNL     1      -5.447  -4.088  11.347  1.00  0.00     0.048 C 
BRANCH  14  16
HETATM   16  C3  UNL     1      -4.579  -3.928  13.612  1.00  0.00     0.040 C 
BRANCH  16  17
HETATM   17  C4  UNL     1      -4.462  -2.690  14.397  1.00  0.00     0.066 C 
HETATM   18  C5  UNL     1      -3.261  -1.839  14.339  1.00  0.00     0.208 C 
HETATM   19  N1  UNL     1      -3.482  -0.677  15.177  1.00  0.00    -0.306 N 
HETATM   20  C6  UNL     1      -4.563  -0.674  16.109  1.00  0.00     0.171 C 
HETATM   21  C7  UNL     1      -5.833  -1.262  15.553  1.00  0.00     0.197 C 
HETATM   22  O1  UNL     1      -5.648  -1.915  14.353  1.00  0.00    -0.352 OA
BRANCH  19  23
HETATM   23  N2  UNL     1      -2.650   0.424  15.079  1.00  0.00    -0.251 N 
HETATM   24  N3  UNL     1      -2.355   0.907  13.943  1.00  0.00    -0.331 N 
ATOM     25  H32 UNL     1      -2.743   0.470  13.107  1.00  0.00     0.178 HD
ATOM     26  H31 UNL     1      -1.741   1.719  13.870  1.00  0.00     0.178 HD
ATOM     27  H2  UNL     1      -2.270   0.849  15.924  1.00  0.00     0.207 HD
ENDBRANCH  19  23
ENDBRANCH  16  17
ENDBRANCH  14  16
ENDBRANCH   1  13
BRANCH   4  28
HETATM   28  C13 UNL     1      -7.777  -6.977  18.281  1.00  0.00     0.262 C 
BRANCH  28  29
HETATM   29  N4  UNL     1      -9.092  -6.855  18.873  1.00  0.00    -0.077 N 
ATOM     30  H43 UNL     1      -9.748  -6.378  18.254  1.00  0.00     0.274 HD
ATOM     31  H42 UNL     1      -9.570  -7.755  18.930  1.00  0.00     0.274 HD
ATOM     32  H41 UNL     1      -9.024  -6.401  19.783  1.00  0.00     0.274 HD
ENDBRANCH  28  29
ENDBRANCH   4  28
TORSDOF 6
ENDMDL
MODEL 4
REMARK VINA RESULT: -7.677367609      2.026      6.396
REMARK  6 active torsions:
REMARK  status: ('A' for Active; 'I' for Inactive)
REMARK    1  A    between atoms: C2_2  and  C3_3 
REMARK    2  A    between atoms: C3_3  and  C4_4 
REMARK    3  A    between atoms: N1_6  and  N2_7 
REMARK    4  A    between atoms: C8_15  and  C9_16 
REMARK    5  A    between atoms: C12_19  and  C13_20 
REMARK    6  A    between atoms: C13_20  and  N4_21 
ROOT
HETATM    1  C9  UNL     1      -4.433  -3.996  16.600  1.00  0.00     0.157 C 
HETATM    2  C10 UNL     1      -5.738  -3.323  16.892  1.00  0.00     0.068 C 
HETATM    3  C11 UNL     1      -6.660  -3.150  15.701  1.00  0.00     0.040 C 
HETATM    4  C12 UNL     1      -6.017  -3.323  14.371  1.00  0.00     0.077 C 
HETATM    5  C14 UNL     1      -5.188  -4.587  14.456  1.00  0.00     0.204 C 
HETATM    6  O2  UNL     1      -4.803  -5.004  15.673  1.00  0.00    -0.354 OA
HETATM    7  N5  UNL     1      -5.049  -2.214  14.170  1.00  0.00    -0.351 N 
ATOM      8  H5  UNL     1      -5.227  -1.487  13.477  1.00  0.00     0.163 HD
HETATM    9  C15 UNL     1      -3.953  -2.188  14.908  1.00  0.00     0.189 C 
HETATM   10  N6  UNL     1      -3.098  -1.060  14.615  1.00  0.00    -0.064 NA
HETATM   11  N7  UNL     1      -3.495  -3.092  15.916  1.00  0.00    -0.325 N 
HETATM   12  C16 UNL     1      -2.090  -3.103  16.229  1.00  0.00     0.156 C 
ENDROOT
BRANCH   1  13
HETATM   13  C8  UNL     1      -3.859  -4.674  17.770  1.00  0.00     0.040 C 
HETATM   14  C2  UNL     1      -3.711  -6.071  17.978  1.00  0.00    -0.059 C 
HETATM   15  C1  UNL     1      -3.159  -6.263  19.447  1.00  0.00     0.048 C 
BRANCH  14  16
HETATM   16  C3  UNL     1      -3.093  -7.099  17.166  1.00  0.00     0.040 C 
BRANCH  16  17
HETATM   17  C4  UNL     1      -1.884  -6.877  16.358  1.00  0.00     0.066 C 
HETATM   18  C5  UNL     1      -0.619  -7.578  16.637  1.00  0.00     0.208 C 
HETATM   19  N1  UNL     1       0.353  -7.186  15.634  1.00  0.00    -0.306 N 
HETATM   20  C6  UNL     1       0.096  -6.050  14.809  1.00  0.00     0.171 C 
HETATM   21  C7  UNL     1      -1.328  -5.970  14.327  1.00  0.00     0.197 C 
HETATM   22  O1  UNL     1      -2.167  -6.856  14.968  1.00  0.00    -0.352 OA
BRANCH  19  23
HETATM   23  N2  UNL     1       1.524  -7.906  15.477  1.00  0.00    -0.251 N 
HETATM   24  N3  UNL     1       2.627  -7.438  15.896  1.00  0.00    -0.331 N 
ATOM     25  H32 UNL     1       2.633  -6.525  16.350  1.00  0.00     0.178 HD
ATOM     26  H31 UNL     1       3.491  -7.969  15.780  1.00  0.00     0.178 HD
ATOM     27  H2  UNL     1       1.501  -8.818  15.021  1.00  0.00     0.207 HD
ENDBRANCH  19  23
ENDBRANCH  16  17
ENDBRANCH  14  16
ENDBRANCH   1  13
BRANCH   4  28
HETATM   28  C13 UNL     1      -7.030  -3.350  13.287  1.00  0.00     0.262 C 
BRANCH  28  29
HETATM   29  N4  UNL     1      -8.341  -3.609  13.841  1.00  0.00    -0.077 N 
ATOM     30  H43 UNL     1      -8.943  -4.106  13.185  1.00  0.00     0.274 HD
ATOM     31  H42 UNL     1      -8.312  -4.313  14.579  1.00  0.00     0.274 HD
ATOM     32  H41 UNL     1      -8.763  -2.737  14.162  1.00  0.00     0.274 HD
ENDBRANCH  28  29
ENDBRANCH   4  28
TORSDOF 6
ENDMDL
MODEL 5
REMARK VINA RESULT: -7.667393824      2.046      2.733
REMARK  6 active torsions:
REMARK  status: ('A' for Active; 'I' for Inactive)
REMARK    1  A    between atoms: C2_2  and  C3_3 
REMARK    2  A    between atoms: C3_3  and  C4_4 
REMARK    3  A    between atoms: N1_6  and  N2_7 
REMARK    4  A    between atoms: C8_15  and  C9_16 
REMARK    5  A    between atoms: C12_19  and  C13_20 
REMARK    6  A    between atoms: C13_20  and  N4_21 
ROOT
HETATM    1  C9  UNL     1      -2.643  -5.647  16.589  1.00  0.00     0.157 C 
HETATM    2  C10 UNL     1      -2.178  -7.016  16.976  1.00  0.00     0.068 C 
HETATM    3  C11 UNL     1      -0.684  -7.251  16.864  1.00  0.00     0.040 C 
HETATM    4  C12 UNL     1       0.056  -6.249  16.052  1.00  0.00     0.077 C 
HETATM    5  C14 UNL     1      -0.422  -4.887  16.512  1.00  0.00     0.204 C 
HETATM    6  O2  UNL     1      -1.621  -4.812  17.111  1.00  0.00    -0.354 OA
HETATM    7  N5  UNL     1      -0.380  -6.376  14.637  1.00  0.00    -0.351 N 
ATOM      8  H5  UNL     1       0.255  -6.740  13.928  1.00  0.00     0.163 HD
HETATM    9  C15 UNL     1      -1.609  -6.009  14.317  1.00  0.00     0.189 C 
HETATM   10  N6  UNL     1      -1.906  -6.184  12.913  1.00  0.00    -0.064 NA
HETATM   11  N7  UNL     1      -2.654  -5.468  15.129  1.00  0.00    -0.325 N 
HETATM   12  C16 UNL     1      -3.705  -4.732  14.478  1.00  0.00     0.156 C 
ENDROOT
BRANCH   1  13
HETATM   13  C8  UNL     1      -3.897  -5.257  17.246  1.00  0.00     0.040 C 
HETATM   14  C2  UNL     1      -4.085  -4.254  18.235  1.00  0.00    -0.059 C 
HETATM   15  C1  UNL     1      -5.597  -4.332  18.690  1.00  0.00     0.048 C 
BRANCH  14  16
HETATM   16  C3  UNL     1      -3.718  -2.854  18.259  1.00  0.00     0.040 C 
BRANCH  16  17
HETATM   17  C4  UNL     1      -3.945  -1.935  17.133  1.00  0.00     0.066 C 
HETATM   18  C5  UNL     1      -2.862  -1.540  16.215  1.00  0.00     0.208 C 
HETATM   19  N1  UNL     1      -3.420  -0.680  15.190  1.00  0.00    -0.306 N 
HETATM   20  C6  UNL     1      -4.719  -0.116  15.373  1.00  0.00     0.171 C 
HETATM   21  C7  UNL     1      -5.717  -1.084  15.951  1.00  0.00     0.197 C 
HETATM   22  O1  UNL     1      -5.135  -2.241  16.425  1.00  0.00    -0.352 OA
BRANCH  19  23
HETATM   23  N2  UNL     1      -2.701  -0.404  14.041  1.00  0.00    -0.251 N 
HETATM   24  N3  UNL     1      -2.513   0.796  13.673  1.00  0.00    -0.331 N 
ATOM     25  H32 UNL     1      -2.901   1.550  14.240  1.00  0.00     0.178 HD
ATOM     26  H31 UNL     1      -1.982   0.999  12.826  1.00  0.00     0.178 HD
ATOM     27  H2  UNL     1      -2.319  -1.170  13.486  1.00  0.00     0.207 HD
ENDBRANCH  19  23
ENDBRANCH  16  17
ENDBRANCH  14  16
ENDBRANCH   1  13
BRANCH   4  28
HETATM   28  C13 UNL     1       1.522  -6.436  16.177  1.00  0.00     0.262 C 
BRANCH  28  29
HETATM   29  N4  UNL     1       1.918  -7.676  15.544  1.00  0.00    -0.077 N 
ATOM     30  H43 UNL     1       2.682  -7.539  14.881  1.00  0.00     0.274 HD
ATOM     31  H42 UNL     1       2.395  -8.301  16.193  1.00  0.00     0.274 HD
ATOM     32  H41 UNL     1       1.109  -8.120  15.110  1.00  0.00     0.274 HD
ENDBRANCH  28  29
ENDBRANCH   4  28
TORSDOF 6
ENDMDL
