MODEL 1
REMARK VINA RESULT: -6.677682271      0.000      0.000
REMARK  8 active torsions:
REMARK  status: ('A' for Active; 'I' for Inactive)
REMARK    1  A    between atoms: S1_2  and  C2_4 
REMARK    2  A    between atoms: C2_4  and  C3_5 
REMARK    3  A    between atoms: C4_6  and  N1_7 
REMARK    4  A    between atoms: C6_12  and  C7_13 
REMARK    5  A    between atoms: C7_13  and  O2_14 
REMARK    6  A    between atoms: C8_16  and  N2_17 
REMARK       I    between atoms: N2_17  and  C9_19 
REMARK    7  A    between atoms: C9_19  and  C10_21 
REMARK    8  A    between atoms: C10_21  and  N3_22 
ROOT
HETATM    1  C3  UNL     1      -4.678  -2.944  14.479  1.00  0.00     0.051 C 
HETATM    2  C4  UNL     1      -5.711  -2.236  15.332  1.00  0.00     0.191 C 
HETATM    3  C5  UNL     1      -4.971  -1.220  16.154  1.00  0.00     0.042 C 
HETATM    4  C6  UNL     1      -3.587  -1.175  15.571  1.00  0.00     0.034 C 
HETATM    5  C8  UNL     1      -3.330  -2.555  14.970  1.00  0.00     0.097 C 
ENDROOT
BRANCH   5   6
HETATM    6  N2  UNL     1      -2.788  -3.391  15.993  1.00  0.00    -0.351 N 
HETATM    7  C9  UNL     1      -1.420  -3.754  15.967  1.00  0.00     0.257 C 
HETATM    8  O3  UNL     1      -0.682  -3.334  15.034  1.00  0.00    -0.267 OA
ATOM      9  H2  UNL     1      -3.389  -3.728  16.745  1.00  0.00     0.163 HD
BRANCH   7  10
HETATM   10  C10 UNL     1      -0.896  -4.625  17.049  1.00  0.00     0.164 C 
BRANCH  10  11
HETATM   11  N3  UNL     1      -1.147  -5.982  16.909  1.00  0.00    -0.361 N 
HETATM   12  C11 UNL     1      -0.496  -6.723  15.914  1.00  0.00     0.153 C 
HETATM   13  C12 UNL     1      -1.143  -8.116  15.871  1.00  0.00     0.188 C 
HETATM   14  O4  UNL     1      -2.494  -8.013  15.595  1.00  0.00    -0.385 OA
HETATM   15  C13 UNL     1      -3.172  -7.131  16.407  1.00  0.00     0.212 C 
HETATM   16  C14 UNL     1      -2.292  -6.548  17.507  1.00  0.00     0.089 C 
ENDBRANCH  10  11
ENDBRANCH   7  10
ENDBRANCH   5   6
BRANCH   1  17
HETATM   17  C2  UNL     1      -4.972  -4.401  14.515  1.00  0.00     0.117 C 
BRANCH  17  18
HETATM   18  S1  UNL     1      -6.039  -4.917  13.194  1.00  0.00     0.011 S 
HETATM   19  C1  UNL     1      -5.574  -4.105  11.692  1.00  0.00     0.127 C 
HETATM   20  O1  UNL     1      -7.644  -4.593  13.557  1.00  0.00    -0.258 OA
ENDBRANCH  17  18
ENDBRANCH   1  17
BRANCH   4  21
HETATM   21  C7  UNL     1      -3.461  -0.105  14.506  1.00  0.00     0.170 C 
BRANCH  21  22
HETATM   22  O2  UNL     1      -2.480  -0.526  13.610  1.00  0.00    -0.400 OA
ATOM     23  H2  UNL     1      -2.838  -0.436  12.735  1.00  0.00     0.209 HD
ENDBRANCH  21  22
ENDBRANCH   4  21
BRANCH   2  24
HETATM   24  N1  UNL     1      -6.754  -1.631  14.518  1.00  0.00    -0.075 N 
ATOM     25  H13 UNL     1      -6.714  -0.613  14.557  1.00  0.00     0.274 HD
ATOM     26  H12 UNL     1      -6.572  -1.759  13.524  1.00  0.00     0.274 HD
ATOM     27  H11 UNL     1      -7.679  -1.978  14.774  1.00  0.00     0.274 HD
ENDBRANCH   2  24
TORSDOF 8
ENDMDL
MODEL 2
REMARK VINA RESULT: -6.455910547      1.006      1.495
REMARK  8 active torsions:
REMARK  status: ('A' for Active; 'I' for Inactive)
REMARK    1  A    between atoms: S1_2  and  C2_4 
REMARK    2  A    between atoms: C2_4  and  C3_5 
REMARK    3  A    between atoms: C4_6  and  N1_7 
REMARK    4  A    between atoms: C6_12  and  C7_13 
REMARK    5  A    between atoms: C7_13  and  O2_14 
REMARK    6  A    between atoms: C8_16  and  N2_17 
REMARK       I    between atoms: N2_17  and  C9_19 
REMARK    7  A    between atoms: C9_19  and  C10_21 
REMARK    8  A    between atoms: C10_21  and  N3_22 
ROOT
HETATM    1  C3  UNL     1      -4.674  -2.945  14.445  1.00  0.00     0.051 C 
HETATM    2  C4  UNL     1      -5.536  -2.233  15.467  1.00  0.00     0.191 C 
HETATM    3  C5  UNL     1      -4.621  -1.350  16.266  1.00  0.00     0.042 C 
HETATM    4  C6  UNL     1      -3.314  -1.364  15.525  1.00  0.00     0.034 C 
HETATM    5  C8  UNL     1      -3.249  -2.704  14.795  1.00  0.00     0.097 C 
ENDROOT
BRANCH   5   6
HETATM    6  N2  UNL     1      -2.668  -3.663  15.680  1.00  0.00    -0.351 N 
HETATM    7  C9  UNL     1      -1.273  -3.905  15.652  1.00  0.00     0.257 C 
HETATM    8  O3  UNL     1      -0.548  -3.269  14.840  1.00  0.00    -0.267 OA
ATOM      9  H2  UNL     1      -3.260  -4.175  16.334  1.00  0.00     0.163 HD
BRANCH   7  10
HETATM   10  C10 UNL     1      -0.709  -4.910  16.588  1.00  0.00     0.164 C 
BRANCH  10  11
HETATM   11  N3  UNL     1      -0.617  -6.206  16.100  1.00  0.00    -0.361 N 
HETATM   12  C11 UNL     1      -1.129  -7.279  16.841  1.00  0.00     0.153 C 
HETATM   13  C12 UNL     1      -0.679  -8.578  16.154  1.00  0.00     0.188 C 
HETATM   14  O4  UNL     1       0.701  -8.641  16.095  1.00  0.00    -0.385 OA
HETATM   15  C13 UNL     1       1.297  -7.518  15.566  1.00  0.00     0.212 C 
HETATM   16  C14 UNL     1       0.285  -6.498  15.056  1.00  0.00     0.089 C 
ENDBRANCH  10  11
ENDBRANCH   7  10
ENDBRANCH   5   6
BRANCH   1  17
HETATM   17  C2  UNL     1      -5.087  -4.373  14.407  1.00  0.00     0.117 C 
BRANCH  17  18
HETATM   18  S1  UNL     1      -6.233  -4.720  13.097  1.00  0.00     0.011 S 
HETATM   19  C1  UNL     1      -5.603  -4.096  11.565  1.00  0.00     0.127 C 
HETATM   20  O1  UNL     1      -7.736  -4.052  13.422  1.00  0.00    -0.258 OA
ENDBRANCH  17  18
ENDBRANCH   1  17
BRANCH   4  21
HETATM   21  C7  UNL     1      -3.219  -0.221  14.534  1.00  0.00     0.170 C 
BRANCH  21  22
HETATM   22  O2  UNL     1      -2.387  -0.639  13.498  1.00  0.00    -0.400 OA
ATOM     23  H2  UNL     1      -2.884  -0.571  12.691  1.00  0.00     0.209 HD
ENDBRANCH  21  22
ENDBRANCH   4  21
BRANCH   2  24
HETATM   24  N1  UNL     1      -6.610  -1.484  14.833  1.00  0.00    -0.075 N 
ATOM     25  H13 UNL     1      -6.247  -0.815  14.154  1.00  0.00     0.274 HD
ATOM     26  H12 UNL     1      -7.152  -2.072  14.202  1.00  0.00     0.274 HD
ATOM     27  H11 UNL     1      -7.207  -1.028  15.523  1.00  0.00     0.274 HD
ENDBRANCH   2  24
TORSDOF 8
ENDMDL
MODEL 3
REMARK VINA RESULT: -6.131956456      0.711      1.076
REMARK  8 active torsions:
REMARK  status: ('A' for Active; 'I' for Inactive)
REMARK    1  A    between atoms: S1_2  and  C2_4 
REMARK    2  A    between atoms: C2_4  and  C3_5 
REMARK    3  A    between atoms: C4_6  and  N1_7 
REMARK    4  A    between atoms: C6_12  and  C7_13 
REMARK    5  A    between atoms: C7_13  and  O2_14 
REMARK    6  A    between atoms: C8_16  and  N2_17 
REMARK       I    between atoms: N2_17  and  C9_19 
REMARK    7  A    between atoms: C9_19  and  C10_21 
REMARK    8  A    between atoms: C10_21  and  N3_22 
ROOT
HETATM    1  C3  UNL     1      -4.639  -2.856  14.435  1.00  0.00     0.051 C 
HETATM    2  C4  UNL     1      -5.639  -2.218  15.377  1.00  0.00     0.191 C 
HETATM    3  C5  UNL     1      -4.885  -1.207  16.191  1.00  0.00     0.042 C 
HETATM    4  C6  UNL     1      -3.542  -1.090  15.526  1.00  0.00     0.034 C 
HETATM    5  C8  UNL     1      -3.276  -2.437  14.857  1.00  0.00     0.097 C 
ENDROOT
BRANCH   5   6
HETATM    6  N2  UNL     1      -2.643  -3.290  15.811  1.00  0.00    -0.351 N 
HETATM    7  C9  UNL     1      -1.288  -3.663  15.645  1.00  0.00     0.257 C 
HETATM    8  O3  UNL     1      -0.643  -3.237  14.648  1.00  0.00    -0.267 OA
ATOM      9  H2  UNL     1      -3.169  -3.631  16.615  1.00  0.00     0.163 HD
BRANCH   7  10
HETATM   10  C10 UNL     1      -0.667  -4.552  16.659  1.00  0.00     0.164 C 
BRANCH  10  11
HETATM   11  N3  UNL     1      -1.325  -5.750  16.898  1.00  0.00    -0.361 N 
HETATM   12  C11 UNL     1      -1.301  -6.327  18.175  1.00  0.00     0.153 C 
HETATM   13  C12 UNL     1      -1.917  -7.731  18.062  1.00  0.00     0.188 C 
HETATM   14  O4  UNL     1      -1.202  -8.502  17.164  1.00  0.00    -0.385 OA
HETATM   15  C13 UNL     1      -1.000  -7.905  15.940  1.00  0.00     0.212 C 
HETATM   16  C14 UNL     1      -1.714  -6.563  15.814  1.00  0.00     0.089 C 
ENDBRANCH  10  11
ENDBRANCH   7  10
ENDBRANCH   5   6
BRANCH   1  17
HETATM   17  C2  UNL     1      -4.880  -4.323  14.431  1.00  0.00     0.117 C 
BRANCH  17  18
HETATM   18  S1  UNL     1      -5.994  -4.831  13.147  1.00  0.00     0.011 S 
HETATM   19  C1  UNL     1      -5.559  -4.039  11.625  1.00  0.00     0.127 C 
HETATM   20  O1  UNL     1      -7.582  -4.476  13.553  1.00  0.00    -0.258 OA
ENDBRANCH  17  18
ENDBRANCH   1  17
BRANCH   4  21
HETATM   21  C7  UNL     1      -3.520   0.023  14.498  1.00  0.00     0.170 C 
BRANCH  21  22
HETATM   22  O2  UNL     1      -2.484  -0.257  13.609  1.00  0.00    -0.400 OA
ATOM     23  H2  UNL     1      -2.516   0.401  12.923  1.00  0.00     0.209 HD
ENDBRANCH  21  22
ENDBRANCH   4  21
BRANCH   2  24
HETATM   24  N1  UNL     1      -6.752  -1.622  14.654  1.00  0.00    -0.075 N 
ATOM     25  H13 UNL     1      -6.526  -1.487  13.668  1.00  0.00     0.274 HD
ATOM     26  H12 UNL     1      -7.524  -2.281  14.550  1.00  0.00     0.274 HD
ATOM     27  H11 UNL     1      -7.061  -0.753  15.089  1.00  0.00     0.274 HD
ENDBRANCH   2  24
TORSDOF 8
ENDMDL
MODEL 4
REMARK VINA RESULT: -6.100485567      2.591      6.036
REMARK  8 active torsions:
REMARK  status: ('A' for Active; 'I' for Inactive)
REMARK    1  A    between atoms: S1_2  and  C2_4 
REMARK    2  A    between atoms: C2_4  and  C3_5 
REMARK    3  A    between atoms: C4_6  and  N1_7 
REMARK    4  A    between atoms: C6_12  and  C7_13 
REMARK    5  A    between atoms: C7_13  and  O2_14 
REMARK    6  A    between atoms: C8_16  and  N2_17 
REMARK       I    between atoms: N2_17  and  C9_19 
REMARK    7  A    between atoms: C9_19  and  C10_21 
REMARK    8  A    between atoms: C10_21  and  N3_22 
ROOT
HETATM    1  C3  UNL     1      -2.801  -4.217  14.669  1.00  0.00     0.051 C 
HETATM    2  C4  UNL     1      -1.798  -3.655  15.654  1.00  0.00     0.191 C 
HETATM    3  C5  UNL     1      -1.773  -4.591  16.828  1.00  0.00     0.042 C 
HETATM    4  C6  UNL     1      -2.548  -5.799  16.385  1.00  0.00     0.034 C 
HETATM    5  C8  UNL     1      -3.553  -5.307  15.346  1.00  0.00     0.097 C 
ENDROOT
BRANCH   5   6
HETATM    6  N2  UNL     1      -4.736  -4.896  16.032  1.00  0.00    -0.351 N 
HETATM    7  C9  UNL     1      -5.893  -5.712  16.011  1.00  0.00     0.257 C 
HETATM    8  O3  UNL     1      -5.871  -6.804  15.380  1.00  0.00    -0.267 OA
ATOM      9  H2  UNL     1      -4.748  -4.011  16.540  1.00  0.00     0.163 HD
BRANCH   7  10
HETATM   10  C10 UNL     1      -7.102  -5.249  16.737  1.00  0.00     0.164 C 
BRANCH  10  11
HETATM   11  N3  UNL     1      -8.088  -4.660  15.957  1.00  0.00    -0.361 N 
HETATM   12  C11 UNL     1      -9.175  -5.417  15.501  1.00  0.00     0.153 C 
HETATM   13  C12 UNL     1      -9.955  -4.554  14.498  1.00  0.00     0.188 C 
HETATM   14  O4  UNL     1      -9.142  -4.184  13.442  1.00  0.00    -0.385 OA
HETATM   15  C13 UNL     1      -7.945  -3.618  13.821  1.00  0.00     0.212 C 
HETATM   16  C14 UNL     1      -7.837  -3.423  15.329  1.00  0.00     0.089 C 
ENDBRANCH  10  11
ENDBRANCH   7  10
ENDBRANCH   5   6
BRANCH   1  17
HETATM   17  C2  UNL     1      -3.630  -3.092  14.162  1.00  0.00     0.117 C 
BRANCH  17  18
HETATM   18  S1  UNL     1      -3.235  -1.546  14.939  1.00  0.00     0.011 S 
HETATM   19  C1  UNL     1      -4.666  -0.901  15.757  1.00  0.00     0.127 C 
HETATM   20  O1  UNL     1      -2.660  -0.440  13.817  1.00  0.00    -0.258 OA
ENDBRANCH  17  18
ENDBRANCH   1  17
BRANCH   4  21
HETATM   21  C7  UNL     1      -1.644  -6.856  15.783  1.00  0.00     0.170 C 
BRANCH  21  22
HETATM   22  O2  UNL     1      -2.452  -7.929  15.411  1.00  0.00    -0.400 OA
ATOM     23  H2  UNL     1      -2.217  -8.665  15.964  1.00  0.00     0.209 HD
ENDBRANCH  21  22
ENDBRANCH   4  21
BRANCH   2  24
HETATM   24  N1  UNL     1      -0.484  -3.495  15.050  1.00  0.00    -0.075 N 
ATOM     25  H13 UNL     1      -0.219  -4.320  14.511  1.00  0.00     0.274 HD
ATOM     26  H12 UNL     1      -0.504  -2.811  14.294  1.00  0.00     0.274 HD
ATOM     27  H11 UNL     1       0.223  -3.261  15.746  1.00  0.00     0.274 HD
ENDBRANCH   2  24
TORSDOF 8
ENDMDL
MODEL 5
REMARK VINA RESULT: -6.059380522      2.916      6.089
REMARK  8 active torsions:
REMARK  status: ('A' for Active; 'I' for Inactive)
REMARK    1  A    between atoms: S1_2  and  C2_4 
REMARK    2  A    between atoms: C2_4  and  C3_5 
REMARK    3  A    between atoms: C4_6  and  N1_7 
REMARK    4  A    between atoms: C6_12  and  C7_13 
REMARK    5  A    between atoms: C7_13  and  O2_14 
REMARK    6  A    between atoms: C8_16  and  N2_17 
REMARK       I    between atoms: N2_17  and  C9_19 
REMARK    7  A    between atoms: C9_19  and  C10_21 
REMARK    8  A    between atoms: C10_21  and  N3_22 
ROOT
HETATM    1  C3  UNL     1      -6.910  -5.790  14.843  1.00  0.00     0.051 C 
HETATM    2  C4  UNL     1      -7.465  -6.676  15.939  1.00  0.00     0.191 C 
HETATM    3  C5  UNL     1      -8.677  -5.978  16.487  1.00  0.00     0.042 C 
HETATM    4  C6  UNL     1      -8.950  -4.853  15.530  1.00  0.00     0.034 C 
HETATM    5  C8  UNL     1      -7.604  -4.477  14.914  1.00  0.00     0.097 C 
ENDROOT
BRANCH   5   6
HETATM    6  N2  UNL     1      -6.986  -3.505  15.758  1.00  0.00    -0.351 N 
HETATM    7  C9  UNL     1      -6.344  -2.377  15.194  1.00  0.00     0.257 C 
HETATM    8  O3  UNL     1      -6.321  -2.236  13.941  1.00  0.00    -0.267 OA
ATOM      9  H2  UNL     1      -7.007  -3.625  16.770  1.00  0.00     0.163 HD
BRANCH   7  10
HETATM   10  C10 UNL     1      -5.713  -1.390  16.106  1.00  0.00     0.164 C 
BRANCH  10  11
HETATM   11  N3  UNL     1      -4.455  -0.938  15.732  1.00  0.00    -0.361 N 
HETATM   12  C11 UNL     1      -4.308   0.310  15.112  1.00  0.00     0.153 C 
HETATM   13  C12 UNL     1      -2.854   0.420  14.628  1.00  0.00     0.188 C 
HETATM   14  O4  UNL     1      -2.559  -0.601  13.744  1.00  0.00    -0.385 OA
HETATM   15  C13 UNL     1      -2.878  -1.859  14.205  1.00  0.00     0.212 C 
HETATM   16  C14 UNL     1      -3.382  -1.848  15.644  1.00  0.00     0.089 C 
ENDBRANCH  10  11
ENDBRANCH   7  10
ENDBRANCH   5   6
BRANCH   1  17
HETATM   17  C2  UNL     1      -5.432  -5.737  14.997  1.00  0.00     0.117 C 
BRANCH  17  18
HETATM   18  S1  UNL     1      -4.883  -6.371  16.561  1.00  0.00     0.011 S 
HETATM   19  C1  UNL     1      -4.142  -5.074  17.509  1.00  0.00     0.127 C 
HETATM   20  O1  UNL     1      -3.796  -7.631  16.351  1.00  0.00    -0.258 OA
ENDBRANCH  17  18
ENDBRANCH   1  17
BRANCH   4  21
HETATM   21  C7  UNL     1      -9.928  -5.263  14.447  1.00  0.00     0.170 C 
BRANCH  21  22
HETATM   22  O2  UNL     1     -10.086  -4.171  13.597  1.00  0.00    -0.400 OA
ATOM     23  H2  UNL     1     -10.879  -4.316  13.093  1.00  0.00     0.209 HD
ENDBRANCH  21  22
ENDBRANCH   4  21
BRANCH   2  24
HETATM   24  N1  UNL     1      -7.774  -8.009  15.446  1.00  0.00    -0.075 N 
ATOM     25  H13 UNL     1      -8.633  -8.371  15.862  1.00  0.00     0.274 HD
ATOM     26  H12 UNL     1      -8.069  -7.986  14.470  1.00  0.00     0.274 HD
ATOM     27  H11 UNL     1      -6.994  -8.651  15.584  1.00  0.00     0.274 HD
ENDBRANCH   2  24
TORSDOF 8
ENDMDL
