MODEL 1
REMARK VINA RESULT: -7.265648475      0.000      0.000
REMARK  5 active torsions:
REMARK  status: ('A' for Active; 'I' for Inactive)
REMARK    1  A    between atoms: N1_1  and  C1_4 
REMARK    2  A    between atoms: C3_10  and  S1_11 
REMARK    3  A    between atoms: S1_11  and  C4_12 
REMARK    4  A    between atoms: C9_22  and  N6_23 
REMARK    5  A    between atoms: N6_23  and  C10_25 
ROOT
HETATM    1  C1  UNL     1     -15.874  45.938  50.576  1.00  0.00     0.128 A 
HETATM    2  N2  UNL     1     -14.734  46.180  49.966  1.00  0.00    -0.326 N 
ATOM      3  H2  UNL     1     -14.738  46.603  49.038  1.00  0.00     0.169 HD
HETATM    4  C2  UNL     1     -13.535  45.867  50.569  1.00  0.00     0.126 A 
HETATM    5  N3  UNL     1     -12.354  46.055  50.075  1.00  0.00    -0.330 N 
ATOM      6  H3  UNL     1     -12.247  46.473  49.151  1.00  0.00     0.168 HD
HETATM    7  C3  UNL     1     -11.282  45.703  50.771  1.00  0.00     0.120 A 
HETATM    8  S2  UNL     1     -11.983  45.072  52.198  1.00  0.00    -0.060 SA
HETATM    9  C7  UNL     1     -13.638  45.302  51.810  1.00  0.00     0.068 A 
HETATM   10  C8  UNL     1     -14.840  45.043  52.460  1.00  0.00     0.059 A 
HETATM   11  C9  UNL     1     -14.806  44.478  53.694  1.00  0.00     0.120 A 
HETATM   12  N7  UNL     1     -16.016  44.245  54.285  1.00  0.00    -0.338 N 
ATOM     13  H7  UNL     1     -16.045  43.822  55.213  1.00  0.00     0.168 HD
HETATM   14  C16 UNL     1     -17.170  44.564  53.670  1.00  0.00     0.182 A 
HETATM   15  N8  UNL     1     -17.183  45.129  52.434  1.00  0.00    -0.348 N 
ATOM     16  H8  UNL     1     -18.067  45.365  51.982  1.00  0.00     0.167 HD
HETATM   17  C17 UNL     1     -16.038  45.369  51.830  1.00  0.00     0.092 A 
ENDROOT
BRANCH   7  18
HETATM   18  S1  UNL     1      -9.587  45.891  50.241  1.00  0.00    -0.046 SA
BRANCH  18  19
HETATM   19  C4  UNL     1      -9.454  46.965  48.868  1.00  0.00     0.092 A 
HETATM   20  C5  UNL     1      -8.639  46.898  47.782  1.00  0.00     0.126 A 
HETATM   21  N4  UNL     1      -8.895  47.968  46.968  1.00  0.00    -0.359 N 
HETATM   22  C6  UNL     1      -9.864  48.695  47.545  1.00  0.00     0.181 A 
ATOM     23  H4  UNL     1      -8.432  48.175  46.082  1.00  0.00     0.166 HD
HETATM   24  N5  UNL     1     -10.199  48.084  48.696  1.00  0.00    -0.346 N 
ATOM     25  H5  UNL     1     -10.913  48.416  49.345  1.00  0.00     0.167 HD
ENDBRANCH  18  19
ENDBRANCH   7  18
BRANCH   1  26
HETATM   26  N1  UNL     1     -16.998  46.247  49.979  1.00  0.00    -0.384 N 
ATOM     27  H12 UNL     1     -17.229  47.239  50.017  1.00  0.00     0.157 HD
ATOM     28  H11 UNL     1     -17.547  45.510  49.535  1.00  0.00     0.157 HD
ENDBRANCH   1  26
BRANCH  11  29
HETATM   29  N6  UNL     1     -13.699  44.183  54.260  1.00  0.00    -0.342 N 
ATOM     30  H6  UNL     1     -13.005  44.905  54.455  1.00  0.00     0.167 HD
BRANCH  29  31
HETATM   31  C10 UNL     1     -13.454  42.830  54.614  1.00  0.00     0.033 A 
HETATM   32  C11 UNL     1     -12.437  42.556  55.497  1.00  0.00     0.029 A 
HETATM   33  C12 UNL     1     -12.177  41.268  55.854  1.00  0.00     0.002 A 
HETATM   34  C13 UNL     1     -12.942  40.243  55.324  1.00  0.00     0.000 A 
HETATM   35  C14 UNL     1     -13.954  40.531  54.444  1.00  0.00     0.002 A 
HETATM   36  C15 UNL     1     -14.222  41.830  54.077  1.00  0.00     0.029 A 
ENDBRANCH  29  31
ENDBRANCH  11  29
TORSDOF 5
ENDMDL
MODEL 2
REMARK VINA RESULT: -7.132527051      2.673      7.352
REMARK  5 active torsions:
REMARK  status: ('A' for Active; 'I' for Inactive)
REMARK    1  A    between atoms: N1_1  and  C1_4 
REMARK    2  A    between atoms: C3_10  and  S1_11 
REMARK    3  A    between atoms: S1_11  and  C4_12 
REMARK    4  A    between atoms: C9_22  and  N6_23 
REMARK    5  A    between atoms: N6_23  and  C10_25 
ROOT
HETATM    1  C1  UNL     1     -11.069  45.870  55.616  1.00  0.00     0.128 A 
HETATM    2  N2  UNL     1     -12.350  45.573  55.582  1.00  0.00    -0.326 N 
ATOM      3  H2  UNL     1     -12.894  45.585  56.444  1.00  0.00     0.169 HD
HETATM    4  C2  UNL     1     -12.964  45.245  54.393  1.00  0.00     0.126 A 
HETATM    5  N3  UNL     1     -14.209  44.937  54.229  1.00  0.00    -0.330 N 
ATOM      6  H3  UNL     1     -14.840  44.920  55.030  1.00  0.00     0.168 HD
HETATM    7  C3  UNL     1     -14.665  44.641  53.020  1.00  0.00     0.120 A 
HETATM    8  S2  UNL     1     -13.256  44.809  52.065  1.00  0.00    -0.060 SA
HETATM    9  C7  UNL     1     -12.147  45.256  53.295  1.00  0.00     0.068 A 
HETATM   10  C8  UNL     1     -10.793  45.567  53.324  1.00  0.00     0.059 A 
HETATM   11  C9  UNL     1     -10.092  45.542  52.162  1.00  0.00     0.120 A 
HETATM   12  N7  UNL     1      -8.765  45.857  52.249  1.00  0.00    -0.338 N 
ATOM     13  H7  UNL     1      -8.194  45.852  51.404  1.00  0.00     0.168 HD
HETATM   14  C16 UNL     1      -8.196  46.173  53.426  1.00  0.00     0.182 A 
HETATM   15  N8  UNL     1      -8.914  46.194  54.580  1.00  0.00    -0.348 N 
ATOM     16  H8  UNL     1      -8.466  46.436  55.464  1.00  0.00     0.167 HD
HETATM   17  C17 UNL     1     -10.196  45.896  54.539  1.00  0.00     0.092 A 
ENDROOT
BRANCH   7  18
HETATM   18  S1  UNL     1     -16.348  44.196  52.621  1.00  0.00    -0.046 SA
BRANCH  18  19
HETATM   19  C4  UNL     1     -16.834  44.835  51.067  1.00  0.00     0.092 A 
HETATM   20  C5  UNL     1     -16.530  46.021  50.476  1.00  0.00     0.126 A 
HETATM   21  N4  UNL     1     -17.144  46.079  49.255  1.00  0.00    -0.359 N 
HETATM   22  C6  UNL     1     -17.826  44.934  49.087  1.00  0.00     0.181 A 
ATOM     23  H4  UNL     1     -17.093  46.852  48.591  1.00  0.00     0.166 HD
HETATM   24  N5  UNL     1     -17.636  44.184  50.188  1.00  0.00    -0.346 N 
ATOM     25  H5  UNL     1     -18.037  43.258  50.339  1.00  0.00     0.167 HD
ENDBRANCH  18  19
ENDBRANCH   7  18
BRANCH   1  26
HETATM   26  N1  UNL     1     -10.512  46.178  56.761  1.00  0.00    -0.384 N 
ATOM     27  H12 UNL     1     -11.130  46.067  57.565  1.00  0.00     0.157 HD
ATOM     28  H11 UNL     1      -9.543  46.495  56.776  1.00  0.00     0.157 HD
ENDBRANCH   1  26
BRANCH  11  29
HETATM   29  N6  UNL     1     -10.652  45.238  51.053  1.00  0.00    -0.342 N 
ATOM     30  H6  UNL     1     -11.207  44.386  50.967  1.00  0.00     0.167 HD
BRANCH  29  31
HETATM   31  C10 UNL     1     -10.487  46.110  49.945  1.00  0.00     0.033 A 
HETATM   32  C11 UNL     1     -11.580  46.810  49.491  1.00  0.00     0.029 A 
HETATM   33  C12 UNL     1     -11.452  47.653  48.430  1.00  0.00     0.002 A 
HETATM   34  C13 UNL     1     -10.220  47.799  47.816  1.00  0.00     0.000 A 
HETATM   35  C14 UNL     1      -9.139  47.095  48.279  1.00  0.00     0.002 A 
HETATM   36  C15 UNL     1      -9.259  46.240  49.351  1.00  0.00     0.029 A 
ENDBRANCH  29  31
ENDBRANCH  11  29
TORSDOF 5
ENDMDL
MODEL 3
REMARK VINA RESULT: -7.097468605      3.780      5.809
REMARK  5 active torsions:
REMARK  status: ('A' for Active; 'I' for Inactive)
REMARK    1  A    between atoms: N1_1  and  C1_4 
REMARK    2  A    between atoms: C3_10  and  S1_11 
REMARK    3  A    between atoms: S1_11  and  C4_12 
REMARK    4  A    between atoms: C9_22  and  N6_23 
REMARK    5  A    between atoms: N6_23  and  C10_25 
ROOT
HETATM    1  C1  UNL     1      -9.784  46.409  50.078  1.00  0.00     0.128 A 
HETATM    2  N2  UNL     1      -8.754  46.234  50.876  1.00  0.00    -0.326 N 
ATOM      3  H2  UNL     1      -7.813  46.428  50.534  1.00  0.00     0.169 HD
HETATM    4  C2  UNL     1      -8.933  45.790  52.167  1.00  0.00     0.126 A 
HETATM    5  N3  UNL     1      -8.006  45.580  53.044  1.00  0.00    -0.330 N 
ATOM      6  H3  UNL     1      -7.028  45.745  52.803  1.00  0.00     0.168 HD
HETATM    7  C3  UNL     1      -8.326  45.149  54.256  1.00  0.00     0.120 A 
HETATM    8  S2  UNL     1     -10.029  45.036  54.149  1.00  0.00    -0.060 SA
HETATM    9  C7  UNL     1     -10.232  45.556  52.527  1.00  0.00     0.068 A 
HETATM   10  C8  UNL     1     -11.326  45.739  51.688  1.00  0.00     0.059 A 
HETATM   11  C9  UNL     1     -12.568  45.471  52.167  1.00  0.00     0.120 A 
HETATM   12  N7  UNL     1     -13.606  45.668  51.300  1.00  0.00    -0.338 N 
ATOM     13  H7  UNL     1     -14.559  45.481  51.612  1.00  0.00     0.168 HD
HETATM   14  C16 UNL     1     -13.397  46.103  50.044  1.00  0.00     0.182 A 
HETATM   15  N8  UNL     1     -12.146  46.367  49.583  1.00  0.00    -0.348 N 
ATOM     16  H8  UNL     1     -12.006  46.697  48.627  1.00  0.00     0.167 HD
HETATM   17  C17 UNL     1     -11.118  46.189  50.387  1.00  0.00     0.092 A 
ENDROOT
BRANCH   7  18
HETATM   18  S1  UNL     1      -7.176  44.810  55.580  1.00  0.00    -0.046 SA
BRANCH  18  19
HETATM   19  C4  UNL     1      -6.492  43.206  55.447  1.00  0.00     0.092 A 
HETATM   20  C5  UNL     1      -5.816  42.466  56.366  1.00  0.00     0.126 A 
HETATM   21  N4  UNL     1      -5.473  41.266  55.805  1.00  0.00    -0.359 N 
HETATM   22  C6  UNL     1      -5.935  41.261  54.544  1.00  0.00     0.181 A 
ATOM     23  H4  UNL     1      -4.960  40.512  56.261  1.00  0.00     0.166 HD
HETATM   24  N5  UNL     1      -6.551  42.438  54.332  1.00  0.00    -0.346 N 
ATOM     25  H5  UNL     1      -6.998  42.713  53.457  1.00  0.00     0.167 HD
ENDBRANCH  18  19
ENDBRANCH   7  18
BRANCH   1  26
HETATM   26  N1  UNL     1      -9.584  46.833  48.855  1.00  0.00    -0.384 N 
ATOM     27  H12 UNL     1      -8.825  46.354  48.369  1.00  0.00     0.157 HD
ATOM     28  H11 UNL     1     -10.170  47.580  48.482  1.00  0.00     0.157 HD
ENDBRANCH   1  26
BRANCH  11  29
HETATM   29  N6  UNL     1     -12.744  45.058  53.364  1.00  0.00    -0.342 N 
ATOM     30  H6  UNL     1     -12.475  45.637  54.160  1.00  0.00     0.167 HD
BRANCH  29  31
HETATM   31  C10 UNL     1     -13.323  43.777  53.564  1.00  0.00     0.033 A 
HETATM   32  C11 UNL     1     -12.935  43.045  54.661  1.00  0.00     0.029 A 
HETATM   33  C12 UNL     1     -13.472  41.813  54.879  1.00  0.00     0.002 A 
HETATM   34  C13 UNL     1     -14.408  41.308  53.993  1.00  0.00     0.000 A 
HETATM   35  C14 UNL     1     -14.787  42.049  52.903  1.00  0.00     0.002 A 
HETATM   36  C15 UNL     1     -14.247  43.295  52.675  1.00  0.00     0.029 A 
ENDBRANCH  29  31
ENDBRANCH  11  29
TORSDOF 5
ENDMDL
MODEL 4
REMARK VINA RESULT: -7.058238262      3.022      7.441
REMARK  5 active torsions:
REMARK  status: ('A' for Active; 'I' for Inactive)
REMARK    1  A    between atoms: N1_1  and  C1_4 
REMARK    2  A    between atoms: C3_10  and  S1_11 
REMARK    3  A    between atoms: S1_11  and  C4_12 
REMARK    4  A    between atoms: C9_22  and  N6_23 
REMARK    5  A    between atoms: N6_23  and  C10_25 
ROOT
HETATM    1  C1  UNL     1     -11.647  46.202  54.721  1.00  0.00     0.128 A 
HETATM    2  N2  UNL     1     -12.927  46.102  54.436  1.00  0.00    -0.326 N 
ATOM      3  H2  UNL     1     -13.618  46.199  55.180  1.00  0.00     0.169 HD
HETATM    4  C2  UNL     1     -13.342  45.867  53.144  1.00  0.00     0.126 A 
HETATM    5  N3  UNL     1     -14.565  45.749  52.739  1.00  0.00    -0.330 N 
ATOM      6  H3  UNL     1     -15.334  45.831  53.404  1.00  0.00     0.168 HD
HETATM    7  C3  UNL     1     -14.819  45.522  51.458  1.00  0.00     0.120 A 
HETATM    8  S2  UNL     1     -13.244  45.472  50.792  1.00  0.00    -0.060 SA
HETATM    9  C7  UNL     1     -12.338  45.750  52.222  1.00  0.00     0.068 A 
HETATM   10  C8  UNL     1     -10.983  45.854  52.517  1.00  0.00     0.059 A 
HETATM   11  C9  UNL     1     -10.084  45.719  51.509  1.00  0.00     0.120 A 
HETATM   12  N7  UNL     1      -8.766  45.830  51.855  1.00  0.00    -0.338 N 
ATOM     13  H7  UNL     1      -8.051  45.736  51.134  1.00  0.00     0.168 HD
HETATM   14  C16 UNL     1      -8.393  46.060  53.128  1.00  0.00     0.182 A 
HETATM   15  N8  UNL     1      -9.309  46.193  54.123  1.00  0.00    -0.348 N 
ATOM     16  H8  UNL     1      -9.008  46.368  55.083  1.00  0.00     0.167 HD
HETATM   17  C17 UNL     1     -10.589  46.092  53.831  1.00  0.00     0.092 A 
ENDROOT
BRANCH   7  18
HETATM   18  S1  UNL     1     -16.441  45.335  50.733  1.00  0.00    -0.046 SA
BRANCH  18  19
HETATM   19  C4  UNL     1     -17.289  46.861  50.644  1.00  0.00     0.092 A 
HETATM   20  C5  UNL     1     -18.345  47.230  49.870  1.00  0.00     0.126 A 
HETATM   21  N4  UNL     1     -18.666  48.531  50.147  1.00  0.00    -0.359 N 
HETATM   22  C6  UNL     1     -17.815  48.968  51.089  1.00  0.00     0.181 A 
ATOM     23  H4  UNL     1     -19.417  49.071  49.717  1.00  0.00     0.166 HD
HETATM   24  N5  UNL     1     -16.982  47.954  51.386  1.00  0.00    -0.346 N 
ATOM     25  H5  UNL     1     -16.228  48.000  52.071  1.00  0.00     0.167 HD
ENDBRANCH  18  19
ENDBRANCH   7  18
BRANCH   1  26
HETATM   26  N1  UNL     1     -11.281  46.426  55.959  1.00  0.00    -0.384 N 
ATOM     27  H12 UNL     1     -11.836  47.138  56.433  1.00  0.00     0.157 HD
ATOM     28  H11 UNL     1     -10.499  45.900  56.352  1.00  0.00     0.157 HD
ENDBRANCH   1  26
BRANCH  11  29
HETATM   29  N6  UNL     1     -10.460  45.500  50.307  1.00  0.00    -0.342 N 
ATOM     30  H6  UNL     1     -11.007  44.671  50.076  1.00  0.00     0.167 HD
BRANCH  29  31
HETATM   31  C10 UNL     1     -10.100  46.433  49.300  1.00  0.00     0.033 A 
HETATM   32  C11 UNL     1     -11.001  47.416  48.963  1.00  0.00     0.029 A 
HETATM   33  C12 UNL     1     -10.684  48.325  48.000  1.00  0.00     0.002 A 
HETATM   34  C13 UNL     1      -9.455  48.253  47.368  1.00  0.00     0.000 A 
HETATM   35  C14 UNL     1      -8.566  47.268  47.714  1.00  0.00     0.002 A 
HETATM   36  C15 UNL     1      -8.878  46.344  48.685  1.00  0.00     0.029 A 
ENDBRANCH  29  31
ENDBRANCH  11  29
TORSDOF 5
ENDMDL
MODEL 5
REMARK VINA RESULT: -7.002019228      2.407      5.686
REMARK  5 active torsions:
REMARK  status: ('A' for Active; 'I' for Inactive)
REMARK    1  A    between atoms: N1_1  and  C1_4 
REMARK    2  A    between atoms: C3_10  and  S1_11 
REMARK    3  A    between atoms: S1_11  and  C4_12 
REMARK    4  A    between atoms: C9_22  and  N6_23 
REMARK    5  A    between atoms: N6_23  and  C10_25 
ROOT
HETATM    1  C1  UNL     1     -10.115  46.315  50.236  1.00  0.00     0.128 A 
HETATM    2  N2  UNL     1     -11.278  46.438  49.634  1.00  0.00    -0.326 N 
ATOM      3  H2  UNL     1     -11.314  46.769  48.670  1.00  0.00     0.169 HD
HETATM    4  C2  UNL     1     -12.447  46.125  50.292  1.00  0.00     0.126 A 
HETATM    5  N3  UNL     1     -13.645  46.203  49.810  1.00  0.00    -0.330 N 
ATOM      6  H3  UNL     1     -13.791  46.522  48.853  1.00  0.00     0.168 HD
HETATM    7  C3  UNL     1     -14.683  45.867  50.562  1.00  0.00     0.120 A 
HETATM    8  S2  UNL     1     -13.924  45.418  52.028  1.00  0.00    -0.060 SA
HETATM    9  C7  UNL     1     -12.291  45.692  51.580  1.00  0.00     0.068 A 
HETATM   10  C8  UNL     1     -11.065  45.561  52.223  1.00  0.00     0.059 A 
HETATM   11  C9  UNL     1     -11.046  45.120  53.507  1.00  0.00     0.120 A 
HETATM   12  N7  UNL     1      -9.814  45.010  54.090  1.00  0.00    -0.338 N 
ATOM     13  H7  UNL     1      -9.746  44.683  55.054  1.00  0.00     0.168 HD
HETATM   14  C16 UNL     1      -8.691  45.324  53.419  1.00  0.00     0.182 A 
HETATM   15  N8  UNL     1      -8.731  45.764  52.134  1.00  0.00    -0.348 N 
ATOM     16  H8  UNL     1      -7.869  45.997  51.640  1.00  0.00     0.167 HD
HETATM   17  C17 UNL     1      -9.898  45.884  51.536  1.00  0.00     0.092 A 
ENDROOT
BRANCH   7  18
HETATM   18  S1  UNL     1     -16.396  45.915  50.057  1.00  0.00    -0.046 SA
BRANCH  18  19
HETATM   19  C4  UNL     1     -17.226  47.304  50.719  1.00  0.00     0.092 A 
HETATM   20  C5  UNL     1     -18.472  47.782  50.459  1.00  0.00     0.126 A 
HETATM   21  N4  UNL     1     -18.687  48.899  51.221  1.00  0.00    -0.359 N 
HETATM   22  C6  UNL     1     -17.581  49.113  51.950  1.00  0.00     0.181 A 
ATOM     23  H4  UNL     1     -19.535  49.466  51.232  1.00  0.00     0.166 HD
HETATM   24  N5  UNL     1     -16.698  48.144  51.643  1.00  0.00    -0.346 N 
ATOM     25  H5  UNL     1     -15.766  48.055  52.047  1.00  0.00     0.167 HD
ENDBRANCH  18  19
ENDBRANCH   7  18
BRANCH   1  26
HETATM   26  N1  UNL     1      -9.020  46.620  49.586  1.00  0.00    -0.384 N 
ATOM     27  H12 UNL     1      -8.755  47.603  49.658  1.00  0.00     0.157 HD
ATOM     28  H11 UNL     1      -8.525  45.892  49.071  1.00  0.00     0.157 HD
ENDBRANCH   1  26
BRANCH  11  29
HETATM   29  N6  UNL     1     -12.125  44.827  54.126  1.00  0.00    -0.342 N 
ATOM     30  H6  UNL     1     -12.852  45.530  54.266  1.00  0.00     0.167 HD
BRANCH  29  31
HETATM   31  C10 UNL     1     -12.293  43.506  54.616  1.00  0.00     0.033 A 
HETATM   32  C11 UNL     1     -13.294  42.729  54.082  1.00  0.00     0.029 A 
HETATM   33  C12 UNL     1     -13.479  41.457  54.531  1.00  0.00     0.002 A 
HETATM   34  C13 UNL     1     -12.656  40.956  55.525  1.00  0.00     0.000 A 
HETATM   35  C14 UNL     1     -11.662  41.741  56.049  1.00  0.00     0.002 A 
HETATM   36  C15 UNL     1     -11.468  43.028  55.601  1.00  0.00     0.029 A 
ENDBRANCH  29  31
ENDBRANCH  11  29
TORSDOF 5
ENDMDL
