MODEL 1
REMARK VINA RESULT: -7.535649489      0.000      0.000
REMARK  5 active torsions:
REMARK  status: ('A' for Active; 'I' for Inactive)
REMARK    1  A    between atoms: N1_1  and  C1_4 
REMARK    2  A    between atoms: C3_8  and  C4_9 
REMARK    3  A    between atoms: C6_11  and  C7_12 
REMARK    4  A    between atoms: C10_21  and  C11_22 
REMARK    5  A    between atoms: C14_27  and  N7_28 
ROOT
HETATM    1  C4  UNL     1     -10.740  45.520  51.476  1.00  0.00    -0.021 A 
HETATM    2  C5  UNL     1     -11.992  45.037  51.543  1.00  0.00     0.028 A 
HETATM    3  C6  UNL     1     -12.582  44.444  52.678  1.00  0.00     0.023 A 
HETATM    4  C9  UNL     1     -11.829  44.322  53.851  1.00  0.00     0.008 A 
HETATM    5  C10 UNL     1     -12.175  43.783  55.039  1.00  0.00     0.010 A 
HETATM    6  C15 UNL     1     -11.198  43.818  56.052  1.00  0.00     0.065 A 
HETATM    7  S1  UNL     1      -9.892  44.559  55.321  1.00  0.00    -0.100 SA
HETATM    8  C16 UNL     1     -10.539  44.830  53.769  1.00  0.00     0.017 A 
HETATM    9  C17 UNL     1      -9.989  45.416  52.626  1.00  0.00     0.032 A 
ENDROOT
BRANCH   1  10
HETATM   10  C3  UNL     1     -10.148  46.129  50.292  1.00  0.00     0.006 A 
HETATM   11  C2  UNL     1     -10.955  46.878  49.456  1.00  0.00     0.119 A 
HETATM   12  N2  UNL     1     -10.461  47.463  48.346  1.00  0.00    -0.201 N 
HETATM   13  C1  UNL     1      -9.175  47.334  48.026  1.00  0.00     0.675 A 
ATOM     14  H2  UNL     1     -11.079  48.011  47.748  1.00  0.00     0.183 HD
HETATM   15  N9  UNL     1      -8.376  46.610  48.826  1.00  0.00    -0.201 N 
HETATM   16  C18 UNL     1      -8.824  46.003  49.951  1.00  0.00     0.119 A 
ATOM     17  H9  UNL     1      -7.392  46.513  48.576  1.00  0.00     0.183 HD
BRANCH  13  18
HETATM   18  N1  UNL     1      -8.657  47.881  46.968  1.00  0.00    -0.234 N 
ATOM     19  H12 UNL     1      -8.488  47.293  46.153  1.00  0.00     0.174 HD
ATOM     20  H11 UNL     1      -8.414  48.871  46.921  1.00  0.00     0.174 HD
ENDBRANCH  13  18
ENDBRANCH   1  10
BRANCH   3  21
HETATM   21  C7  UNL     1     -13.977  44.125  52.482  1.00  0.00     0.132 A 
HETATM   22  N3  UNL     1     -15.013  44.950  52.414  1.00  0.00    -0.336 N 
HETATM   23  C8  UNL     1     -16.134  44.238  52.190  1.00  0.00     0.199 A 
ATOM     24  H3  UNL     1     -14.969  45.964  52.516  1.00  0.00     0.168 HD
HETATM   25  N4  UNL     1     -15.784  42.943  52.119  1.00  0.00    -0.295 N 
HETATM   26  N5  UNL     1     -14.476  42.876  52.297  1.00  0.00    -0.284 N 
ATOM     27  H4  UNL     1     -16.413  42.156  51.958  1.00  0.00     0.187 HD
ATOM     28  H5  UNL     1     -13.926  42.017  52.294  1.00  0.00     0.188 HD
ENDBRANCH   3  21
BRANCH   5  29
HETATM   29  C11 UNL     1     -13.413  43.046  55.456  1.00  0.00     0.062 A 
HETATM   30  C12 UNL     1     -13.365  41.655  55.528  1.00  0.00     0.048 A 
HETATM   31  C13 UNL     1     -14.508  40.968  55.887  1.00  0.00     0.108 A 
HETATM   32  N6  UNL     1     -15.624  41.636  56.152  1.00  0.00    -0.202 N 
HETATM   33  C14 UNL     1     -15.686  42.984  56.086  1.00  0.00     0.676 A 
ATOM     34  H6  UNL     1     -16.461  41.115  56.414  1.00  0.00     0.183 HD
HETATM   35  N8  UNL     1     -14.571  43.644  55.738  1.00  0.00    -0.191 N 
ATOM     36  H8  UNL     1     -14.611  44.662  55.686  1.00  0.00     0.184 HD
BRANCH  33  37
HETATM   37  N7  UNL     1     -16.797  43.629  56.352  1.00  0.00    -0.234 N 
ATOM     38  H72 UNL     1     -17.633  43.488  55.786  1.00  0.00     0.174 HD
ATOM     39  H71 UNL     1     -16.855  44.286  57.130  1.00  0.00     0.174 HD
ENDBRANCH  33  37
ENDBRANCH   5  29
TORSDOF 5
ENDMDL
MODEL 2
REMARK VINA RESULT: -7.490834009      1.080      1.658
REMARK  5 active torsions:
REMARK  status: ('A' for Active; 'I' for Inactive)
REMARK    1  A    between atoms: N1_1  and  C1_4 
REMARK    2  A    between atoms: C3_8  and  C4_9 
REMARK    3  A    between atoms: C6_11  and  C7_12 
REMARK    4  A    between atoms: C10_21  and  C11_22 
REMARK    5  A    between atoms: C14_27  and  N7_28 
ROOT
HETATM    1  C4  UNL     1     -10.362  45.774  51.192  1.00  0.00    -0.021 A 
HETATM    2  C5  UNL     1     -11.570  45.233  51.425  1.00  0.00     0.028 A 
HETATM    3  C6  UNL     1     -11.986  44.650  52.640  1.00  0.00     0.023 A 
HETATM    4  C9  UNL     1     -11.090  44.604  53.713  1.00  0.00     0.008 A 
HETATM    5  C10 UNL     1     -11.260  44.088  54.949  1.00  0.00     0.010 A 
HETATM    6  C15 UNL     1     -10.170  44.203  55.833  1.00  0.00     0.065 A 
HETATM    7  S1  UNL     1      -9.004  44.982  54.927  1.00  0.00    -0.100 SA
HETATM    8  C16 UNL     1      -9.848  45.171  53.460  1.00  0.00     0.017 A 
HETATM    9  C17 UNL     1      -9.473  45.744  52.242  1.00  0.00     0.032 A 
ENDROOT
BRANCH   1  10
HETATM   10  C3  UNL     1      -9.951  46.372  49.928  1.00  0.00     0.006 A 
HETATM   11  C2  UNL     1     -10.867  47.128  49.221  1.00  0.00     0.119 A 
HETATM   12  N2  UNL     1     -10.543  47.704  48.047  1.00  0.00    -0.201 N 
HETATM   13  C1  UNL     1      -9.323  47.558  47.533  1.00  0.00     0.675 A 
ATOM     14  H2  UNL     1     -11.238  48.258  47.547  1.00  0.00     0.183 HD
HETATM   15  N9  UNL     1      -8.420  46.825  48.205  1.00  0.00    -0.201 N 
HETATM   16  C18 UNL     1      -8.697  46.228  49.389  1.00  0.00     0.119 A 
ATOM     17  H9  UNL     1      -7.486  46.714  47.808  1.00  0.00     0.183 HD
BRANCH  13  18
HETATM   18  N1  UNL     1      -8.966  48.094  46.406  1.00  0.00    -0.234 N 
ATOM     19  H12 UNL     1      -9.153  47.581  45.545  1.00  0.00     0.174 HD
ATOM     20  H11 UNL     1      -8.509  49.005  46.348  1.00  0.00     0.174 HD
ENDBRANCH  13  18
ENDBRANCH   1  10
BRANCH   3  21
HETATM   21  C7  UNL     1     -13.375  44.258  52.626  1.00  0.00     0.132 A 
HETATM   22  N3  UNL     1     -13.895  43.059  52.397  1.00  0.00    -0.336 N 
HETATM   23  C8  UNL     1     -15.235  43.127  52.513  1.00  0.00     0.199 A 
ATOM     24  H3  UNL     1     -13.365  42.219  52.170  1.00  0.00     0.168 HD
HETATM   25  N4  UNL     1     -15.552  44.396  52.819  1.00  0.00    -0.295 N 
HETATM   26  N5  UNL     1     -14.424  45.081  52.887  1.00  0.00    -0.284 N 
ATOM     27  H4  UNL     1     -16.492  44.764  52.971  1.00  0.00     0.187 HD
ATOM     28  H5  UNL     1     -14.352  46.075  53.102  1.00  0.00     0.188 HD
ENDBRANCH   3  21
BRANCH   5  29
HETATM   29  C11 UNL     1     -12.399  43.305  55.535  1.00  0.00     0.062 A 
HETATM   30  C12 UNL     1     -13.367  43.989  56.266  1.00  0.00     0.048 A 
HETATM   31  C13 UNL     1     -14.404  43.273  56.831  1.00  0.00     0.108 A 
HETATM   32  N6  UNL     1     -14.460  41.955  56.671  1.00  0.00    -0.202 N 
HETATM   33  C14 UNL     1     -13.528  41.279  55.965  1.00  0.00     0.676 A 
ATOM     34  H6  UNL     1     -15.230  41.439  57.094  1.00  0.00     0.183 HD
HETATM   35  N8  UNL     1     -12.524  41.984  55.419  1.00  0.00    -0.191 N 
ATOM     36  H8  UNL     1     -11.818  41.479  54.884  1.00  0.00     0.184 HD
BRANCH  33  37
HETATM   37  N7  UNL     1     -13.598  39.978  55.815  1.00  0.00    -0.234 N 
ATOM     38  H72 UNL     1     -13.059  39.504  55.091  1.00  0.00     0.174 HD
ATOM     39  H71 UNL     1     -14.191  39.406  56.416  1.00  0.00     0.174 HD
ENDBRANCH  33  37
ENDBRANCH   5  29
TORSDOF 5
ENDMDL
MODEL 3
REMARK VINA RESULT: -7.409315651      0.740      1.394
REMARK  5 active torsions:
REMARK  status: ('A' for Active; 'I' for Inactive)
REMARK    1  A    between atoms: N1_1  and  C1_4 
REMARK    2  A    between atoms: C3_8  and  C4_9 
REMARK    3  A    between atoms: C6_11  and  C7_12 
REMARK    4  A    between atoms: C10_21  and  C11_22 
REMARK    5  A    between atoms: C14_27  and  N7_28 
ROOT
HETATM    1  C4  UNL     1     -10.818  45.634  51.459  1.00  0.00    -0.021 A 
HETATM    2  C5  UNL     1     -12.124  45.341  51.572  1.00  0.00     0.028 A 
HETATM    3  C6  UNL     1     -12.749  44.814  52.722  1.00  0.00     0.023 A 
HETATM    4  C9  UNL     1     -11.975  44.554  53.858  1.00  0.00     0.008 A 
HETATM    5  C10 UNL     1     -12.349  44.044  55.050  1.00  0.00     0.010 A 
HETATM    6  C15 UNL     1     -11.337  43.909  56.020  1.00  0.00     0.065 A 
HETATM    7  S1  UNL     1      -9.966  44.466  55.245  1.00  0.00    -0.100 SA
HETATM    8  C16 UNL     1     -10.628  44.868  53.729  1.00  0.00     0.017 A 
HETATM    9  C17 UNL     1     -10.045  45.393  52.573  1.00  0.00     0.032 A 
ENDROOT
BRANCH   1  10
HETATM   10  C3  UNL     1     -10.191  46.177  50.262  1.00  0.00     0.006 A 
HETATM   11  C2  UNL     1     -10.958  46.932  49.393  1.00  0.00     0.119 A 
HETATM   12  N2  UNL     1     -10.430  47.458  48.270  1.00  0.00    -0.201 N 
HETATM   13  C1  UNL     1      -9.149  47.264  47.966  1.00  0.00     0.675 A 
ATOM     14  H2  UNL     1     -11.019  48.012  47.648  1.00  0.00     0.183 HD
HETATM   15  N9  UNL     1      -8.388  46.533  48.797  1.00  0.00    -0.201 N 
HETATM   16  C18 UNL     1      -8.871  45.984  49.937  1.00  0.00     0.119 A 
ATOM     17  H9  UNL     1      -7.407  46.385  48.560  1.00  0.00     0.183 HD
BRANCH  13  18
HETATM   18  N1  UNL     1      -8.599  47.752  46.896  1.00  0.00    -0.234 N 
ATOM     19  H12 UNL     1      -8.920  48.658  46.557  1.00  0.00     0.174 HD
ATOM     20  H11 UNL     1      -7.862  47.266  46.383  1.00  0.00     0.174 HD
ENDBRANCH  13  18
ENDBRANCH   1  10
BRANCH   3  21
HETATM   21  C7  UNL     1     -14.183  44.711  52.582  1.00  0.00     0.132 A 
HETATM   22  N3  UNL     1     -14.903  43.670  52.185  1.00  0.00    -0.336 N 
HETATM   23  C8  UNL     1     -16.210  43.991  52.230  1.00  0.00     0.199 A 
ATOM     24  H3  UNL     1     -14.527  42.769  51.892  1.00  0.00     0.168 HD
HETATM   25  N4  UNL     1     -16.301  45.259  52.664  1.00  0.00    -0.295 N 
HETATM   26  N5  UNL     1     -15.071  45.695  52.877  1.00  0.00    -0.284 N 
ATOM     27  H4  UNL     1     -17.162  45.789  52.803  1.00  0.00     0.187 HD
ATOM     28  H5  UNL     1     -14.827  46.627  53.211  1.00  0.00     0.188 HD
ENDBRANCH   3  21
BRANCH   5  29
HETATM   29  C11 UNL     1     -13.665  43.488  55.508  1.00  0.00     0.062 A 
HETATM   30  C12 UNL     1     -14.526  44.321  56.220  1.00  0.00     0.048 A 
HETATM   31  C13 UNL     1     -15.728  43.809  56.667  1.00  0.00     0.108 A 
HETATM   32  N6  UNL     1     -16.041  42.543  56.416  1.00  0.00    -0.202 N 
HETATM   33  C14 UNL     1     -15.217  41.724  55.728  1.00  0.00     0.676 A 
ATOM     34  H6  UNL     1     -16.931  42.178  56.754  1.00  0.00     0.183 HD
HETATM   35  N8  UNL     1     -14.050  42.230  55.296  1.00  0.00    -0.191 N 
ATOM     36  H8  UNL     1     -13.424  41.617  54.775  1.00  0.00     0.184 HD
BRANCH  33  37
HETATM   37  N7  UNL     1     -15.541  40.476  55.487  1.00  0.00    -0.234 N 
ATOM     38  H72 UNL     1     -15.561  40.115  54.534  1.00  0.00     0.174 HD
ATOM     39  H71 UNL     1     -15.780  39.835  56.243  1.00  0.00     0.174 HD
ENDBRANCH  33  37
ENDBRANCH   5  29
TORSDOF 5
ENDMDL
MODEL 4
REMARK VINA RESULT: -7.237544938      2.939      4.372
REMARK  5 active torsions:
REMARK  status: ('A' for Active; 'I' for Inactive)
REMARK    1  A    between atoms: N1_1  and  C1_4 
REMARK    2  A    between atoms: C3_8  and  C4_9 
REMARK    3  A    between atoms: C6_11  and  C7_12 
REMARK    4  A    between atoms: C10_21  and  C11_22 
REMARK    5  A    between atoms: C14_27  and  N7_28 
ROOT
HETATM    1  C4  UNL     1     -10.467  45.863  50.909  1.00  0.00    -0.021 A 
HETATM    2  C5  UNL     1      -9.707  45.817  52.015  1.00  0.00     0.028 A 
HETATM    3  C6  UNL     1     -10.060  45.185  53.226  1.00  0.00     0.023 A 
HETATM    4  C9  UNL     1     -11.302  44.550  53.324  1.00  0.00     0.008 A 
HETATM    5  C10 UNL     1     -11.852  43.902  54.373  1.00  0.00     0.010 A 
HETATM    6  C15 UNL     1     -13.128  43.344  54.167  1.00  0.00     0.065 A 
HETATM    7  S1  UNL     1     -13.488  43.747  52.587  1.00  0.00    -0.100 SA
HETATM    8  C16 UNL     1     -12.075  44.601  52.172  1.00  0.00     0.017 A 
HETATM    9  C17 UNL     1     -11.690  45.234  50.987  1.00  0.00     0.032 A 
ENDROOT
BRANCH   1  10
HETATM   10  C3  UNL     1     -10.085  46.522  49.667  1.00  0.00     0.006 A 
HETATM   11  C2  UNL     1      -8.800  46.345  49.188  1.00  0.00     0.119 A 
HETATM   12  N2  UNL     1      -8.391  46.930  48.045  1.00  0.00    -0.201 N 
HETATM   13  C1  UNL     1      -9.220  47.700  47.343  1.00  0.00     0.675 A 
ATOM     14  H2  UNL     1      -7.438  46.781  47.715  1.00  0.00     0.183 HD
HETATM   15  N9  UNL     1     -10.472  47.885  47.793  1.00  0.00    -0.201 N 
HETATM   16  C18 UNL     1     -10.930  47.318  48.934  1.00  0.00     0.119 A 
ATOM     17  H9  UNL     1     -11.104  48.477  47.252  1.00  0.00     0.183 HD
BRANCH  13  18
HETATM   18  N1  UNL     1      -8.869  48.284  46.237  1.00  0.00    -0.234 N 
ATOM     19  H12 UNL     1      -7.897  48.572  46.129  1.00  0.00     0.174 HD
ATOM     20  H11 UNL     1      -9.525  48.464  45.476  1.00  0.00     0.174 HD
ENDBRANCH  13  18
ENDBRANCH   1  10
BRANCH   3  21
HETATM   21  C7  UNL     1      -8.992  45.203  54.199  1.00  0.00     0.132 A 
HETATM   22  N3  UNL     1      -7.965  44.372  54.316  1.00  0.00    -0.336 N 
HETATM   23  C8  UNL     1      -7.188  44.769  55.341  1.00  0.00     0.199 A 
ATOM     24  H3  UNL     1      -7.791  43.560  53.723  1.00  0.00     0.168 HD
HETATM   25  N4  UNL     1      -7.746  45.869  55.871  1.00  0.00    -0.295 N 
HETATM   26  N5  UNL     1      -8.841  46.131  55.178  1.00  0.00    -0.284 N 
ATOM     27  H4  UNL     1      -7.391  46.405  56.664  1.00  0.00     0.187 HD
ATOM     28  H5  UNL     1      -9.474  46.912  55.352  1.00  0.00     0.188 HD
ENDBRANCH   3  21
BRANCH   5  29
HETATM   29  C11 UNL     1     -11.377  43.750  55.789  1.00  0.00     0.062 A 
HETATM   30  C12 UNL     1     -10.675  42.598  56.133  1.00  0.00     0.048 A 
HETATM   31  C13 UNL     1     -10.257  42.438  57.439  1.00  0.00     0.108 A 
HETATM   32  N6  UNL     1     -10.530  43.376  58.339  1.00  0.00    -0.202 N 
HETATM   33  C14 UNL     1     -11.210  44.499  58.020  1.00  0.00     0.676 A 
ATOM     34  H6  UNL     1     -10.217  43.245  59.300  1.00  0.00     0.183 HD
HETATM   35  N8  UNL     1     -11.612  44.646  56.747  1.00  0.00    -0.191 N 
ATOM     36  H8  UNL     1     -12.126  45.491  56.500  1.00  0.00     0.184 HD
BRANCH  33  37
HETATM   37  N7  UNL     1     -11.471  45.417  58.920  1.00  0.00    -0.234 N 
ATOM     38  H72 UNL     1     -10.718  45.902  59.407  1.00  0.00     0.174 HD
ATOM     39  H71 UNL     1     -12.430  45.670  59.156  1.00  0.00     0.174 HD
ENDBRANCH  33  37
ENDBRANCH   5  29
TORSDOF 5
ENDMDL
MODEL 5
REMARK VINA RESULT: -7.229790116      3.116      4.566
REMARK  5 active torsions:
REMARK  status: ('A' for Active; 'I' for Inactive)
REMARK    1  A    between atoms: N1_1  and  C1_4 
REMARK    2  A    between atoms: C3_8  and  C4_9 
REMARK    3  A    between atoms: C6_11  and  C7_12 
REMARK    4  A    between atoms: C10_21  and  C11_22 
REMARK    5  A    between atoms: C14_27  and  N7_28 
ROOT
HETATM    1  C4  UNL     1     -10.468  45.870  50.889  1.00  0.00    -0.021 A 
HETATM    2  C5  UNL     1      -9.704  45.822  51.993  1.00  0.00     0.028 A 
HETATM    3  C6  UNL     1     -10.056  45.193  53.206  1.00  0.00     0.023 A 
HETATM    4  C9  UNL     1     -11.301  44.563  53.309  1.00  0.00     0.008 A 
HETATM    5  C10 UNL     1     -11.851  43.919  54.360  1.00  0.00     0.010 A 
HETATM    6  C15 UNL     1     -13.130  43.367  54.158  1.00  0.00     0.065 A 
HETATM    7  S1  UNL     1     -13.493  43.769  52.579  1.00  0.00    -0.100 SA
HETATM    8  C16 UNL     1     -12.078  44.617  52.158  1.00  0.00     0.017 A 
HETATM    9  C17 UNL     1     -11.693  45.247  50.972  1.00  0.00     0.032 A 
ENDROOT
BRANCH   1  10
HETATM   10  C3  UNL     1     -10.086  46.526  49.645  1.00  0.00     0.006 A 
HETATM   11  C2  UNL     1      -8.794  46.369  49.180  1.00  0.00     0.119 A 
HETATM   12  N2  UNL     1      -8.385  46.953  48.036  1.00  0.00    -0.201 N 
HETATM   13  C1  UNL     1      -9.221  47.701  47.320  1.00  0.00     0.675 A 
ATOM     14  H2  UNL     1      -7.426  46.820  47.716  1.00  0.00     0.183 HD
HETATM   15  N9  UNL     1     -10.481  47.866  47.756  1.00  0.00    -0.201 N 
HETATM   16  C18 UNL     1     -10.939  47.300  48.898  1.00  0.00     0.119 A 
ATOM     17  H9  UNL     1     -11.118  48.442  47.205  1.00  0.00     0.183 HD
BRANCH  13  18
HETATM   18  N1  UNL     1      -8.871  48.282  46.213  1.00  0.00    -0.234 N 
ATOM     19  H12 UNL     1      -9.600  48.698  45.633  1.00  0.00     0.174 HD
ATOM     20  H11 UNL     1      -7.901  48.339  45.902  1.00  0.00     0.174 HD
ENDBRANCH  13  18
ENDBRANCH   1  10
BRANCH   3  21
HETATM   21  C7  UNL     1      -8.986  45.207  54.175  1.00  0.00     0.132 A 
HETATM   22  N3  UNL     1      -7.948  44.387  54.274  1.00  0.00    -0.336 N 
HETATM   23  C8  UNL     1      -7.172  44.776  55.304  1.00  0.00     0.199 A 
ATOM     24  H3  UNL     1      -7.765  43.589  53.667  1.00  0.00     0.168 HD
HETATM   25  N4  UNL     1      -7.743  45.859  55.856  1.00  0.00    -0.295 N 
HETATM   26  N5  UNL     1      -8.843  46.119  55.171  1.00  0.00    -0.284 N 
ATOM     27  H4  UNL     1      -7.392  46.385  56.657  1.00  0.00     0.187 HD
ATOM     28  H5  UNL     1      -9.486  46.888  55.361  1.00  0.00     0.188 HD
ENDBRANCH   3  21
BRANCH   5  29
HETATM   29  C11 UNL     1     -11.372  43.767  55.774  1.00  0.00     0.062 A 
HETATM   30  C12 UNL     1     -11.792  44.699  56.721  1.00  0.00     0.048 A 
HETATM   31  C13 UNL     1     -11.335  44.580  58.018  1.00  0.00     0.108 A 
HETATM   32  N6  UNL     1     -10.510  43.590  58.340  1.00  0.00    -0.202 N 
HETATM   33  C14 UNL     1     -10.095  42.679  57.434  1.00  0.00     0.676 A 
ATOM     34  H6  UNL     1     -10.180  43.515  59.302  1.00  0.00     0.183 HD
HETATM   35  N8  UNL     1     -10.545  42.801  56.174  1.00  0.00    -0.191 N 
ATOM     36  H8  UNL     1     -10.235  42.117  55.485  1.00  0.00     0.184 HD
BRANCH  33  37
HETATM   37  N7  UNL     1      -9.281  41.706  57.767  1.00  0.00    -0.234 N 
ATOM     38  H72 UNL     1      -8.296  41.735  57.508  1.00  0.00     0.174 HD
ATOM     39  H71 UNL     1      -9.610  40.897  58.294  1.00  0.00     0.174 HD
ENDBRANCH  33  37
ENDBRANCH   5  29
TORSDOF 5
ENDMDL
