MODEL 1
REMARK VINA RESULT: -9.343568136      0.000      0.000
REMARK  4 active torsions:
REMARK  status: ('A' for Active; 'I' for Inactive)
REMARK    1  A    between atoms: C3_4  and  C4_5 
REMARK    2  A    between atoms: C7_10  and  N3_11 
REMARK    3  A    between atoms: C9_18  and  S1_19 
REMARK    4  A    between atoms: S1_19  and  C10_20 
ROOT
HETATM    1  N1  UNL     1     -20.144  48.787  48.243  1.00  0.00    -0.191 NA
HETATM    2  C1  UNL     1     -19.372  48.122  48.793  1.00  0.00     0.104 C 
HETATM    3  C2  UNL     1     -18.408  47.302  49.500  1.00  0.00     0.102 A 
HETATM    4  C3  UNL     1     -17.873  47.801  50.668  1.00  0.00     0.043 A 
HETATM    5  C8  UNL     1     -16.942  47.005  51.348  1.00  0.00     0.094 A 
HETATM    6  N5  UNL     1     -16.348  47.454  52.558  1.00  0.00    -0.098 NA
HETATM    7  C9  UNL     1     -16.575  45.767  50.866  1.00  0.00     0.103 A 
HETATM    8  N7  UNL     1     -17.128  45.326  49.720  1.00  0.00    -0.334 N 
ATOM      9  H7  UNL     1     -16.860  44.410  49.359  1.00  0.00     0.168 HD
HETATM   10  C19 UNL     1     -18.031  46.068  49.035  1.00  0.00     0.121 A 
HETATM   11  N8  UNL     1     -18.542  45.625  47.949  1.00  0.00    -0.384 N 
ATOM     12  H81 UNL     1     -18.261  44.707  47.603  1.00  0.00     0.157 HD
ATOM     13  H82 UNL     1     -19.222  46.183  47.433  1.00  0.00     0.157 HD
ENDROOT
BRANCH   4  14
HETATM   14  C4  UNL     1     -18.241  49.108  51.205  1.00  0.00     0.064 A 
HETATM   15  C5  UNL     1     -18.965  49.259  52.363  1.00  0.00     0.048 A 
HETATM   16  C6  UNL     1     -19.262  50.522  52.787  1.00  0.00     0.108 A 
HETATM   17  N2  UNL     1     -18.871  51.611  52.111  1.00  0.00    -0.202 N 
HETATM   18  C7  UNL     1     -18.168  51.442  50.988  1.00  0.00     0.676 A 
ATOM     19  H2  UNL     1     -19.105  52.546  52.446  1.00  0.00     0.183 HD
HETATM   20  N4  UNL     1     -17.852  50.197  50.532  1.00  0.00    -0.191 N 
ATOM     21  H4  UNL     1     -17.314  50.095  49.671  1.00  0.00     0.184 HD
BRANCH  18  22
HETATM   22  N3  UNL     1     -17.763  52.461  50.293  1.00  0.00    -0.234 N 
ATOM     23  H32 UNL     1     -18.410  53.240  50.171  1.00  0.00     0.174 HD
ATOM     24  H31 UNL     1     -16.829  52.479  49.882  1.00  0.00     0.174 HD
ENDBRANCH  18  22
ENDBRANCH   4  14
BRANCH   7  25
HETATM   25  S1  UNL     1     -15.385  44.808  51.782  1.00  0.00    -0.053 SA
BRANCH  25  26
HETATM   26  C10 UNL     1     -13.722  45.160  51.323  1.00  0.00     0.076 A 
HETATM   27  C11 UNL     1     -12.635  44.579  51.938  1.00  0.00     0.038 A 
HETATM   28  C12 UNL     1     -11.345  44.886  51.543  1.00  0.00     0.016 A 
HETATM   29  C13 UNL     1     -11.182  45.790  50.518  1.00  0.00    -0.009 A 
HETATM   30  C14 UNL     1      -9.929  46.161  50.053  1.00  0.00     0.013 A 
HETATM   31  C18 UNL     1     -12.282  46.373  49.902  1.00  0.00     0.043 A 
HETATM   32  C15 UNL     1      -9.797  47.070  49.023  1.00  0.00     0.001 A 
HETATM   33  C16 UNL     1     -10.889  47.643  48.417  1.00  0.00     0.002 A 
HETATM   34  C17 UNL     1     -12.137  47.287  48.866  1.00  0.00     0.030 A 
HETATM   35  N6  UNL     1     -13.495  46.032  50.331  1.00  0.00    -0.350 N 
ATOM     36  H6  UNL     1     -14.301  46.461  49.877  1.00  0.00     0.166 HD
ENDBRANCH  25  26
ENDBRANCH   7  25
TORSDOF 4
ENDMDL
MODEL 2
REMARK VINA RESULT: -8.902834223      0.722      1.273
REMARK  4 active torsions:
REMARK  status: ('A' for Active; 'I' for Inactive)
REMARK    1  A    between atoms: C3_4  and  C4_5 
REMARK    2  A    between atoms: C7_10  and  N3_11 
REMARK    3  A    between atoms: C9_18  and  S1_19 
REMARK    4  A    between atoms: S1_19  and  C10_20 
ROOT
HETATM    1  N1  UNL     1     -20.151  48.785  48.312  1.00  0.00    -0.191 NA
HETATM    2  C1  UNL     1     -19.391  48.113  48.870  1.00  0.00     0.104 C 
HETATM    3  C2  UNL     1     -18.441  47.286  49.586  1.00  0.00     0.102 A 
HETATM    4  C3  UNL     1     -17.898  47.788  50.749  1.00  0.00     0.043 A 
HETATM    5  C8  UNL     1     -16.980  46.984  51.438  1.00  0.00     0.094 A 
HETATM    6  N5  UNL     1     -16.380  47.437  52.645  1.00  0.00    -0.098 NA
HETATM    7  C9  UNL     1     -16.633  45.736  50.969  1.00  0.00     0.103 A 
HETATM    8  N7  UNL     1     -17.192  45.292  49.828  1.00  0.00    -0.334 N 
ATOM      9  H7  UNL     1     -16.938  44.369  49.476  1.00  0.00     0.168 HD
HETATM   10  C19 UNL     1     -18.083  46.041  49.134  1.00  0.00     0.121 A 
HETATM   11  N8  UNL     1     -18.600  45.595  48.052  1.00  0.00    -0.384 N 
ATOM     12  H81 UNL     1     -18.333  44.669  47.716  1.00  0.00     0.157 HD
ATOM     13  H82 UNL     1     -19.270  46.159  47.529  1.00  0.00     0.157 HD
ENDROOT
BRANCH   4  14
HETATM   14  C4  UNL     1     -18.245  49.106  51.272  1.00  0.00     0.064 A 
HETATM   15  C5  UNL     1     -17.796  50.274  50.704  1.00  0.00     0.048 A 
HETATM   16  C6  UNL     1     -18.173  51.460  51.265  1.00  0.00     0.108 A 
HETATM   17  N2  UNL     1     -18.964  51.518  52.345  1.00  0.00    -0.202 N 
HETATM   18  C7  UNL     1     -19.390  50.371  52.881  1.00  0.00     0.676 A 
ATOM     19  H2  UNL     1     -19.234  52.416  52.748  1.00  0.00     0.183 HD
HETATM   20  N4  UNL     1     -19.035  49.167  52.351  1.00  0.00    -0.191 N 
ATOM     21  H4  UNL     1     -19.374  48.305  52.780  1.00  0.00     0.184 HD
BRANCH  18  22
HETATM   22  N3  UNL     1     -20.159  50.367  53.928  1.00  0.00    -0.234 N 
ATOM     23  H32 UNL     1     -20.062  49.592  54.585  1.00  0.00     0.174 HD
ATOM     24  H31 UNL     1     -20.835  51.114  54.086  1.00  0.00     0.174 HD
ENDBRANCH  18  22
ENDBRANCH   4  14
BRANCH   7  25
HETATM   25  S1  UNL     1     -15.459  44.767  51.896  1.00  0.00    -0.053 SA
BRANCH  25  26
HETATM   26  C10 UNL     1     -13.789  45.102  51.448  1.00  0.00     0.076 A 
HETATM   27  C11 UNL     1     -12.713  44.518  52.078  1.00  0.00     0.038 A 
HETATM   28  C12 UNL     1     -11.417  44.812  51.691  1.00  0.00     0.016 A 
HETATM   29  C13 UNL     1     -11.237  45.705  50.659  1.00  0.00    -0.009 A 
HETATM   30  C14 UNL     1      -9.977  46.062  50.201  1.00  0.00     0.013 A 
HETATM   31  C18 UNL     1     -12.327  46.290  50.029  1.00  0.00     0.043 A 
HETATM   32  C15 UNL     1      -9.830  46.960  49.164  1.00  0.00     0.001 A 
HETATM   33  C16 UNL     1     -10.912  47.535  48.544  1.00  0.00     0.002 A 
HETATM   34  C17 UNL     1     -12.167  47.193  48.985  1.00  0.00     0.030 A 
HETATM   35  N6  UNL     1     -13.547  45.963  50.450  1.00  0.00    -0.350 N 
ATOM     36  H6  UNL     1     -14.346  46.394  49.985  1.00  0.00     0.166 HD
ENDBRANCH  25  26
ENDBRANCH   7  25
TORSDOF 4
ENDMDL
MODEL 3
REMARK VINA RESULT: -8.199894214      3.517      5.657
REMARK  4 active torsions:
REMARK  status: ('A' for Active; 'I' for Inactive)
REMARK    1  A    between atoms: C3_4  and  C4_5 
REMARK    2  A    between atoms: C7_10  and  N3_11 
REMARK    3  A    between atoms: C9_18  and  S1_19 
REMARK    4  A    between atoms: S1_19  and  C10_20 
ROOT
HETATM    1  N1  UNL     1     -23.576  42.815  47.749  1.00  0.00    -0.191 NA
HETATM    2  C1  UNL     1     -22.686  43.464  48.105  1.00  0.00     0.104 C 
HETATM    3  C2  UNL     1     -21.583  44.296  48.543  1.00  0.00     0.102 A 
HETATM    4  C3  UNL     1     -21.495  45.571  48.028  1.00  0.00     0.043 A 
HETATM    5  C8  UNL     1     -20.426  46.371  48.454  1.00  0.00     0.094 A 
HETATM    6  N5  UNL     1     -20.272  47.698  47.966  1.00  0.00    -0.098 NA
HETATM    7  C9  UNL     1     -19.498  45.900  49.355  1.00  0.00     0.103 A 
HETATM    8  N7  UNL     1     -19.629  44.646  49.828  1.00  0.00    -0.334 N 
ATOM      9  H7  UNL     1     -18.944  44.292  50.496  1.00  0.00     0.168 HD
HETATM   10  C19 UNL     1     -20.648  43.843  49.439  1.00  0.00     0.121 A 
HETATM   11  N8  UNL     1     -20.750  42.655  49.904  1.00  0.00    -0.384 N 
ATOM     12  H81 UNL     1     -20.055  42.318  50.570  1.00  0.00     0.157 HD
ATOM     13  H82 UNL     1     -21.518  42.050  49.610  1.00  0.00     0.157 HD
ENDROOT
BRANCH   4  14
HETATM   14  C4  UNL     1     -22.463  46.101  47.072  1.00  0.00     0.064 A 
HETATM   15  C5  UNL     1     -23.671  46.633  47.454  1.00  0.00     0.048 A 
HETATM   16  C6  UNL     1     -24.512  47.104  46.488  1.00  0.00     0.108 A 
HETATM   17  N2  UNL     1     -24.197  47.062  45.186  1.00  0.00    -0.202 N 
HETATM   18  C7  UNL     1     -23.017  46.540  44.836  1.00  0.00     0.676 A 
ATOM     19  H2  UNL     1     -24.841  47.419  44.480  1.00  0.00     0.183 HD
HETATM   20  N4  UNL     1     -22.150  46.060  45.772  1.00  0.00    -0.191 N 
ATOM     21  H4  UNL     1     -21.256  45.666  45.478  1.00  0.00     0.184 HD
BRANCH  18  22
HETATM   22  N3  UNL     1     -22.659  46.474  43.590  1.00  0.00    -0.234 N 
ATOM     23  H32 UNL     1     -22.503  47.352  43.093  1.00  0.00     0.174 HD
ATOM     24  H31 UNL     1     -22.538  45.574  43.125  1.00  0.00     0.174 HD
ENDBRANCH  18  22
ENDBRANCH   4  14
BRANCH   7  25
HETATM   25  S1  UNL     1     -18.164  46.972  49.854  1.00  0.00    -0.053 SA
BRANCH  25  26
HETATM   26  C10 UNL     1     -16.806  46.096  50.554  1.00  0.00     0.076 A 
HETATM   27  C11 UNL     1     -16.957  45.129  51.522  1.00  0.00     0.038 A 
HETATM   28  C12 UNL     1     -15.860  44.466  52.044  1.00  0.00     0.016 A 
HETATM   29  C13 UNL     1     -14.614  44.804  51.565  1.00  0.00    -0.009 A 
HETATM   30  C14 UNL     1     -13.456  44.196  52.026  1.00  0.00     0.013 A 
HETATM   31  C18 UNL     1     -14.469  45.781  50.589  1.00  0.00     0.043 A 
HETATM   32  C15 UNL     1     -12.221  44.556  51.527  1.00  0.00     0.001 A 
HETATM   33  C16 UNL     1     -12.083  45.522  50.562  1.00  0.00     0.002 A 
HETATM   34  C17 UNL     1     -13.221  46.135  50.094  1.00  0.00     0.030 A 
HETATM   35  N6  UNL     1     -15.566  46.379  50.131  1.00  0.00    -0.350 N 
ATOM     36  H6  UNL     1     -15.457  47.096  49.414  1.00  0.00     0.166 HD
ENDBRANCH  25  26
ENDBRANCH   7  25
TORSDOF 4
ENDMDL
MODEL 4
REMARK VINA RESULT: -8.154991326      1.306      3.427
REMARK  4 active torsions:
REMARK  status: ('A' for Active; 'I' for Inactive)
REMARK    1  A    between atoms: C3_4  and  C4_5 
REMARK    2  A    between atoms: C7_10  and  N3_11 
REMARK    3  A    between atoms: C9_18  and  S1_19 
REMARK    4  A    between atoms: S1_19  and  C10_20 
ROOT
HETATM    1  N1  UNL     1     -19.262  50.862  51.212  1.00  0.00    -0.191 NA
HETATM    2  C1  UNL     1     -18.578  49.931  51.278  1.00  0.00     0.104 C 
HETATM    3  C2  UNL     1     -17.730  48.757  51.341  1.00  0.00     0.102 A 
HETATM    4  C3  UNL     1     -18.055  47.684  50.539  1.00  0.00     0.043 A 
HETATM    5  C8  UNL     1     -17.232  46.552  50.604  1.00  0.00     0.094 A 
HETATM    6  N5  UNL     1     -17.506  45.409  49.805  1.00  0.00    -0.098 NA
HETATM    7  C9  UNL     1     -16.137  46.513  51.438  1.00  0.00     0.103 A 
HETATM    8  N7  UNL     1     -15.863  47.588  52.202  1.00  0.00    -0.334 N 
ATOM      9  H7  UNL     1     -15.054  47.564  52.822  1.00  0.00     0.168 HD
HETATM   10  C19 UNL     1     -16.636  48.700  52.167  1.00  0.00     0.121 A 
HETATM   11  N8  UNL     1     -16.354  49.708  52.903  1.00  0.00    -0.384 N 
ATOM     12  H81 UNL     1     -15.540  49.666  53.517  1.00  0.00     0.157 HD
ATOM     13  H82 UNL     1     -16.936  50.545  52.877  1.00  0.00     0.157 HD
ENDROOT
BRANCH   4  14
HETATM   14  C4  UNL     1     -19.208  47.694  49.644  1.00  0.00     0.064 A 
HETATM   15  C5  UNL     1     -19.261  48.468  48.508  1.00  0.00     0.048 A 
HETATM   16  C6  UNL     1     -20.382  48.411  47.732  1.00  0.00     0.108 A 
HETATM   17  N2  UNL     1     -21.426  47.630  48.042  1.00  0.00    -0.202 N 
HETATM   18  C7  UNL     1     -21.353  46.886  49.150  1.00  0.00     0.676 A 
ATOM     19  H2  UNL     1     -22.254  47.603  47.448  1.00  0.00     0.183 HD
HETATM   20  N4  UNL     1     -20.251  46.915  49.951  1.00  0.00    -0.191 N 
ATOM     21  H4  UNL     1     -20.221  46.338  50.792  1.00  0.00     0.184 HD
BRANCH  18  22
HETATM   22  N3  UNL     1     -22.334  46.110  49.500  1.00  0.00    -0.234 N 
ATOM     23  H32 UNL     1     -22.101  45.196  49.890  1.00  0.00     0.174 HD
ATOM     24  H31 UNL     1     -23.304  46.406  49.388  1.00  0.00     0.174 HD
ENDBRANCH  18  22
ENDBRANCH   4  14
BRANCH   7  25
HETATM   25  S1  UNL     1     -15.134  45.040  51.470  1.00  0.00    -0.053 SA
BRANCH  25  26
HETATM   26  C10 UNL     1     -13.452  45.348  51.046  1.00  0.00     0.076 A 
HETATM   27  C11 UNL     1     -12.394  44.764  51.707  1.00  0.00     0.038 A 
HETATM   28  C12 UNL     1     -11.088  45.036  51.338  1.00  0.00     0.016 A 
HETATM   29  C13 UNL     1     -10.880  45.907  50.293  1.00  0.00    -0.009 A 
HETATM   30  C14 UNL     1      -9.608  46.241  49.851  1.00  0.00     0.013 A 
HETATM   31  C18 UNL     1     -11.952  46.492  49.631  1.00  0.00     0.043 A 
HETATM   32  C15 UNL     1      -9.432  47.117  48.800  1.00  0.00     0.001 A 
HETATM   33  C16 UNL     1     -10.496  47.692  48.149  1.00  0.00     0.002 A 
HETATM   34  C17 UNL     1     -11.762  47.372  48.574  1.00  0.00     0.030 A 
HETATM   35  N6  UNL     1     -13.182  46.187  50.037  1.00  0.00    -0.350 N 
ATOM     36  H6  UNL     1     -13.968  46.617  49.549  1.00  0.00     0.166 HD
ENDBRANCH  25  26
ENDBRANCH   7  25
TORSDOF 4
ENDMDL
MODEL 5
REMARK VINA RESULT: -8.105016372      2.954      4.870
REMARK  4 active torsions:
REMARK  status: ('A' for Active; 'I' for Inactive)
REMARK    1  A    between atoms: C3_4  and  C4_5 
REMARK    2  A    between atoms: C7_10  and  N3_11 
REMARK    3  A    between atoms: C9_18  and  S1_19 
REMARK    4  A    between atoms: S1_19  and  C10_20 
ROOT
HETATM    1  N1  UNL     1     -23.104  43.409  47.680  1.00  0.00    -0.191 NA
HETATM    2  C1  UNL     1     -22.257  43.969  48.236  1.00  0.00     0.104 C 
HETATM    3  C2  UNL     1     -21.207  44.691  48.927  1.00  0.00     0.102 A 
HETATM    4  C3  UNL     1     -21.086  46.042  48.683  1.00  0.00     0.043 A 
HETATM    5  C8  UNL     1     -20.070  46.735  49.354  1.00  0.00     0.094 A 
HETATM    6  N5  UNL     1     -19.886  48.130  49.152  1.00  0.00    -0.098 NA
HETATM    7  C9  UNL     1     -19.221  46.089  50.226  1.00  0.00     0.103 A 
HETATM    8  N7  UNL     1     -19.381  44.767  50.429  1.00  0.00    -0.334 N 
ATOM      9  H7  UNL     1     -18.756  44.283  51.073  1.00  0.00     0.168 HD
HETATM   10  C19 UNL     1     -20.353  44.064  49.798  1.00  0.00     0.121 A 
HETATM   11  N8  UNL     1     -20.483  42.808  50.009  1.00  0.00    -0.384 N 
ATOM     12  H81 UNL     1     -19.848  42.342  50.657  1.00  0.00     0.157 HD
ATOM     13  H82 UNL     1     -21.214  42.279  49.534  1.00  0.00     0.157 HD
ENDROOT
BRANCH   4  14
HETATM   14  C4  UNL     1     -21.969  46.756  47.766  1.00  0.00     0.064 A 
HETATM   15  C5  UNL     1     -21.942  46.564  46.405  1.00  0.00     0.048 A 
HETATM   16  C6  UNL     1     -22.806  47.278  45.627  1.00  0.00     0.108 A 
HETATM   17  N2  UNL     1     -23.675  48.156  46.148  1.00  0.00    -0.202 N 
HETATM   18  C7  UNL     1     -23.685  48.327  47.473  1.00  0.00     0.676 A 
ATOM     19  H2  UNL     1     -24.312  48.680  45.547  1.00  0.00     0.183 HD
HETATM   20  N4  UNL     1     -22.838  47.633  48.284  1.00  0.00    -0.191 N 
ATOM     21  H4  UNL     1     -22.866  47.782  49.292  1.00  0.00     0.184 HD
BRANCH  18  22
HETATM   22  N3  UNL     1     -24.506  49.164  48.032  1.00  0.00    -0.234 N 
ATOM     23  H32 UNL     1     -24.621  50.079  47.596  1.00  0.00     0.174 HD
ATOM     24  H31 UNL     1     -25.017  48.912  48.879  1.00  0.00     0.174 HD
ENDBRANCH  18  22
ENDBRANCH   4  14
BRANCH   7  25
HETATM   25  S1  UNL     1     -17.950  47.032  51.044  1.00  0.00    -0.053 SA
BRANCH  25  26
HETATM   26  C10 UNL     1     -16.473  46.109  51.306  1.00  0.00     0.076 A 
HETATM   27  C11 UNL     1     -16.426  44.976  52.088  1.00  0.00     0.038 A 
HETATM   28  C12 UNL     1     -15.242  44.283  52.266  1.00  0.00     0.016 A 
HETATM   29  C13 UNL     1     -14.114  44.760  51.638  1.00  0.00    -0.009 A 
HETATM   30  C14 UNL     1     -12.882  44.133  51.756  1.00  0.00     0.013 A 
HETATM   31  C18 UNL     1     -14.168  45.903  50.851  1.00  0.00     0.043 A 
HETATM   32  C15 UNL     1     -11.769  44.636  51.114  1.00  0.00     0.001 A 
HETATM   33  C16 UNL     1     -11.828  45.767  50.337  1.00  0.00     0.002 A 
HETATM   34  C17 UNL     1     -13.041  46.400  50.210  1.00  0.00     0.030 A 
HETATM   35  N6  UNL     1     -15.340  46.521  50.723  1.00  0.00    -0.350 N 
ATOM     36  H6  UNL     1     -15.377  47.361  50.144  1.00  0.00     0.166 HD
ENDBRANCH  25  26
ENDBRANCH   7  25
TORSDOF 4
ENDMDL
