MODEL 1
REMARK VINA RESULT: -8.389489068      0.000      0.000
REMARK  4 active torsions:
REMARK  status: ('A' for Active; 'I' for Inactive)
REMARK    1  A    between atoms: C5_6  and  N2_7 
REMARK    2  A    between atoms: N3_9  and  C6_11 
REMARK    3  A    between atoms: C8_15  and  C9_16 
REMARK    4  A    between atoms: C18_30  and  N7_31 
ROOT
HETATM    1  N1  UNL     1     -10.920  47.730  47.388  1.00  0.00    -0.191 NA
HETATM    2  C1  UNL     1     -10.726  47.193  48.393  1.00  0.00     0.104 C 
HETATM    3  C2  UNL     1     -10.489  46.543  49.658  1.00  0.00     0.101 C 
HETATM    4  C3  UNL     1     -11.635  46.250  50.347  1.00  0.00     0.018 A 
HETATM    5  C4  UNL     1     -12.932  46.313  49.872  1.00  0.00     0.046 A 
HETATM    6  C5  UNL     1     -13.759  45.932  50.908  1.00  0.00     0.051 A 
HETATM    7  C16 UNL     1     -13.029  45.628  52.033  1.00  0.00     0.061 A 
HETATM    8  C17 UNL     1     -11.700  45.804  51.751  1.00  0.00     0.063 A 
HETATM    9  N6  UNL     1     -10.663  45.607  52.601  1.00  0.00    -0.191 N 
ATOM     10  H6  UNL     1     -10.916  45.463  53.579  1.00  0.00     0.184 HD
HETATM   11  C18 UNL     1      -9.349  45.575  52.330  1.00  0.00     0.677 C 
HETATM   12  N8  UNL     1      -8.741  45.837  51.177  1.00  0.00    -0.176 N 
ATOM     13  H8  UNL     1      -7.741  45.640  51.193  1.00  0.00     0.186 HD
HETATM   14  C19 UNL     1      -9.171  46.309  49.995  1.00  0.00     0.136 C 
HETATM   15  N9  UNL     1      -8.273  46.562  49.110  1.00  0.00    -0.384 N 
ATOM     16  H91 UNL     1      -7.299  46.388  49.360  1.00  0.00     0.157 HD
ATOM     17  H92 UNL     1      -8.600  46.920  48.213  1.00  0.00     0.157 HD
ENDROOT
BRANCH   6  18
HETATM   18  N2  UNL     1     -15.193  45.861  50.830  1.00  0.00    -0.299 N 
HETATM   19  N3  UNL     1     -15.699  46.194  49.705  1.00  0.00    -0.281 N 
ATOM     20  H3  UNL     1     -15.119  46.490  48.920  1.00  0.00     0.188 HD
ATOM     21  H2  UNL     1     -15.767  45.564  51.619  1.00  0.00     0.187 HD
BRANCH  19  22
HETATM   22  C6  UNL     1     -17.114  46.129  49.609  1.00  0.00     0.189 A 
HETATM   23  N4  UNL     1     -17.640  45.176  48.811  1.00  0.00    -0.344 N 
HETATM   24  C7  UNL     1     -19.005  45.069  48.683  1.00  0.00     0.120 A 
ATOM     25  H4  UNL     1     -17.028  44.536  48.305  1.00  0.00     0.167 HD
HETATM   26  C8  UNL     1     -19.842  45.927  49.360  1.00  0.00     0.060 A 
HETATM   27  N5  UNL     1     -19.266  46.860  50.141  1.00  0.00    -0.318 N 
HETATM   28  C15 UNL     1     -17.931  46.996  50.293  1.00  0.00     0.291 A 
ATOM     29  H5  UNL     1     -19.875  47.503  50.648  1.00  0.00     0.169 HD
HETATM   30  O1  UNL     1     -17.412  47.873  51.026  1.00  0.00    -0.264 OA
BRANCH  26  31
HETATM   31  C9  UNL     1     -21.282  45.785  49.200  1.00  0.00    -0.008 A 
HETATM   32  C10 UNL     1     -21.828  45.214  48.057  1.00  0.00     0.014 A 
HETATM   33  C11 UNL     1     -23.198  45.061  47.869  1.00  0.00     0.001 A 
HETATM   34  C12 UNL     1     -24.086  45.480  48.831  1.00  0.00     0.000 A 
HETATM   35  C13 UNL     1     -23.558  46.044  49.960  1.00  0.00     0.001 A 
HETATM   36  C14 UNL     1     -22.180  46.199  50.153  1.00  0.00     0.014 A 
ENDBRANCH  26  31
ENDBRANCH  19  22
ENDBRANCH   6  18
BRANCH  11  37
HETATM   37  N7  UNL     1      -8.580  45.247  53.310  1.00  0.00    -0.234 N 
ATOM     38  H72 UNL     1      -8.870  44.433  53.851  1.00  0.00     0.174 HD
ATOM     39  H71 UNL     1      -7.758  45.836  53.448  1.00  0.00     0.174 HD
ENDBRANCH  11  37
TORSDOF 4
ENDMDL
MODEL 2
REMARK VINA RESULT: -8.381640785      1.871      2.268
REMARK  4 active torsions:
REMARK  status: ('A' for Active; 'I' for Inactive)
REMARK    1  A    between atoms: C5_6  and  N2_7 
REMARK    2  A    between atoms: N3_9  and  C6_11 
REMARK    3  A    between atoms: C8_15  and  C9_16 
REMARK    4  A    between atoms: C18_30  and  N7_31 
ROOT
HETATM    1  N1  UNL     1      -9.887  47.275  48.601  1.00  0.00    -0.191 NA
HETATM    2  C1  UNL     1     -10.279  46.739  49.548  1.00  0.00     0.104 C 
HETATM    3  C2  UNL     1     -10.775  46.093  50.737  1.00  0.00     0.101 C 
HETATM    4  C3  UNL     1     -12.139  45.989  50.777  1.00  0.00     0.018 A 
HETATM    5  C4  UNL     1     -13.024  46.231  49.742  1.00  0.00     0.046 A 
HETATM    6  C5  UNL     1     -14.291  46.002  50.235  1.00  0.00     0.051 A 
HETATM    7  C16 UNL     1     -14.245  45.621  51.555  1.00  0.00     0.061 A 
HETATM    8  C17 UNL     1     -12.934  45.593  51.954  1.00  0.00     0.063 A 
HETATM    9  N6  UNL     1     -12.475  45.266  53.186  1.00  0.00    -0.191 N 
ATOM     10  H6  UNL     1     -13.184  45.185  53.914  1.00  0.00     0.184 HD
HETATM   11  C18 UNL     1     -11.212  45.033  53.577  1.00  0.00     0.677 C 
HETATM   12  N8  UNL     1     -10.094  45.175  52.871  1.00  0.00    -0.176 N 
ATOM     13  H8  UNL     1      -9.264  44.833  53.355  1.00  0.00     0.186 HD
HETATM   14  C19 UNL     1      -9.830  45.676  51.653  1.00  0.00     0.136 C 
HETATM   15  N9  UNL     1      -8.592  45.772  51.321  1.00  0.00    -0.384 N 
ATOM     16  H91 UNL     1      -7.893  45.463  51.998  1.00  0.00     0.157 HD
ATOM     17  H92 UNL     1      -8.392  46.152  50.396  1.00  0.00     0.157 HD
ENDROOT
BRANCH   6  18
HETATM   18  N2  UNL     1     -15.504  46.141  49.475  1.00  0.00    -0.299 N 
HETATM   19  N3  UNL     1     -16.552  46.404  50.156  1.00  0.00    -0.281 N 
ATOM     20  H3  UNL     1     -16.523  46.508  51.171  1.00  0.00     0.188 HD
ATOM     21  H2  UNL     1     -15.527  46.036  48.461  1.00  0.00     0.187 HD
BRANCH  19  22
HETATM   22  C6  UNL     1     -17.760  46.545  49.423  1.00  0.00     0.189 A 
HETATM   23  N4  UNL     1     -18.446  47.699  49.569  1.00  0.00    -0.344 N 
HETATM   24  C7  UNL     1     -19.621  47.887  48.882  1.00  0.00     0.120 A 
ATOM     25  H4  UNL     1     -18.093  48.429  50.188  1.00  0.00     0.167 HD
HETATM   26  C8  UNL     1     -20.107  46.908  48.044  1.00  0.00     0.060 A 
HETATM   27  N5  UNL     1     -19.386  45.778  47.935  1.00  0.00    -0.318 N 
HETATM   28  C15 UNL     1     -18.227  45.556  48.592  1.00  0.00     0.291 A 
ATOM     29  H5  UNL     1     -19.735  45.044  47.317  1.00  0.00     0.169 HD
HETATM   30  O1  UNL     1     -17.568  44.494  48.479  1.00  0.00    -0.264 OA
BRANCH  26  31
HETATM   31  C9  UNL     1     -21.356  47.142  47.331  1.00  0.00    -0.008 A 
HETATM   32  C10 UNL     1     -21.806  46.259  46.358  1.00  0.00     0.014 A 
HETATM   33  C11 UNL     1     -22.993  46.449  45.657  1.00  0.00     0.001 A 
HETATM   34  C12 UNL     1     -23.785  47.544  45.908  1.00  0.00     0.000 A 
HETATM   35  C13 UNL     1     -23.349  48.420  46.865  1.00  0.00     0.001 A 
HETATM   36  C14 UNL     1     -22.156  48.232  47.572  1.00  0.00     0.014 A 
ENDBRANCH  26  31
ENDBRANCH  19  22
ENDBRANCH   6  18
BRANCH  11  37
HETATM   37  N7  UNL     1     -11.064  44.621  54.788  1.00  0.00    -0.234 N 
ATOM     38  H72 UNL     1     -10.512  45.221  55.400  1.00  0.00     0.174 HD
ATOM     39  H71 UNL     1     -11.515  43.734  55.015  1.00  0.00     0.174 HD
ENDBRANCH  11  37
TORSDOF 4
ENDMDL
MODEL 3
REMARK VINA RESULT: -8.278567391      1.101      1.316
REMARK  4 active torsions:
REMARK  status: ('A' for Active; 'I' for Inactive)
REMARK    1  A    between atoms: C5_6  and  N2_7 
REMARK    2  A    between atoms: N3_9  and  C6_11 
REMARK    3  A    between atoms: C8_15  and  C9_16 
REMARK    4  A    between atoms: C18_30  and  N7_31 
ROOT
HETATM    1  N1  UNL     1     -11.012  47.725  47.398  1.00  0.00    -0.191 NA
HETATM    2  C1  UNL     1     -10.816  47.175  48.395  1.00  0.00     0.104 C 
HETATM    3  C2  UNL     1     -10.578  46.510  49.651  1.00  0.00     0.101 C 
HETATM    4  C3  UNL     1     -11.723  46.208  50.339  1.00  0.00     0.018 A 
HETATM    5  C4  UNL     1     -13.021  46.276  49.866  1.00  0.00     0.046 A 
HETATM    6  C5  UNL     1     -13.846  45.882  50.898  1.00  0.00     0.051 A 
HETATM    7  C16 UNL     1     -13.115  45.564  52.019  1.00  0.00     0.061 A 
HETATM    8  C17 UNL     1     -11.786  45.745  51.737  1.00  0.00     0.063 A 
HETATM    9  N6  UNL     1     -10.748  45.537  52.584  1.00  0.00    -0.191 N 
ATOM     10  H6  UNL     1     -10.999  45.381  53.559  1.00  0.00     0.184 HD
HETATM   11  C18 UNL     1      -9.434  45.509  52.310  1.00  0.00     0.677 C 
HETATM   12  N8  UNL     1      -8.828  45.787  51.160  1.00  0.00    -0.176 N 
ATOM     13  H8  UNL     1      -7.828  45.589  51.172  1.00  0.00     0.186 HD
HETATM   14  C19 UNL     1      -9.260  46.273  49.985  1.00  0.00     0.136 C 
HETATM   15  N9  UNL     1      -8.363  46.537  49.101  1.00  0.00    -0.384 N 
ATOM     16  H91 UNL     1      -7.388  46.361  49.348  1.00  0.00     0.157 HD
ATOM     17  H92 UNL     1      -8.691  46.906  48.209  1.00  0.00     0.157 HD
ENDROOT
BRANCH   6  18
HETATM   18  N2  UNL     1     -15.280  45.811  50.821  1.00  0.00    -0.299 N 
HETATM   19  N3  UNL     1     -15.818  46.536  49.918  1.00  0.00    -0.281 N 
ATOM     20  H3  UNL     1     -15.262  47.124  49.297  1.00  0.00     0.188 HD
ATOM     21  H2  UNL     1     -15.830  45.222  51.445  1.00  0.00     0.187 HD
BRANCH  19  22
HETATM   22  C6  UNL     1     -17.234  46.479  49.826  1.00  0.00     0.189 A 
HETATM   23  N4  UNL     1     -17.931  47.539  50.289  1.00  0.00    -0.344 N 
HETATM   24  C7  UNL     1     -19.304  47.535  50.223  1.00  0.00     0.120 A 
ATOM     25  H4  UNL     1     -17.440  48.341  50.685  1.00  0.00     0.167 HD
HETATM   26  C8  UNL     1     -19.977  46.458  49.691  1.00  0.00     0.060 A 
HETATM   27  N5  UNL     1     -19.235  45.427  49.246  1.00  0.00    -0.318 N 
HETATM   28  C15 UNL     1     -17.886  45.394  49.292  1.00  0.00     0.291 A 
ATOM     29  H5  UNL     1     -19.721  44.623  48.850  1.00  0.00     0.169 HD
HETATM   30  O1  UNL     1     -17.210  44.423  48.872  1.00  0.00    -0.264 OA
BRANCH  26  31
HETATM   31  C9  UNL     1     -21.432  46.488  49.639  1.00  0.00    -0.008 A 
HETATM   32  C10 UNL     1     -22.104  46.873  48.485  1.00  0.00     0.014 A 
HETATM   33  C11 UNL     1     -23.492  46.913  48.397  1.00  0.00     0.001 A 
HETATM   34  C12 UNL     1     -24.271  46.565  49.475  1.00  0.00     0.000 A 
HETATM   35  C13 UNL     1     -23.618  46.186  50.616  1.00  0.00     0.001 A 
HETATM   36  C14 UNL     1     -22.221  46.143  50.708  1.00  0.00     0.014 A 
ENDBRANCH  26  31
ENDBRANCH  19  22
ENDBRANCH   6  18
BRANCH  11  37
HETATM   37  N7  UNL     1      -8.664  45.170  53.285  1.00  0.00    -0.234 N 
ATOM     38  H72 UNL     1      -9.038  45.320  54.222  1.00  0.00     0.174 HD
ATOM     39  H71 UNL     1      -7.756  44.786  53.023  1.00  0.00     0.174 HD
ENDBRANCH  11  37
TORSDOF 4
ENDMDL
MODEL 4
REMARK VINA RESULT: -8.203484099      1.622      2.080
REMARK  4 active torsions:
REMARK  status: ('A' for Active; 'I' for Inactive)
REMARK    1  A    between atoms: C5_6  and  N2_7 
REMARK    2  A    between atoms: N3_9  and  C6_11 
REMARK    3  A    between atoms: C8_15  and  C9_16 
REMARK    4  A    between atoms: C18_30  and  N7_31 
ROOT
HETATM    1  N1  UNL     1     -10.021  47.287  48.597  1.00  0.00    -0.191 NA
HETATM    2  C1  UNL     1     -10.389  46.738  49.546  1.00  0.00     0.104 C 
HETATM    3  C2  UNL     1     -10.856  46.075  50.737  1.00  0.00     0.101 C 
HETATM    4  C3  UNL     1     -12.219  45.966  50.807  1.00  0.00     0.018 A 
HETATM    5  C4  UNL     1     -13.128  46.217  49.795  1.00  0.00     0.046 A 
HETATM    6  C5  UNL     1     -14.383  45.977  50.313  1.00  0.00     0.051 A 
HETATM    7  C16 UNL     1     -14.305  45.579  51.627  1.00  0.00     0.061 A 
HETATM    8  C17 UNL     1     -12.986  45.551  51.996  1.00  0.00     0.063 A 
HETATM    9  N6  UNL     1     -12.498  45.210  53.213  1.00  0.00    -0.191 N 
ATOM     10  H6  UNL     1     -13.190  45.117  53.956  1.00  0.00     0.184 HD
HETATM   11  C18 UNL     1     -11.225  44.977  53.573  1.00  0.00     0.677 C 
HETATM   12  N8  UNL     1     -10.124  45.133  52.844  1.00  0.00    -0.176 N 
ATOM     13  H8  UNL     1      -9.282  44.787  53.304  1.00  0.00     0.186 HD
HETATM   14  C19 UNL     1      -9.890  45.650  51.627  1.00  0.00     0.136 C 
HETATM   15  N9  UNL     1      -8.659  45.754  51.267  1.00  0.00    -0.384 N 
ATOM     16  H91 UNL     1      -7.945  45.439  51.925  1.00  0.00     0.157 HD
ATOM     17  H92 UNL     1      -8.481  46.147  50.343  1.00  0.00     0.157 HD
ENDROOT
BRANCH   6  18
HETATM   18  N2  UNL     1     -15.613  46.121  49.582  1.00  0.00    -0.299 N 
HETATM   19  N3  UNL     1     -16.583  46.633  50.236  1.00  0.00    -0.281 N 
ATOM     20  H3  UNL     1     -16.485  46.919  51.210  1.00  0.00     0.188 HD
ATOM     21  H2  UNL     1     -15.705  45.833  48.608  1.00  0.00     0.187 HD
BRANCH  19  22
HETATM   22  C6  UNL     1     -17.806  46.783  49.531  1.00  0.00     0.189 A 
HETATM   23  N4  UNL     1     -18.228  45.738  48.787  1.00  0.00    -0.344 N 
HETATM   24  C7  UNL     1     -19.406  45.830  48.085  1.00  0.00     0.120 A 
ATOM     25  H4  UNL     1     -17.674  44.882  48.747  1.00  0.00     0.167 HD
HETATM   26  C8  UNL     1     -20.161  46.981  48.131  1.00  0.00     0.060 A 
HETATM   27  N5  UNL     1     -19.695  47.993  48.885  1.00  0.00    -0.318 N 
HETATM   28  C15 UNL     1     -18.544  47.940  49.590  1.00  0.00     0.291 A 
ATOM     29  H5  UNL     1     -20.245  48.851  48.927  1.00  0.00     0.169 HD
HETATM   30  O1  UNL     1     -18.125  48.895  50.288  1.00  0.00    -0.264 OA
BRANCH  26  31
HETATM   31  C9  UNL     1     -21.403  47.043  47.373  1.00  0.00    -0.008 A 
HETATM   32  C10 UNL     1     -22.193  48.186  47.377  1.00  0.00     0.014 A 
HETATM   33  C11 UNL     1     -23.385  48.283  46.666  1.00  0.00     0.001 A 
HETATM   34  C12 UNL     1     -23.838  47.225  45.914  1.00  0.00     0.000 A 
HETATM   35  C13 UNL     1     -23.067  46.095  45.905  1.00  0.00     0.001 A 
HETATM   36  C14 UNL     1     -21.867  45.994  46.618  1.00  0.00     0.014 A 
ENDBRANCH  26  31
ENDBRANCH  19  22
ENDBRANCH   6  18
BRANCH  11  37
HETATM   37  N7  UNL     1     -11.049  44.550  54.775  1.00  0.00    -0.234 N 
ATOM     38  H72 UNL     1     -11.662  44.951  55.485  1.00  0.00     0.174 HD
ATOM     39  H71 UNL     1     -10.314  43.853  54.897  1.00  0.00     0.174 HD
ENDBRANCH  11  37
TORSDOF 4
ENDMDL
MODEL 5
REMARK VINA RESULT: -8.171317980      2.173      3.633
REMARK  4 active torsions:
REMARK  status: ('A' for Active; 'I' for Inactive)
REMARK    1  A    between atoms: C5_6  and  N2_7 
REMARK    2  A    between atoms: N3_9  and  C6_11 
REMARK    3  A    between atoms: C8_15  and  C9_16 
REMARK    4  A    between atoms: C18_30  and  N7_31 
ROOT
HETATM    1  N1  UNL     1     -14.343  43.365  54.572  1.00  0.00    -0.191 NA
HETATM    2  C1  UNL     1     -13.539  43.942  53.975  1.00  0.00     0.104 C 
HETATM    3  C2  UNL     1     -12.535  44.644  53.215  1.00  0.00     0.101 C 
HETATM    4  C3  UNL     1     -13.002  45.168  52.040  1.00  0.00     0.018 A 
HETATM    5  C4  UNL     1     -14.323  45.274  51.642  1.00  0.00     0.046 A 
HETATM    6  C5  UNL     1     -14.320  45.861  50.394  1.00  0.00     0.051 A 
HETATM    7  C16 UNL     1     -13.037  46.134  49.981  1.00  0.00     0.061 A 
HETATM    8  C17 UNL     1     -12.169  45.728  50.960  1.00  0.00     0.063 A 
HETATM    9  N6  UNL     1     -10.818  45.826  50.929  1.00  0.00    -0.191 N 
ATOM     10  H6  UNL     1     -10.415  46.084  50.029  1.00  0.00     0.184 HD
HETATM   11  C18 UNL     1      -9.938  45.628  51.924  1.00  0.00     0.677 C 
HETATM   12  N8  UNL     1     -10.175  45.182  53.154  1.00  0.00    -0.176 N 
ATOM     13  H8  UNL     1      -9.358  45.220  53.762  1.00  0.00     0.186 HD
HETATM   14  C19 UNL     1     -11.268  44.693  53.762  1.00  0.00     0.136 C 
HETATM   15  N9  UNL     1     -11.113  44.233  54.953  1.00  0.00    -0.384 N 
ATOM     16  H91 UNL     1     -10.176  44.269  55.357  1.00  0.00     0.157 HD
ATOM     17  H92 UNL     1     -11.942  43.861  55.414  1.00  0.00     0.157 HD
ENDROOT
BRANCH   6  18
HETATM   18  N2  UNL     1     -15.498  46.151  49.622  1.00  0.00    -0.299 N 
HETATM   19  N3  UNL     1     -16.609  45.882  50.192  1.00  0.00    -0.281 N 
ATOM     20  H3  UNL     1     -16.650  45.486  51.131  1.00  0.00     0.188 HD
ATOM     21  H2  UNL     1     -15.450  46.546  48.683  1.00  0.00     0.187 HD
BRANCH  19  22
HETATM   22  C6  UNL     1     -17.783  46.162  49.444  1.00  0.00     0.189 A 
HETATM   23  N4  UNL     1     -18.469  47.282  49.761  1.00  0.00    -0.344 N 
HETATM   24  C7  UNL     1     -19.612  47.601  49.068  1.00  0.00     0.120 A 
ATOM     25  H4  UNL     1     -18.139  47.889  50.512  1.00  0.00     0.167 HD
HETATM   26  C8  UNL     1     -20.067  46.788  48.054  1.00  0.00     0.060 A 
HETATM   27  N5  UNL     1     -19.347  45.685  47.780  1.00  0.00    -0.318 N 
HETATM   28  C15 UNL     1     -18.219  45.338  48.436  1.00  0.00     0.291 A 
ATOM     29  H5  UNL     1     -19.673  45.074  47.031  1.00  0.00     0.169 HD
HETATM   30  O1  UNL     1     -17.561  44.304  48.167  1.00  0.00    -0.264 OA
BRANCH  26  31
HETATM   31  C9  UNL     1     -21.283  47.157  47.341  1.00  0.00    -0.008 A 
HETATM   32  C10 UNL     1     -21.995  48.302  47.677  1.00  0.00     0.014 A 
HETATM   33  C11 UNL     1     -23.159  48.687  47.019  1.00  0.00     0.001 A 
HETATM   34  C12 UNL     1     -23.661  47.931  45.987  1.00  0.00     0.000 A 
HETATM   35  C13 UNL     1     -22.967  46.801  45.650  1.00  0.00     0.001 A 
HETATM   36  C14 UNL     1     -21.794  46.411  46.309  1.00  0.00     0.014 A 
ENDBRANCH  26  31
ENDBRANCH  19  22
ENDBRANCH   6  18
BRANCH  11  37
HETATM   37  N7  UNL     1      -8.710  45.906  51.652  1.00  0.00    -0.234 N 
ATOM     38  H72 UNL     1      -8.508  46.130  50.678  1.00  0.00     0.174 HD
ATOM     39  H71 UNL     1      -8.061  45.874  52.440  1.00  0.00     0.174 HD
ENDBRANCH  11  37
TORSDOF 4
ENDMDL
