MODEL 1
REMARK VINA RESULT: -6.535712569      0.000      0.000
REMARK  2 active torsions:
REMARK  status: ('A' for Active; 'I' for Inactive)
REMARK    1  A    between atoms: N1_2  and  C2_5 
REMARK    2  A    between atoms: C11_15  and  C12_16 
ROOT
HETATM    1  C2  UNL     1      21.985  84.376  22.962  1.00  0.00     0.133 C 
HETATM    2  C3  UNL     1      21.815  85.058  21.606  1.00  0.00     0.044 C 
HETATM    3  C4  UNL     1      21.390  86.486  21.840  1.00  0.00    -0.010 C 
HETATM    4  C5  UNL     1      20.076  86.566  22.535  1.00  0.00     0.010 C 
HETATM    5  C6  UNL     1      20.190  85.821  23.864  1.00  0.00    -0.004 C 
HETATM    6  C7  UNL     1      21.148  86.586  24.714  1.00  0.00     0.031 C 
HETATM    7  C8  UNL     1      22.494  86.597  24.033  1.00  0.00     0.040 C 
HETATM    8 CL1  UNL     1      23.749  87.378  25.014  1.00  0.00    -0.119 Cl
HETATM    9  C9  UNL     1      22.425  87.225  22.660  1.00  0.00     0.030 C 
HETATM   10  C10 UNL     1      22.903  85.139  23.874  1.00  0.00     0.065 C 
HETATM   11  C11 UNL     1      20.609  84.411  23.587  1.00  0.00     0.054 C 
ENDROOT
BRANCH   1  12
HETATM   12  N1  UNL     1      22.467  83.039  22.857  1.00  0.00    -0.070 N 
HETATM   13  C1  UNL     1      21.930  82.329  21.737  1.00  0.00     0.267 C 
ATOM     14  H12 UNL     1      22.302  82.527  23.723  1.00  0.00     0.277 HD
ATOM     15  H11 UNL     1      23.486  83.022  22.842  1.00  0.00     0.277 HD
ENDBRANCH   1  12
BRANCH  11  16
HETATM   16  C12 UNL     1      20.458  83.477  24.737  1.00  0.00     0.229 C 
HETATM   17  F1  UNL     1      19.206  82.865  24.620  1.00  0.00    -0.255 F 
ENDBRANCH  11  16
TORSDOF 2
ENDMDL
MODEL 2
REMARK VINA RESULT: -6.524431937      2.816      4.023
REMARK  2 active torsions:
REMARK  status: ('A' for Active; 'I' for Inactive)
REMARK    1  A    between atoms: N1_2  and  C2_5 
REMARK    2  A    between atoms: C11_15  and  C12_16 
ROOT
HETATM    1  C2  UNL     1      21.269  85.921  22.977  1.00  0.00     0.133 C 
HETATM    2  C3  UNL     1      21.442  85.248  21.618  1.00  0.00     0.044 C 
HETATM    3  C4  UNL     1      21.859  83.816  21.843  1.00  0.00    -0.010 C 
HETATM    4  C5  UNL     1      23.169  83.725  22.544  1.00  0.00     0.010 C 
HETATM    5  C6  UNL     1      23.053  84.461  23.877  1.00  0.00    -0.004 C 
HETATM    6  C7  UNL     1      22.087  83.694  24.717  1.00  0.00     0.031 C 
HETATM    7  C8  UNL     1      20.745  83.695  24.030  1.00  0.00     0.040 C 
HETATM    8 CL1  UNL     1      19.481  82.913  25.000  1.00  0.00    -0.119 Cl
HETATM    9  C9  UNL     1      20.817  83.077  22.654  1.00  0.00     0.030 C 
HETATM   10  C10 UNL     1      20.343  85.156  23.880  1.00  0.00     0.065 C 
HETATM   11  C11 UNL     1      22.642  85.874  23.608  1.00  0.00     0.054 C 
ENDROOT
BRANCH   1  12
HETATM   12  N1  UNL     1      20.795  87.261  22.880  1.00  0.00    -0.070 N 
HETATM   13  C1  UNL     1      21.237  87.935  21.698  1.00  0.00     0.267 C 
ATOM     14  H12 UNL     1      21.042  87.793  23.714  1.00  0.00     0.277 HD
ATOM     15  H11 UNL     1      19.778  87.291  22.954  1.00  0.00     0.277 HD
ENDBRANCH   1  12
BRANCH  11  16
HETATM   16  C12 UNL     1      22.793  86.799  24.765  1.00  0.00     0.229 C 
HETATM   17  F1  UNL     1      24.043  87.416  24.652  1.00  0.00    -0.255 F 
ENDBRANCH  11  16
TORSDOF 2
ENDMDL
MODEL 3
REMARK VINA RESULT: -6.483662055      2.088      3.326
REMARK  2 active torsions:
REMARK  status: ('A' for Active; 'I' for Inactive)
REMARK    1  A    between atoms: N1_2  and  C2_5 
REMARK    2  A    between atoms: C11_15  and  C12_16 
ROOT
HETATM    1  C2  UNL     1      20.568  83.935  24.207  1.00  0.00     0.133 C 
HETATM    2  C3  UNL     1      21.222  84.452  25.486  1.00  0.00     0.044 C 
HETATM    3  C4  UNL     1      22.318  85.416  25.106  1.00  0.00    -0.010 C 
HETATM    4  C5  UNL     1      23.386  84.753  24.309  1.00  0.00     0.010 C 
HETATM    5  C6  UNL     1      22.749  84.153  23.057  1.00  0.00    -0.004 C 
HETATM    6  C7  UNL     1      22.265  85.292  22.224  1.00  0.00     0.031 C 
HETATM    7  C8  UNL     1      21.218  86.048  23.002  1.00  0.00     0.040 C 
HETATM    8 CL1  UNL     1      20.480  87.358  22.059  1.00  0.00    -0.119 Cl
HETATM    9  C9  UNL     1      21.759  86.575  24.310  1.00  0.00     0.030 C 
HETATM   10  C10 UNL     1      20.110  85.049  23.308  1.00  0.00     0.065 C 
HETATM   11  C11 UNL     1      21.672  83.203  23.478  1.00  0.00     0.054 C 
ENDROOT
BRANCH   1  12
HETATM   12  N1  UNL     1      19.460  83.075  24.455  1.00  0.00    -0.070 N 
HETATM   13  C1  UNL     1      19.484  82.480  25.757  1.00  0.00     0.267 C 
ATOM     14  H12 UNL     1      19.388  82.360  23.732  1.00  0.00     0.277 HD
ATOM     15  H11 UNL     1      18.579  83.565  24.298  1.00  0.00     0.277 HD
ENDBRANCH   1  12
BRANCH  11  16
HETATM   16  C12 UNL     1      21.174  82.305  22.399  1.00  0.00     0.229 C 
HETATM   17  F1  UNL     1      22.246  82.046  21.539  1.00  0.00    -0.255 F 
ENDBRANCH  11  16
TORSDOF 2
ENDMDL
MODEL 4
REMARK VINA RESULT: -6.479952471      2.696      4.089
REMARK  2 active torsions:
REMARK  status: ('A' for Active; 'I' for Inactive)
REMARK    1  A    between atoms: N1_2  and  C2_5 
REMARK    2  A    between atoms: C11_15  and  C12_16 
ROOT
HETATM    1  C2  UNL     1      22.675  86.350  24.222  1.00  0.00     0.133 C 
HETATM    2  C3  UNL     1      22.030  85.835  25.507  1.00  0.00     0.044 C 
HETATM    3  C4  UNL     1      20.933  84.869  25.136  1.00  0.00    -0.010 C 
HETATM    4  C5  UNL     1      19.858  85.529  24.345  1.00  0.00     0.010 C 
HETATM    5  C6  UNL     1      20.487  86.127  23.088  1.00  0.00    -0.004 C 
HETATM    6  C7  UNL     1      20.966  84.987  22.254  1.00  0.00     0.031 C 
HETATM    7  C8  UNL     1      22.020  84.234  23.027  1.00  0.00     0.040 C 
HETATM    8 CL1  UNL     1      22.753  82.923  22.082  1.00  0.00    -0.119 Cl
HETATM    9  C9  UNL     1      21.487  83.709  24.339  1.00  0.00     0.030 C 
HETATM   10  C10 UNL     1      23.128  85.234  23.323  1.00  0.00     0.065 C 
HETATM   11  C11 UNL     1      21.565  87.079  23.500  1.00  0.00     0.054 C 
ENDROOT
BRANCH   1  12
HETATM   12  N1  UNL     1      23.784  87.211  24.462  1.00  0.00    -0.070 N 
HETATM   13  C1  UNL     1      23.773  87.801  25.766  1.00  0.00     0.267 C 
ATOM     14  H12 UNL     1      23.846  87.929  23.740  1.00  0.00     0.277 HD
ATOM     15  H11 UNL     1      24.664  86.724  24.292  1.00  0.00     0.277 HD
ENDBRANCH   1  12
BRANCH  11  16
HETATM   16  C12 UNL     1      22.055  87.975  22.415  1.00  0.00     0.229 C 
HETATM   17  F1  UNL     1      20.974  88.241  21.569  1.00  0.00    -0.255 F 
ENDBRANCH  11  16
TORSDOF 2
ENDMDL
MODEL 5
REMARK VINA RESULT: -6.147026233      2.095      3.390
REMARK  2 active torsions:
REMARK  status: ('A' for Active; 'I' for Inactive)
REMARK    1  A    between atoms: N1_2  and  C2_5 
REMARK    2  A    between atoms: C11_15  and  C12_16 
ROOT
HETATM    1  C2  UNL     1      21.243  85.777  25.201  1.00  0.00     0.133 C 
HETATM    2  C3  UNL     1      22.643  86.298  25.515  1.00  0.00     0.044 C 
HETATM    3  C4  UNL     1      23.437  86.334  24.233  1.00  0.00    -0.010 C 
HETATM    4  C5  UNL     1      23.600  84.976  23.645  1.00  0.00     0.010 C 
HETATM    5  C6  UNL     1      22.211  84.392  23.394  1.00  0.00    -0.004 C 
HETATM    6  C7  UNL     1      21.572  85.222  22.332  1.00  0.00     0.031 C 
HETATM    7  C8  UNL     1      21.433  86.634  22.843  1.00  0.00     0.040 C 
HETATM    8 CL1  UNL     1      20.573  87.690  21.705  1.00  0.00    -0.119 Cl
HETATM    9  C9  UNL     1      22.770  87.232  23.215  1.00  0.00     0.030 C 
HETATM   10  C10 UNL     1      20.578  86.551  24.099  1.00  0.00     0.065 C 
HETATM   11  C11 UNL     1      21.460  84.372  24.688  1.00  0.00     0.054 C 
ENDROOT
BRANCH   1  12
HETATM   12  N1  UNL     1      20.380  85.781  26.335  1.00  0.00    -0.070 N 
HETATM   13  C1  UNL     1      21.080  85.863  27.581  1.00  0.00     0.267 C 
ATOM     14  H12 UNL     1      19.761  84.971  26.321  1.00  0.00     0.277 HD
ATOM     15  H11 UNL     1      19.687  86.525  26.260  1.00  0.00     0.277 HD
ENDBRANCH   1  12
BRANCH  11  16
HETATM   16  C12 UNL     1      20.220  83.547  24.678  1.00  0.00     0.229 C 
HETATM   17  F1  UNL     1      20.434  82.476  23.805  1.00  0.00    -0.255 F 
ENDBRANCH  11  16
TORSDOF 2
ENDMDL
