MODEL 1
REMARK VINA RESULT: -6.587689484      0.000      0.000
REMARK  2 active torsions:
REMARK  status: ('A' for Active; 'I' for Inactive)
REMARK       I    between atoms: C1_2  and  N1_3 
REMARK    1  A    between atoms: C1_2  and  C5_12 
REMARK    2  A    between atoms: N1_3  and  N2_5 
ROOT
HETATM    1  O1  UNL     1      29.133  66.724  11.100  1.00  0.00    -0.263 OA
HETATM    2  C1  UNL     1      29.292  65.570  10.590  1.00  0.00     0.301 C 
HETATM    3  N1  UNL     1      30.097  65.464   9.424  1.00  0.00    -0.281 N 
ATOM      4  H1  UNL     1      30.237  64.548   8.999  1.00  0.00     0.184 HD
ENDROOT
BRANCH   2   5
HETATM    5  C5  UNL     1      28.661  64.417  11.201  1.00  0.00     0.194 A 
HETATM    6  N4  UNL     1      27.507  63.865  10.809  1.00  0.00    -0.277 N 
HETATM    7  N5  UNL     1      27.217  62.826  11.583  1.00  0.00    -0.250 N 
ATOM      8  H4  UNL     1      26.935  64.193  10.031  1.00  0.00     0.189 HD
HETATM    9  C6  UNL     1      28.226  62.747  12.473  1.00  0.00     0.340 A 
ATOM     10  H5  UNL     1      26.402  62.216  11.519  1.00  0.00     0.192 HD
HETATM   11  O2  UNL     1      28.326  61.885  13.389  1.00  0.00    -0.245 OA
HETATM   12  N6  UNL     1      29.126  63.723  12.248  1.00  0.00    -0.288 N 
ATOM     13  H6  UNL     1      29.985  63.899  12.768  1.00  0.00     0.172 HD
ENDBRANCH   2   5
BRANCH   3  14
HETATM   14  N2  UNL     1      30.696  66.571   8.846  1.00  0.00    -0.202 NA
HETATM   15  C2  UNL     1      32.111  66.538   9.146  1.00  0.00     0.143 C 
HETATM   16  C3  UNL     1      32.826  66.659   7.833  1.00  0.00     0.250 C 
HETATM   17  N3  UNL     1      31.821  67.084   6.884  1.00  0.00    -0.061 N 
HETATM   18  C4  UNL     1      30.545  66.660   7.424  1.00  0.00     0.345 C 
ATOM     19  H32 UNL     1      31.860  68.081   6.673  1.00  0.00     0.278 HD
ATOM     20  H31 UNL     1      31.991  66.748   5.936  1.00  0.00     0.278 HD
ENDBRANCH   3  14
TORSDOF 2
ENDMDL
MODEL 2
REMARK VINA RESULT: -6.433502448      2.017      6.021
REMARK  2 active torsions:
REMARK  status: ('A' for Active; 'I' for Inactive)
REMARK       I    between atoms: C1_2  and  N1_3 
REMARK    1  A    between atoms: C1_2  and  C5_12 
REMARK    2  A    between atoms: N1_3  and  N2_5 
ROOT
HETATM    1  O1  UNL     1      28.171  65.216   9.539  1.00  0.00    -0.263 OA
HETATM    2  C1  UNL     1      29.315  65.225  10.094  1.00  0.00     0.301 C 
HETATM    3  N1  UNL     1      29.415  64.721  11.419  1.00  0.00    -0.281 N 
ATOM      4  H1  UNL     1      30.324  64.719  11.882  1.00  0.00     0.184 HD
ENDROOT
BRANCH   2   5
HETATM    5  C5  UNL     1      30.464  65.737   9.373  1.00  0.00     0.194 A 
HETATM    6  N4  UNL     1      31.744  65.504   9.685  1.00  0.00    -0.277 N 
HETATM    7  N5  UNL     1      32.539  66.122   8.821  1.00  0.00    -0.250 N 
ATOM      8  H4  UNL     1      32.062  64.935  10.470  1.00  0.00     0.189 HD
HETATM    9  C6  UNL     1      31.717  66.751   7.959  1.00  0.00     0.340 A 
ATOM     10  H5  UNL     1      33.560  66.122   8.811  1.00  0.00     0.192 HD
HETATM   11  O2  UNL     1      32.085  67.456   6.979  1.00  0.00    -0.245 OA
HETATM   12  N6  UNL     1      30.431  66.521   8.288  1.00  0.00    -0.288 N 
ATOM     13  H6  UNL     1      29.602  66.872   7.808  1.00  0.00     0.172 HD
ENDBRANCH   2   5
BRANCH   3  14
HETATM   14  N2  UNL     1      28.312  64.234  12.101  1.00  0.00    -0.202 NA
HETATM   15  C2  UNL     1      28.276  62.796  11.949  1.00  0.00     0.143 C 
HETATM   16  C3  UNL     1      28.186  62.225  13.333  1.00  0.00     0.250 C 
HETATM   17  N3  UNL     1      27.845  63.340  14.188  1.00  0.00    -0.061 N 
HETATM   18  C4  UNL     1      28.294  64.534  13.502  1.00  0.00     0.345 C 
ATOM     19  H32 UNL     1      26.857  63.367  14.443  1.00  0.00     0.278 HD
ATOM     20  H31 UNL     1      28.216  63.252  15.134  1.00  0.00     0.278 HD
ENDBRANCH   3  14
TORSDOF 2
ENDMDL
MODEL 3
REMARK VINA RESULT: -6.381068771      1.193      1.408
REMARK  2 active torsions:
REMARK  status: ('A' for Active; 'I' for Inactive)
REMARK       I    between atoms: C1_2  and  N1_3 
REMARK    1  A    between atoms: C1_2  and  C5_12 
REMARK    2  A    between atoms: N1_3  and  N2_5 
ROOT
HETATM    1  O1  UNL     1      28.691  66.748  10.667  1.00  0.00    -0.263 OA
HETATM    2  C1  UNL     1      28.905  65.595  10.175  1.00  0.00     0.301 C 
HETATM    3  N1  UNL     1      29.848  65.489   9.117  1.00  0.00    -0.281 N 
ATOM      4  H1  UNL     1      30.033  64.573   8.708  1.00  0.00     0.184 HD
ENDROOT
BRANCH   2   5
HETATM    5  C5  UNL     1      28.195  64.444  10.696  1.00  0.00     0.194 A 
HETATM    6  N4  UNL     1      28.763  63.356  11.228  1.00  0.00    -0.277 N 
HETATM    7  N5  UNL     1      27.825  62.495  11.605  1.00  0.00    -0.250 N 
ATOM      8  H4  UNL     1      29.767  63.210  11.330  1.00  0.00     0.189 HD
HETATM    9  C6  UNL     1      26.652  63.078  11.290  1.00  0.00     0.340 A 
ATOM     10  H5  UNL     1      27.964  61.584  12.041  1.00  0.00     0.192 HD
HETATM   11  O2  UNL     1      25.511  62.578  11.490  1.00  0.00    -0.245 OA
HETATM   12  N6  UNL     1      26.865  64.284  10.728  1.00  0.00    -0.288 N 
ATOM     13  H6  UNL     1      26.159  64.939  10.396  1.00  0.00     0.172 HD
ENDBRANCH   2   5
BRANCH   3  14
HETATM   14  N2  UNL     1      30.521  66.594   8.624  1.00  0.00    -0.202 NA
HETATM   15  C2  UNL     1      31.887  66.551   9.101  1.00  0.00     0.143 C 
HETATM   16  C3  UNL     1      32.763  66.672   7.890  1.00  0.00     0.250 C 
HETATM   17  N3  UNL     1      31.889  67.105   6.823  1.00  0.00    -0.061 N 
HETATM   18  C4  UNL     1      30.552  66.687   7.194  1.00  0.00     0.345 C 
ATOM     19  H32 UNL     1      31.960  68.103   6.622  1.00  0.00     0.278 HD
ATOM     20  H31 UNL     1      32.177  66.771   5.903  1.00  0.00     0.278 HD
ENDBRANCH   3  14
TORSDOF 2
ENDMDL
MODEL 4
REMARK VINA RESULT: -6.268341991      2.832      5.547
REMARK  2 active torsions:
REMARK  status: ('A' for Active; 'I' for Inactive)
REMARK       I    between atoms: C1_2  and  N1_3 
REMARK    1  A    between atoms: C1_2  and  C5_12 
REMARK    2  A    between atoms: N1_3  and  N2_5 
ROOT
HETATM    1  O1  UNL     1      29.207  63.765  10.209  1.00  0.00    -0.263 OA
HETATM    2  C1  UNL     1      29.415  64.906   9.688  1.00  0.00     0.301 C 
HETATM    3  N1  UNL     1      28.284  65.697   9.348  1.00  0.00    -0.281 N 
ATOM      4  H1  UNL     1      28.429  66.615   8.929  1.00  0.00     0.184 HD
ENDROOT
BRANCH   2   5
HETATM    5  C5  UNL     1      30.772  65.360   9.459  1.00  0.00     0.194 A 
HETATM    6  N4  UNL     1      31.854  64.941  10.124  1.00  0.00    -0.277 N 
HETATM    7  N5  UNL     1      32.935  65.559   9.665  1.00  0.00    -0.250 N 
ATOM      8  H4  UNL     1      31.849  64.248  10.874  1.00  0.00     0.189 HD
HETATM    9  C6  UNL     1      32.495  66.380   8.692  1.00  0.00     0.340 A 
ATOM     10  H5  UNL     1      33.897  65.437   9.982  1.00  0.00     0.192 HD
HETATM   11  O2  UNL     1      33.220  67.148   8.001  1.00  0.00    -0.245 OA
HETATM   12  N6  UNL     1      31.160  66.267   8.553  1.00  0.00    -0.288 N 
ATOM     13  H6  UNL     1      30.567  66.770   7.894  1.00  0.00     0.172 HD
ENDBRANCH   2   5
BRANCH   3  14
HETATM   14  N2  UNL     1      26.990  65.255   9.568  1.00  0.00    -0.202 NA
HETATM   15  C2  UNL     1      26.494  65.871  10.780  1.00  0.00     0.143 C 
HETATM   16  C3  UNL     1      25.190  66.520  10.422  1.00  0.00     0.250 C 
HETATM   17  N3  UNL     1      24.832  65.981   9.129  1.00  0.00    -0.061 N 
HETATM   18  C4  UNL     1      26.069  65.548   8.510  1.00  0.00     0.345 C 
ATOM     19  H32 UNL     1      24.126  65.246   9.179  1.00  0.00     0.278 HD
ATOM     20  H31 UNL     1      24.297  66.631   8.554  1.00  0.00     0.278 HD
ENDBRANCH   3  14
TORSDOF 2
ENDMDL
MODEL 5
REMARK VINA RESULT: -6.235466418      2.885      5.904
REMARK  2 active torsions:
REMARK  status: ('A' for Active; 'I' for Inactive)
REMARK       I    between atoms: C1_2  and  N1_3 
REMARK    1  A    between atoms: C1_2  and  C5_12 
REMARK    2  A    between atoms: N1_3  and  N2_5 
ROOT
HETATM    1  O1  UNL     1      29.327  64.461   9.670  1.00  0.00    -0.263 OA
HETATM    2  C1  UNL     1      29.194  65.476   8.915  1.00  0.00     0.301 C 
HETATM    3  N1  UNL     1      27.879  65.961   8.680  1.00  0.00    -0.281 N 
ATOM      4  H1  UNL     1      27.751  66.774   8.078  1.00  0.00     0.184 HD
ENDROOT
BRANCH   2   5
HETATM    5  C5  UNL     1      30.364  66.098   8.328  1.00  0.00     0.194 A 
HETATM    6  N4  UNL     1      30.388  66.774   7.174  1.00  0.00    -0.277 N 
HETATM    7  N5  UNL     1      31.618  67.210   6.931  1.00  0.00    -0.250 N 
ATOM      8  H4  UNL     1      29.581  66.932   6.571  1.00  0.00     0.189 HD
HETATM    9  C6  UNL     1      32.364  66.784   7.969  1.00  0.00     0.340 A 
ATOM     10  H5  UNL     1      31.933  67.754   6.127  1.00  0.00     0.192 HD
HETATM   11  O2  UNL     1      33.599  66.994   8.116  1.00  0.00    -0.245 OA
HETATM   12  N6  UNL     1      31.602  66.096   8.841  1.00  0.00    -0.288 N 
ATOM     13  H6  UNL     1      31.905  65.662   9.712  1.00  0.00     0.172 HD
ENDBRANCH   2   5
BRANCH   3  14
HETATM   14  N2  UNL     1      26.767  65.360   9.244  1.00  0.00    -0.202 NA
HETATM   15  C2  UNL     1      26.308  66.181  10.344  1.00  0.00     0.143 C 
HETATM   16  C3  UNL     1      24.853  66.447  10.098  1.00  0.00     0.250 C 
HETATM   17  N3  UNL     1      24.460  65.514   9.066  1.00  0.00    -0.061 N 
HETATM   18  C4  UNL     1      25.668  65.170   8.344  1.00  0.00     0.345 C 
ATOM     19  H32 UNL     1      23.958  64.701   9.425  1.00  0.00     0.278 HD
ATOM     20  H31 UNL     1      23.715  65.866   8.464  1.00  0.00     0.278 HD
ENDBRANCH   3  14
TORSDOF 2
ENDMDL
