MODEL 1
REMARK VINA RESULT: -6.178404609      0.000      0.000
REMARK  4 active torsions:
REMARK  status: ('A' for Active; 'I' for Inactive)
REMARK    1  A    between atoms: N1_1  and  C1_5 
REMARK    2  A    between atoms: C1_5  and  C2_6 
REMARK       I    between atoms: C2_6  and  N2_8 
REMARK    3  A    between atoms: N2_8  and  C3_10 
REMARK    4  A    between atoms: C3_10  and  N3_12 
ROOT
HETATM    1  C3  UNL     1      29.140  66.360   8.595  1.00  0.00     0.181 C 
HETATM    2  S1  UNL     1      28.393  66.298   7.145  1.00  0.00    -0.040 SA
ENDROOT
BRANCH   1   3
HETATM    3  N2  UNL     1      28.558  65.846   9.783  1.00  0.00    -0.302 N 
HETATM    4  C2  UNL     1      29.072  64.677  10.403  1.00  0.00     0.249 C 
HETATM    5  O1  UNL     1      30.055  64.103   9.878  1.00  0.00    -0.271 OA
ATOM      6  H2  UNL     1      27.759  66.326  10.198  1.00  0.00     0.171 HD
BRANCH   4   7
HETATM    7  C1  UNL     1      28.462  64.138  11.649  1.00  0.00     0.332 C 
BRANCH   7   8
HETATM    8  N1  UNL     1      29.440  63.726  12.603  1.00  0.00    -0.071 N 
ATOM      9  H13 UNL     1      29.860  62.835  12.337  1.00  0.00     0.274 HD
ATOM     10  H12 UNL     1      30.269  64.319  12.558  1.00  0.00     0.274 HD
ATOM     11  H11 UNL     1      29.069  63.687  13.553  1.00  0.00     0.274 HD
ENDBRANCH   7   8
ENDBRANCH   4   7
ENDBRANCH   1   3
BRANCH   1  12
HETATM   12  N3  UNL     1      30.439  66.964   8.645  1.00  0.00    -0.302 N 
HETATM   13  C4  UNL     1      31.391  66.548   7.859  1.00  0.00     0.218 A 
HETATM   14  N4  UNL     1      32.729  66.910   7.662  1.00  0.00    -0.255 N 
HETATM   15  N6  UNL     1      31.524  65.563   6.860  1.00  0.00    -0.255 N 
HETATM   16  N5  UNL     1      32.835  66.020   6.765  1.00  0.00    -0.237 N 
ATOM     17  H4  UNL     1      33.357  67.602   8.070  1.00  0.00     0.191 HD
ATOM     18  H5  UNL     1      33.616  65.736   6.175  1.00  0.00     0.208 HD
ATOM     19  H6  UNL     1      30.940  64.854   6.418  1.00  0.00     0.191 HD
ATOM     20  H3  UNL     1      30.619  67.724   9.300  1.00  0.00     0.171 HD
ENDBRANCH   1  12
TORSDOF 4
ENDMDL
MODEL 2
REMARK VINA RESULT: -6.068116267      1.921      2.254
REMARK  4 active torsions:
REMARK  status: ('A' for Active; 'I' for Inactive)
REMARK    1  A    between atoms: N1_1  and  C1_5 
REMARK    2  A    between atoms: C1_5  and  C2_6 
REMARK       I    between atoms: C2_6  and  N2_8 
REMARK    3  A    between atoms: N2_8  and  C3_10 
REMARK    4  A    between atoms: C3_10  and  N3_12 
ROOT
HETATM    1  C3  UNL     1      29.709  66.676   7.857  1.00  0.00     0.181 C 
HETATM    2  S1  UNL     1      29.125  65.942   6.521  1.00  0.00    -0.040 SA
ENDROOT
BRANCH   1   3
HETATM    3  N2  UNL     1      28.894  67.013   8.968  1.00  0.00    -0.302 N 
HETATM    4  C2  UNL     1      28.430  66.014   9.865  1.00  0.00     0.249 C 
HETATM    5  O1  UNL     1      28.758  64.822   9.655  1.00  0.00    -0.271 OA
ATOM      6  H2  UNL     1      28.637  67.988   9.125  1.00  0.00     0.171 HD
BRANCH   4   7
HETATM    7  C1  UNL     1      27.575  66.366  11.031  1.00  0.00     0.332 C 
BRANCH   7   8
HETATM    8  N1  UNL     1      26.275  66.808  10.643  1.00  0.00    -0.071 N 
ATOM      9  H13 UNL     1      25.814  66.117  10.051  1.00  0.00     0.274 HD
ATOM     10  H12 UNL     1      25.633  66.800  11.435  1.00  0.00     0.274 HD
ATOM     11  H11 UNL     1      26.290  67.724  10.193  1.00  0.00     0.274 HD
ENDBRANCH   7   8
ENDBRANCH   4   7
ENDBRANCH   1   3
BRANCH   1  12
HETATM   12  N3  UNL     1      31.108  66.984   7.885  1.00  0.00    -0.302 N 
HETATM   13  C4  UNL     1      31.902  66.372   8.716  1.00  0.00     0.218 A 
HETATM   14  N4  UNL     1      33.274  66.436   8.990  1.00  0.00    -0.255 N 
HETATM   15  N6  UNL     1      31.764  65.380   9.708  1.00  0.00    -0.255 N 
HETATM   16  N5  UNL     1      33.135  65.543   9.879  1.00  0.00    -0.237 N 
ATOM     17  H4  UNL     1      34.059  66.976   8.626  1.00  0.00     0.191 HD
ATOM     18  H5  UNL     1      33.802  65.096  10.508  1.00  0.00     0.208 HD
ATOM     19  H6  UNL     1      31.016  64.814  10.108  1.00  0.00     0.191 HD
ATOM     20  H3  UNL     1      31.485  67.688   7.250  1.00  0.00     0.171 HD
ENDBRANCH   1  12
TORSDOF 4
ENDMDL
MODEL 3
REMARK VINA RESULT: -5.925557263      1.064      1.171
REMARK  4 active torsions:
REMARK  status: ('A' for Active; 'I' for Inactive)
REMARK    1  A    between atoms: N1_1  and  C1_5 
REMARK    2  A    between atoms: C1_5  and  C2_6 
REMARK       I    between atoms: C2_6  and  N2_8 
REMARK    3  A    between atoms: N2_8  and  C3_10 
REMARK    4  A    between atoms: C3_10  and  N3_12 
ROOT
HETATM    1  C3  UNL     1      29.001  65.615   8.779  1.00  0.00     0.181 C 
HETATM    2  S1  UNL     1      27.799  66.022   7.753  1.00  0.00    -0.040 SA
ENDROOT
BRANCH   1   3
HETATM    3  N2  UNL     1      28.858  65.666  10.190  1.00  0.00    -0.302 N 
HETATM    4  C2  UNL     1      28.902  64.483  10.974  1.00  0.00     0.249 C 
HETATM    5  O1  UNL     1      29.071  63.386  10.392  1.00  0.00    -0.271 OA
ATOM      6  H2  UNL     1      28.722  66.568  10.648  1.00  0.00     0.171 HD
BRANCH   4   7
HETATM    7  C1  UNL     1      28.752  64.536  12.454  1.00  0.00     0.332 C 
BRANCH   7   8
HETATM    8  N1  UNL     1      29.470  63.494  13.114  1.00  0.00    -0.071 N 
ATOM      9  H13 UNL     1      29.854  63.819  14.002  1.00  0.00     0.274 HD
ATOM     10  H12 UNL     1      28.835  62.776  13.463  1.00  0.00     0.274 HD
ATOM     11  H11 UNL     1      30.197  63.086  12.527  1.00  0.00     0.274 HD
ENDBRANCH   7   8
ENDBRANCH   4   7
ENDBRANCH   1   3
BRANCH   1  12
HETATM   12  N3  UNL     1      30.245  65.191   8.208  1.00  0.00    -0.302 N 
HETATM   13  C4  UNL     1      30.983  66.030   7.537  1.00  0.00     0.218 A 
HETATM   14  N4  UNL     1      32.212  65.940   6.873  1.00  0.00    -0.255 N 
HETATM   15  N6  UNL     1      30.899  67.388   7.172  1.00  0.00    -0.255 N 
HETATM   16  N5  UNL     1      32.124  67.163   6.551  1.00  0.00    -0.237 N 
ATOM     17  H4  UNL     1      32.895  65.199   6.713  1.00  0.00     0.191 HD
ATOM     18  H5  UNL     1      32.741  67.775   6.017  1.00  0.00     0.208 HD
ATOM     19  H6  UNL     1      30.251  68.164   7.301  1.00  0.00     0.191 HD
ATOM     20  H3  UNL     1      30.555  64.227   8.327  1.00  0.00     0.171 HD
ENDBRANCH   1  12
TORSDOF 4
ENDMDL
MODEL 4
REMARK VINA RESULT: -5.828929400      1.147      1.300
REMARK  4 active torsions:
REMARK  status: ('A' for Active; 'I' for Inactive)
REMARK    1  A    between atoms: N1_1  and  C1_5 
REMARK    2  A    between atoms: C1_5  and  C2_6 
REMARK       I    between atoms: C2_6  and  N2_8 
REMARK    3  A    between atoms: N2_8  and  C3_10 
REMARK    4  A    between atoms: C3_10  and  N3_12 
ROOT
HETATM    1  C3  UNL     1      27.984  65.886   9.389  1.00  0.00     0.181 C 
HETATM    2  S1  UNL     1      26.914  65.774   8.162  1.00  0.00    -0.040 SA
ENDROOT
BRANCH   1   3
HETATM    3  N2  UNL     1      27.818  65.198  10.619  1.00  0.00    -0.302 N 
HETATM    4  C2  UNL     1      28.598  64.052  10.927  1.00  0.00     0.249 C 
HETATM    5  O1  UNL     1      29.441  63.658  10.087  1.00  0.00    -0.271 OA
ATOM      6  H2  UNL     1      27.128  65.532  11.291  1.00  0.00     0.171 HD
BRANCH   4   7
HETATM    7  C1  UNL     1      28.425  63.330  12.217  1.00  0.00     0.332 C 
BRANCH   7   8
HETATM    8  N1  UNL     1      29.505  63.560  13.122  1.00  0.00    -0.071 N 
ATOM      9  H13 UNL     1      30.117  64.301  12.782  1.00  0.00     0.274 HD
ATOM     10  H12 UNL     1      29.175  64.000  13.981  1.00  0.00     0.274 HD
ATOM     11  H11 UNL     1      30.033  62.711  13.324  1.00  0.00     0.274 HD
ENDBRANCH   7   8
ENDBRANCH   4   7
ENDBRANCH   1   3
BRANCH   1  12
HETATM   12  N3  UNL     1      29.132  66.720   9.192  1.00  0.00    -0.302 N 
HETATM   13  C4  UNL     1      30.098  66.340   8.405  1.00  0.00     0.218 A 
HETATM   14  N4  UNL     1      31.318  66.899   8.008  1.00  0.00    -0.255 N 
HETATM   15  N6  UNL     1      30.367  65.215   7.599  1.00  0.00    -0.255 N 
HETATM   16  N5  UNL     1      31.547  65.882   7.287  1.00  0.00    -0.237 N 
ATOM     17  H4  UNL     1      31.816  67.766   8.213  1.00  0.00     0.191 HD
ATOM     18  H5  UNL     1      32.331  65.635   6.684  1.00  0.00     0.208 HD
ATOM     19  H6  UNL     1      29.913  64.334   7.360  1.00  0.00     0.191 HD
ATOM     20  H3  UNL     1      29.194  67.618   9.672  1.00  0.00     0.171 HD
ENDBRANCH   1  12
TORSDOF 4
ENDMDL
MODEL 5
REMARK VINA RESULT: -5.805880844      2.130      2.717
REMARK  4 active torsions:
REMARK  status: ('A' for Active; 'I' for Inactive)
REMARK    1  A    between atoms: N1_1  and  C1_5 
REMARK    2  A    between atoms: C1_5  and  C2_6 
REMARK       I    between atoms: C2_6  and  N2_8 
REMARK    3  A    between atoms: N2_8  and  C3_10 
REMARK    4  A    between atoms: C3_10  and  N3_12 
ROOT
HETATM    1  C3  UNL     1      30.991  65.779   9.365  1.00  0.00     0.181 C 
HETATM    2  S1  UNL     1      32.510  66.366   9.273  1.00  0.00    -0.040 SA
ENDROOT
BRANCH   1   3
HETATM    3  N2  UNL     1      30.273  65.688  10.586  1.00  0.00    -0.302 N 
HETATM    4  C2  UNL     1      29.522  64.527  10.909  1.00  0.00     0.249 C 
HETATM    5  O1  UNL     1      29.504  63.578  10.090  1.00  0.00    -0.271 OA
ATOM      6  H2  UNL     1      30.298  66.469  11.242  1.00  0.00     0.171 HD
BRANCH   4   7
HETATM    7  C1  UNL     1      28.770  64.432  12.190  1.00  0.00     0.332 C 
BRANCH   7   8
HETATM    8  N1  UNL     1      29.388  63.545  13.122  1.00  0.00    -0.071 N 
ATOM      9  H13 UNL     1      29.823  62.756  12.645  1.00  0.00     0.274 HD
ATOM     10  H12 UNL     1      30.220  63.968  13.534  1.00  0.00     0.274 HD
ATOM     11  H11 UNL     1      28.743  63.226  13.845  1.00  0.00     0.274 HD
ENDBRANCH   7   8
ENDBRANCH   4   7
ENDBRANCH   1   3
BRANCH   1  12
HETATM   12  N3  UNL     1      30.375  65.342   8.147  1.00  0.00    -0.302 N 
HETATM   13  C4  UNL     1      29.532  66.112   7.520  1.00  0.00     0.218 A 
HETATM   14  N4  UNL     1      28.779  65.992   6.346  1.00  0.00    -0.255 N 
HETATM   15  N6  UNL     1      28.991  67.398   7.720  1.00  0.00    -0.255 N 
HETATM   16  N5  UNL     1      28.300  67.150   6.538  1.00  0.00    -0.237 N 
ATOM     17  H4  UNL     1      28.664  65.272   5.633  1.00  0.00     0.191 HD
ATOM     18  H5  UNL     1      27.634  67.710   6.006  1.00  0.00     0.208 HD
ATOM     19  H6  UNL     1      29.068  68.151   8.404  1.00  0.00     0.191 HD
ATOM     20  H3  UNL     1      30.598  64.422   7.768  1.00  0.00     0.171 HD
ENDBRANCH   1  12
TORSDOF 4
ENDMDL
