MODEL 1
REMARK VINA RESULT: -6.233747381      0.000      0.000
REMARK  2 active torsions:
REMARK  status: ('A' for Active; 'I' for Inactive)
REMARK    1  A    between atoms: C2_7  and  N3_8 
REMARK    2  A    between atoms: N3_8  and  N4_10 
ROOT
HETATM    1  N3  UNL     1      30.099  66.028  10.409  1.00  0.00    -0.133 N 
ATOM      2  H3  UNL     1      30.282  66.773  11.082  1.00  0.00     0.205 HD
ENDROOT
BRANCH   1   3
HETATM    3  C2  UNL     1      29.257  65.119  10.731  1.00  0.00     0.715 A 
HETATM    4  N2  UNL     1      27.928  65.261  10.559  1.00  0.00    -0.127 N 
HETATM    5  N1  UNL     1      27.295  64.179  10.973  1.00  0.00    -0.237 N 
ATOM      6  H2  UNL     1      27.475  66.086  10.165  1.00  0.00     0.206 HD
HETATM    7  C1  UNL     1      28.223  63.329  11.417  1.00  0.00     0.353 A 
ATOM      8  H1  UNL     1      26.288  64.022  10.956  1.00  0.00     0.192 HD
HETATM    9  O1  UNL     1      28.029  62.179  11.897  1.00  0.00    -0.245 OA
HETATM   10  N6  UNL     1      29.443  63.912  11.268  1.00  0.00    -0.137 N 
ATOM     11  H6  UNL     1      30.341  63.500  11.522  1.00  0.00     0.189 HD
ENDBRANCH   1   3
BRANCH   1  12
HETATM   12  N4  UNL     1      30.780  66.061   9.197  1.00  0.00    -0.310 N 
HETATM   13  C3  UNL     1      30.236  65.589   7.963  1.00  0.00     0.170 C 
HETATM   14  C4  UNL     1      30.485  66.531   6.810  1.00  0.00     0.253 C 
HETATM   15  N5  UNL     1      31.788  67.112   6.820  1.00  0.00    -0.072 N 
HETATM   16  C5  UNL     1      32.683  66.519   7.790  1.00  0.00     0.253 C 
ATOM     17  H52 UNL     1      32.201  67.087   5.887  1.00  0.00     0.277 HD
ATOM     18  H51 UNL     1      31.731  68.122   6.953  1.00  0.00     0.277 HD
HETATM   19  C6  UNL     1      32.125  66.608   9.191  1.00  0.00     0.170 C 
ENDBRANCH   1  12
TORSDOF 2
ENDMDL
MODEL 2
REMARK VINA RESULT: -6.209492123      1.451      2.141
REMARK  2 active torsions:
REMARK  status: ('A' for Active; 'I' for Inactive)
REMARK    1  A    between atoms: C2_7  and  N3_8 
REMARK    2  A    between atoms: N3_8  and  N4_10 
ROOT
HETATM    1  N3  UNL     1      30.254  64.455   9.675  1.00  0.00    -0.133 N 
ATOM      2  H3  UNL     1      30.608  63.509   9.526  1.00  0.00     0.205 HD
ENDROOT
BRANCH   1   3
HETATM    3  C2  UNL     1      29.345  64.624  10.560  1.00  0.00     0.715 A 
HETATM    4  N2  UNL     1      29.434  64.118  11.806  1.00  0.00    -0.127 N 
HETATM    5  N1  UNL     1      28.365  64.442  12.509  1.00  0.00    -0.237 N 
ATOM      6  H2  UNL     1      30.216  63.565  12.155  1.00  0.00     0.206 HD
HETATM    7  C1  UNL     1      27.576  65.165  11.711  1.00  0.00     0.353 A 
ATOM      8  H1  UNL     1      28.177  64.189  13.478  1.00  0.00     0.192 HD
HETATM    9  O1  UNL     1      26.457  65.666  12.005  1.00  0.00    -0.245 OA
HETATM   10  N6  UNL     1      28.183  65.279  10.499  1.00  0.00    -0.137 N 
ATOM     11  H6  UNL     1      27.815  65.776   9.687  1.00  0.00     0.189 HD
ENDBRANCH   1   3
BRANCH   1  12
HETATM   12  N4  UNL     1      30.788  65.482   8.904  1.00  0.00    -0.310 N 
HETATM   13  C3  UNL     1      31.759  66.414   9.380  1.00  0.00     0.170 C 
HETATM   14  C4  UNL     1      32.881  66.651   8.398  1.00  0.00     0.253 C 
HETATM   15  N5  UNL     1      32.444  66.731   7.042  1.00  0.00    -0.072 N 
HETATM   16  C5  UNL     1      31.007  66.798   6.897  1.00  0.00     0.253 C 
ATOM     17  H52 UNL     1      32.891  67.514   6.565  1.00  0.00     0.277 HD
ATOM     18  H51 UNL     1      32.826  65.959   6.495  1.00  0.00     0.277 HD
HETATM   19  C6  UNL     1      30.325  65.609   7.534  1.00  0.00     0.170 C 
ENDBRANCH   1  12
TORSDOF 2
ENDMDL
MODEL 3
REMARK VINA RESULT: -6.190215400      1.222      1.797
REMARK  2 active torsions:
REMARK  status: ('A' for Active; 'I' for Inactive)
REMARK    1  A    between atoms: C2_7  and  N3_8 
REMARK    2  A    between atoms: N3_8  and  N4_10 
ROOT
HETATM    1  N3  UNL     1      30.202  64.443   9.607  1.00  0.00    -0.133 N 
ATOM      2  H3  UNL     1      30.440  63.485   9.349  1.00  0.00     0.205 HD
ENDROOT
BRANCH   1   3
HETATM    3  C2  UNL     1      29.409  64.621  10.596  1.00  0.00     0.715 A 
HETATM    4  N2  UNL     1      28.335  65.433  10.536  1.00  0.00    -0.127 N 
HETATM    5  N1  UNL     1      27.695  65.431  11.690  1.00  0.00    -0.237 N 
ATOM      6  H2  UNL     1      28.058  65.972   9.716  1.00  0.00     0.206 HD
HETATM    7  C1  UNL     1      28.359  64.610  12.505  1.00  0.00     0.353 A 
ATOM      8  H1  UNL     1      26.851  65.957  11.916  1.00  0.00     0.192 HD
HETATM    9  O1  UNL     1      28.070  64.333  13.701  1.00  0.00    -0.245 OA
HETATM   10  N6  UNL     1      29.425  64.105  11.828  1.00  0.00    -0.137 N 
ATOM     11  H6  UNL     1      30.115  63.450  12.195  1.00  0.00     0.189 HD
ENDBRANCH   1   3
BRANCH   1  12
HETATM   12  N4  UNL     1      30.759  65.479   8.864  1.00  0.00    -0.310 N 
HETATM   13  C3  UNL     1      31.713  66.408   9.381  1.00  0.00     0.170 C 
HETATM   14  C4  UNL     1      32.866  66.656   8.438  1.00  0.00     0.253 C 
HETATM   15  N5  UNL     1      32.474  66.748   7.069  1.00  0.00    -0.072 N 
HETATM   16  C5  UNL     1      31.042  66.814   6.877  1.00  0.00     0.253 C 
ATOM     17  H52 UNL     1      32.934  67.536   6.615  1.00  0.00     0.277 HD
ATOM     18  H51 UNL     1      32.875  65.981   6.528  1.00  0.00     0.277 HD
HETATM   19  C6  UNL     1      30.342  65.618   7.481  1.00  0.00     0.170 C 
ENDBRANCH   1  12
TORSDOF 2
ENDMDL
MODEL 4
REMARK VINA RESULT: -6.080539632      2.622      5.230
REMARK  2 active torsions:
REMARK  status: ('A' for Active; 'I' for Inactive)
REMARK    1  A    between atoms: C2_7  and  N3_8 
REMARK    2  A    between atoms: N3_8  and  N4_10 
ROOT
HETATM    1  N3  UNL     1      30.490  64.463  10.218  1.00  0.00    -0.133 N 
ATOM      2  H3  UNL     1      30.989  63.608  10.468  1.00  0.00     0.205 HD
ENDROOT
BRANCH   1   3
HETATM    3  C2  UNL     1      31.059  65.276   9.409  1.00  0.00     0.715 A 
HETATM    4  N2  UNL     1      32.287  65.786   9.627  1.00  0.00    -0.127 N 
HETATM    5  N1  UNL     1      32.629  66.593   8.641  1.00  0.00    -0.237 N 
ATOM      6  H2  UNL     1      32.868  65.579  10.439  1.00  0.00     0.206 HD
HETATM    7  C1  UNL     1      31.614  66.605   7.775  1.00  0.00     0.353 A 
ATOM      8  H1  UNL     1      33.504  67.109   8.555  1.00  0.00     0.192 HD
HETATM    9  O1  UNL     1      31.546  67.255   6.696  1.00  0.00    -0.245 OA
HETATM   10  N6  UNL     1      30.636  65.788   8.251  1.00  0.00    -0.137 N 
ATOM     11  H6  UNL     1      29.739  65.600   7.803  1.00  0.00     0.189 HD
ENDBRANCH   1   3
BRANCH   1  12
HETATM   12  N4  UNL     1      29.234  64.675  10.776  1.00  0.00    -0.310 N 
HETATM   13  C3  UNL     1      28.671  65.967  11.006  1.00  0.00     0.170 C 
HETATM   14  C4  UNL     1      27.226  66.065  10.581  1.00  0.00     0.253 C 
HETATM   15  N5  UNL     1      26.458  64.904  10.895  1.00  0.00    -0.072 N 
HETATM   16  C5  UNL     1      27.148  63.966  11.753  1.00  0.00     0.253 C 
ATOM     17  H52 UNL     1      25.559  65.165  11.298  1.00  0.00     0.277 HD
ATOM     18  H51 UNL     1      26.137  64.444  10.044  1.00  0.00     0.277 HD
HETATM   19  C6  UNL     1      28.453  63.508  11.144  1.00  0.00     0.170 C 
ENDBRANCH   1  12
TORSDOF 2
ENDMDL
MODEL 5
REMARK VINA RESULT: -6.037239866      2.753      5.341
REMARK  2 active torsions:
REMARK  status: ('A' for Active; 'I' for Inactive)
REMARK    1  A    between atoms: C2_7  and  N3_8 
REMARK    2  A    between atoms: N3_8  and  N4_10 
ROOT
HETATM    1  N3  UNL     1      30.618  64.541  10.169  1.00  0.00    -0.133 N 
ATOM      2  H3  UNL     1      31.004  63.611  10.335  1.00  0.00     0.205 HD
ENDROOT
BRANCH   1   3
HETATM    3  C2  UNL     1      31.288  65.348   9.434  1.00  0.00     0.715 A 
HETATM    4  N2  UNL     1      32.561  65.696   9.703  1.00  0.00    -0.127 N 
HETATM    5  N1  UNL     1      33.008  66.536   8.789  1.00  0.00    -0.237 N 
ATOM      6  H2  UNL     1      33.102  65.358  10.499  1.00  0.00     0.206 HD
HETATM    7  C1  UNL     1      32.015  66.734   7.920  1.00  0.00     0.353 A 
ATOM      8  H1  UNL     1      33.937  66.956   8.753  1.00  0.00     0.192 HD
HETATM    9  O1  UNL     1      32.039  67.473   6.898  1.00  0.00    -0.245 OA
HETATM   10  N6  UNL     1      30.944  65.997   8.319  1.00  0.00    -0.137 N 
ATOM     11  H6  UNL     1      30.039  65.949   7.851  1.00  0.00     0.189 HD
ENDBRANCH   1   3
BRANCH   1  12
HETATM   12  N4  UNL     1      29.397  64.856  10.754  1.00  0.00    -0.310 N 
HETATM   13  C3  UNL     1      28.369  63.901  11.019  1.00  0.00     0.170 C 
HETATM   14  C4  UNL     1      27.757  64.057  12.390  1.00  0.00     0.253 C 
HETATM   15  N5  UNL     1      27.561  65.416  12.776  1.00  0.00    -0.072 N 
HETATM   16  C5  UNL     1      27.770  66.362  11.701  1.00  0.00     0.253 C 
ATOM     17  H52 UNL     1      26.638  65.543  13.191  1.00  0.00     0.277 HD
ATOM     18  H51 UNL     1      28.144  65.650  13.580  1.00  0.00     0.277 HD
HETATM   19  C6  UNL     1      29.158  66.242  11.114  1.00  0.00     0.170 C 
ENDBRANCH   1  12
TORSDOF 2
ENDMDL
