MODEL 1
REMARK VINA RESULT: -6.567960294      0.000      0.000
REMARK  4 active torsions:
REMARK  status: ('A' for Active; 'I' for Inactive)
REMARK       I    between atoms: C1_2  and  N2_4 
REMARK    1  A    between atoms: N2_4  and  C2_6 
REMARK    2  A    between atoms: C2_6  and  C3_7 
REMARK    3  A    between atoms: C2_6  and  C8_18 
REMARK       I    between atoms: C3_7  and  N3_9 
REMARK    4  A    between atoms: N3_9  and  N4_11 
ROOT
HETATM    1  C3  UNL     1      29.469  65.521   9.714  1.00  0.00     0.259 C 
HETATM    2  O2  UNL     1      29.956  64.371   9.677  1.00  0.00    -0.269 OA
HETATM    3  N3  UNL     1      28.302  65.698  10.493  1.00  0.00    -0.263 N 
ATOM      4  H3  UNL     1      27.895  66.632  10.531  1.00  0.00     0.190 HD
ENDROOT
BRANCH   1   5
HETATM    5  C2  UNL     1      30.059  66.658   8.994  1.00  0.00     0.183 C 
BRANCH   5   6
HETATM    6  N2  UNL     1      29.228  67.345   8.077  1.00  0.00    -0.332 N 
HETATM    7  C1  UNL     1      28.646  66.858   6.887  1.00  0.00     0.329 C 
HETATM    8  N1  UNL     1      27.817  67.584   6.011  1.00  0.00    -0.040 NA
HETATM    9  O1  UNL     1      28.884  65.646   6.560  1.00  0.00    -0.251 OA
ATOM     10  H2  UNL     1      29.023  68.319   8.305  1.00  0.00     0.164 HD
ENDBRANCH   5   6
BRANCH   5  11
HETATM   11  C8  UNL     1      31.395  66.234   8.440  1.00  0.00     0.018 A 
HETATM   12  C9  UNL     1      32.197  67.081   7.556  1.00  0.00     0.007 A 
HETATM   13  C10 UNL     1      32.677  66.738   8.981  1.00  0.00     0.007 A 
ENDBRANCH   5  11
ENDBRANCH   1   5
BRANCH   3  14
HETATM   14  N4  UNL     1      27.668  64.685  11.213  1.00  0.00    -0.249 N 
HETATM   15  C4  UNL     1      26.686  63.839  10.564  1.00  0.00     0.225 C 
HETATM   16  S1  UNL     1      25.271  63.681  11.687  1.00  0.00    -0.147 SA
HETATM   17  C5  UNL     1      25.848  63.971  13.378  1.00  0.00     0.085 C 
HETATM   18  C6  UNL     1      27.313  63.589  13.425  1.00  0.00     0.115 C 
HETATM   19  C7  UNL     1      28.042  64.555  12.574  1.00  0.00     0.239 C 
HETATM   20  O3  UNL     1      28.974  65.239  13.059  1.00  0.00    -0.272 OA
ENDBRANCH   3  14
TORSDOF 4
ENDMDL
MODEL 2
REMARK VINA RESULT: -6.559909806      2.354      3.586
REMARK  4 active torsions:
REMARK  status: ('A' for Active; 'I' for Inactive)
REMARK       I    between atoms: C1_2  and  N2_4 
REMARK    1  A    between atoms: N2_4  and  C2_6 
REMARK    2  A    between atoms: C2_6  and  C3_7 
REMARK    3  A    between atoms: C2_6  and  C8_18 
REMARK       I    between atoms: C3_7  and  N3_9 
REMARK    4  A    between atoms: N3_9  and  N4_11 
ROOT
HETATM    1  C3  UNL     1      28.028  65.944   9.704  1.00  0.00     0.259 C 
HETATM    2  O2  UNL     1      28.300  64.738   9.886  1.00  0.00    -0.269 OA
HETATM    3  N3  UNL     1      26.660  66.277   9.557  1.00  0.00    -0.263 N 
ATOM      4  H3  UNL     1      26.426  67.258   9.408  1.00  0.00     0.190 HD
ENDROOT
BRANCH   1   5
HETATM    5  C2  UNL     1      29.056  66.991   9.641  1.00  0.00     0.183 C 
BRANCH   5   6
HETATM    6  N2  UNL     1      30.088  66.829   8.685  1.00  0.00    -0.332 N 
HETATM    7  C1  UNL     1      30.081  67.188   7.321  1.00  0.00     0.329 C 
HETATM    8  N1  UNL     1      31.141  67.012   6.411  1.00  0.00    -0.040 NA
HETATM    9  O1  UNL     1      29.021  67.723   6.850  1.00  0.00    -0.251 OA
ATOM     10  H2  UNL     1      30.947  66.397   9.027  1.00  0.00     0.164 HD
ENDBRANCH   5   6
BRANCH   5  11
HETATM   11  C8  UNL     1      29.533  67.279  11.042  1.00  0.00     0.018 A 
HETATM   12  C9  UNL     1      28.914  68.286  11.904  1.00  0.00     0.007 A 
HETATM   13  C10 UNL     1      28.822  66.785  12.242  1.00  0.00     0.007 A 
ENDBRANCH   5  11
ENDBRANCH   1   5
BRANCH   3  14
HETATM   14  N4  UNL     1      25.611  65.359   9.602  1.00  0.00    -0.249 N 
HETATM   15  C4  UNL     1      24.884  65.146  10.838  1.00  0.00     0.225 C 
HETATM   16  S1  UNL     1      24.682  63.358  11.055  1.00  0.00    -0.147 SA
HETATM   17  C5  UNL     1      24.770  62.571   9.427  1.00  0.00     0.085 C 
HETATM   18  C6  UNL     1      24.315  63.595   8.408  1.00  0.00     0.115 C 
HETATM   19  C7  UNL     1      25.326  64.675   8.394  1.00  0.00     0.239 C 
HETATM   20  O3  UNL     1      25.911  64.972   7.326  1.00  0.00    -0.272 OA
ENDBRANCH   3  14
TORSDOF 4
ENDMDL
MODEL 3
REMARK VINA RESULT: -6.349274388      2.317      3.827
REMARK  4 active torsions:
REMARK  status: ('A' for Active; 'I' for Inactive)
REMARK       I    between atoms: C1_2  and  N2_4 
REMARK    1  A    between atoms: N2_4  and  C2_6 
REMARK    2  A    between atoms: C2_6  and  C3_7 
REMARK    3  A    between atoms: C2_6  and  C8_18 
REMARK       I    between atoms: C3_7  and  N3_9 
REMARK    4  A    between atoms: N3_9  and  N4_11 
ROOT
HETATM    1  C3  UNL     1      28.518  65.371   9.792  1.00  0.00     0.259 C 
HETATM    2  O2  UNL     1      28.537  64.166  10.124  1.00  0.00    -0.269 OA
HETATM    3  N3  UNL     1      27.250  65.947   9.547  1.00  0.00    -0.263 N 
ATOM      4  H3  UNL     1      27.221  66.930   9.274  1.00  0.00     0.190 HD
ENDROOT
BRANCH   1   5
HETATM    5  C2  UNL     1      29.738  66.177   9.654  1.00  0.00     0.183 C 
BRANCH   5   6
HETATM    6  N2  UNL     1      30.170  66.898  10.794  1.00  0.00    -0.332 N 
HETATM    7  C1  UNL     1      29.410  67.730  11.643  1.00  0.00     0.329 C 
HETATM    8  N1  UNL     1      29.888  68.421  12.772  1.00  0.00    -0.040 NA
HETATM    9  O1  UNL     1      28.170  67.883  11.376  1.00  0.00    -0.251 OA
ATOM     10  H2  UNL     1      31.158  66.805  11.031  1.00  0.00     0.164 HD
ENDBRANCH   5   6
BRANCH   5  11
HETATM   11  C8  UNL     1      29.632  66.995   8.392  1.00  0.00     0.018 A 
HETATM   12  C9  UNL     1      30.767  67.232   7.498  1.00  0.00     0.007 A 
HETATM   13  C10 UNL     1      29.563  66.379   7.048  1.00  0.00     0.007 A 
ENDBRANCH   5  11
ENDBRANCH   1   5
BRANCH   3  14
HETATM   14  N4  UNL     1      26.036  65.268   9.651  1.00  0.00    -0.249 N 
HETATM   15  C4  UNL     1      25.390  65.129  10.941  1.00  0.00     0.225 C 
HETATM   16  S1  UNL     1      24.828  63.412  11.092  1.00  0.00    -0.147 SA
HETATM   17  C5  UNL     1      24.605  62.736   9.427  1.00  0.00     0.085 C 
HETATM   18  C6  UNL     1      24.293  63.899   8.508  1.00  0.00     0.115 C 
HETATM   19  C7  UNL     1      25.507  64.742   8.446  1.00  0.00     0.239 C 
HETATM   20  O3  UNL     1      26.048  64.981   7.341  1.00  0.00    -0.272 OA
ENDBRANCH   3  14
TORSDOF 4
ENDMDL
MODEL 4
REMARK VINA RESULT: -6.343445736      2.886      6.324
REMARK  4 active torsions:
REMARK  status: ('A' for Active; 'I' for Inactive)
REMARK       I    between atoms: C1_2  and  N2_4 
REMARK    1  A    between atoms: N2_4  and  C2_6 
REMARK    2  A    between atoms: C2_6  and  C3_7 
REMARK    3  A    between atoms: C2_6  and  C8_18 
REMARK       I    between atoms: C3_7  and  N3_9 
REMARK    4  A    between atoms: N3_9  and  N4_11 
ROOT
HETATM    1  C3  UNL     1      29.259  64.870  10.786  1.00  0.00     0.259 C 
HETATM    2  O2  UNL     1      29.409  63.767  10.217  1.00  0.00    -0.269 OA
HETATM    3  N3  UNL     1      29.879  65.990  10.185  1.00  0.00    -0.263 N 
ATOM      4  H3  UNL     1      29.764  66.895  10.640  1.00  0.00     0.190 HD
ENDROOT
BRANCH   1   5
HETATM    5  C2  UNL     1      28.479  65.028  12.021  1.00  0.00     0.183 C 
BRANCH   5   6
HETATM    6  N2  UNL     1      29.141  65.595  13.137  1.00  0.00    -0.332 N 
HETATM    7  C1  UNL     1      29.314  66.960  13.450  1.00  0.00     0.329 C 
HETATM    8  N1  UNL     1      29.976  67.473  14.582  1.00  0.00    -0.040 NA
HETATM    9  O1  UNL     1      28.832  67.824  12.643  1.00  0.00    -0.251 OA
ATOM     10  H2  UNL     1      29.545  64.932  13.799  1.00  0.00     0.164 HD
ENDBRANCH   5   6
BRANCH   5  11
HETATM   11  C8  UNL     1      27.761  63.733  12.304  1.00  0.00     0.018 A 
HETATM   12  C9  UNL     1      28.300  62.700  13.189  1.00  0.00     0.007 A 
HETATM   13  C10 UNL     1      27.030  63.489  13.567  1.00  0.00     0.007 A 
ENDBRANCH   5  11
ENDBRANCH   1   5
BRANCH   3  14
HETATM   14  N4  UNL     1      30.637  65.944   9.015  1.00  0.00    -0.249 N 
HETATM   15  C4  UNL     1      32.079  65.814   9.088  1.00  0.00     0.225 C 
HETATM   16  S1  UNL     1      32.797  66.993   7.913  1.00  0.00    -0.147 SA
HETATM   17  C5  UNL     1      31.569  67.338   6.628  1.00  0.00     0.085 C 
HETATM   18  C6  UNL     1      30.670  66.123   6.527  1.00  0.00     0.115 C 
HETATM   19  C7  UNL     1      29.916  66.033   7.797  1.00  0.00     0.239 C 
HETATM   20  O3  UNL     1      28.663  66.035   7.784  1.00  0.00    -0.272 OA
ENDBRANCH   3  14
TORSDOF 4
ENDMDL
MODEL 5
REMARK VINA RESULT: -6.311906643      2.809      6.148
REMARK  4 active torsions:
REMARK  status: ('A' for Active; 'I' for Inactive)
REMARK       I    between atoms: C1_2  and  N2_4 
REMARK    1  A    between atoms: N2_4  and  C2_6 
REMARK    2  A    between atoms: C2_6  and  C3_7 
REMARK    3  A    between atoms: C2_6  and  C8_18 
REMARK       I    between atoms: C3_7  and  N3_9 
REMARK    4  A    between atoms: N3_9  and  N4_11 
ROOT
HETATM    1  C3  UNL     1      29.190  64.868  10.822  1.00  0.00     0.259 C 
HETATM    2  O2  UNL     1      29.368  63.758  10.276  1.00  0.00    -0.269 OA
HETATM    3  N3  UNL     1      29.804  65.987  10.212  1.00  0.00    -0.263 N 
ATOM      4  H3  UNL     1      29.668  66.899  10.648  1.00  0.00     0.190 HD
ENDROOT
BRANCH   1   5
HETATM    5  C2  UNL     1      28.387  65.036  12.040  1.00  0.00     0.183 C 
BRANCH   5   6
HETATM    6  N2  UNL     1      27.023  64.662  11.973  1.00  0.00    -0.332 N 
HETATM    7  C1  UNL     1      26.369  63.611  12.650  1.00  0.00     0.329 C 
HETATM    8  N1  UNL     1      25.003  63.286  12.554  1.00  0.00    -0.040 NA
HETATM    9  O1  UNL     1      27.067  62.876  13.426  1.00  0.00    -0.251 OA
ATOM     10  H2  UNL     1      26.437  65.226  11.356  1.00  0.00     0.164 HD
ENDBRANCH   5   6
BRANCH   5  11
HETATM   11  C8  UNL     1      28.637  66.417  12.593  1.00  0.00     0.018 A 
HETATM   12  C9  UNL     1      27.790  67.030  13.616  1.00  0.00     0.007 A 
HETATM   13  C10 UNL     1      29.252  66.643  13.920  1.00  0.00     0.007 A 
ENDBRANCH   5  11
ENDBRANCH   1   5
BRANCH   3  14
HETATM   14  N4  UNL     1      30.584  65.932   9.056  1.00  0.00    -0.249 N 
HETATM   15  C4  UNL     1      32.021  65.779   9.156  1.00  0.00     0.225 C 
HETATM   16  S1  UNL     1      32.780  66.950   7.998  1.00  0.00    -0.147 SA
HETATM   17  C5  UNL     1      31.581  67.317   6.691  1.00  0.00     0.085 C 
HETATM   18  C6  UNL     1      30.666  66.116   6.570  1.00  0.00     0.115 C 
HETATM   19  C7  UNL     1      29.887  66.035   7.826  1.00  0.00     0.239 C 
HETATM   20  O3  UNL     1      28.635  66.057   7.789  1.00  0.00    -0.272 OA
ENDBRANCH   3  14
TORSDOF 4
ENDMDL
