MODEL 1
REMARK VINA RESULT: -6.873634223      0.000      0.000
REMARK  5 active torsions:
REMARK  status: ('A' for Active; 'I' for Inactive)
REMARK    1  A    between atoms: C2_3  and  N2_4 
REMARK    2  A    between atoms: C2_3  and  C9_13 
REMARK       I    between atoms: N2_4  and  C3_6 
REMARK    3  A    between atoms: C3_6  and  C4_8 
REMARK       I    between atoms: C9_13  and  N3_15 
REMARK    4  A    between atoms: N3_15  and  N4_17 
REMARK    5  A    between atoms: N4_17  and  C10_19 
ROOT
HETATM    1  N1  UNL     1      28.527  62.550  12.779  1.00  0.00    -0.195 NA
HETATM    2  C1  UNL     1      28.413  63.561  12.237  1.00  0.00     0.094 C 
HETATM    3  C2  UNL     1      28.271  64.865  11.523  1.00  0.00     0.286 C 
ENDROOT
BRANCH   3   4
HETATM    4  N2  UNL     1      29.205  64.853  10.407  1.00  0.00    -0.336 N 
HETATM    5  C3  UNL     1      29.771  66.034   9.892  1.00  0.00     0.223 C 
HETATM    6  O1  UNL     1      29.456  67.154  10.434  1.00  0.00    -0.273 OA
ATOM      7  H2  UNL     1      29.458  63.959   9.985  1.00  0.00     0.164 HD
BRANCH   5   8
HETATM    8  C4  UNL     1      30.696  66.001   8.763  1.00  0.00     0.078 C 
HETATM    9  C5  UNL     1      32.082  66.521   9.094  1.00  0.00     0.014 C 
HETATM   10  C6  UNL     1      32.647  67.092   7.825  1.00  0.00     0.001 C 
HETATM   11  C7  UNL     1      31.523  66.991   6.805  1.00  0.00     0.001 C 
HETATM   12  C8  UNL     1      30.297  67.033   7.689  1.00  0.00     0.014 C 
ENDBRANCH   5   8
ENDBRANCH   3   4
BRANCH   3  13
HETATM   13  C9  UNL     1      26.893  64.865  10.982  1.00  0.00     0.273 C 
HETATM   14  O2  UNL     1      26.343  65.947  10.683  1.00  0.00    -0.268 OA
HETATM   15  N3  UNL     1      26.159  63.640  10.788  1.00  0.00    -0.266 N 
ATOM     16  H3  UNL     1      26.585  62.745  11.029  1.00  0.00     0.190 HD
BRANCH  15  17
HETATM   17  N4  UNL     1      24.854  63.682  10.267  1.00  0.00    -0.276 N 
ATOM     18  H4  UNL     1      24.075  63.888  10.893  1.00  0.00     0.189 HD
BRANCH  17  19
HETATM   19  C10 UNL     1      24.593  63.446   8.894  1.00  0.00     0.199 C 
HETATM   20  N5  UNL     1      24.311  62.162   8.358  1.00  0.00    -0.068 NA
HETATM   21  S1  UNL     1      24.600  64.685   7.804  1.00  0.00    -0.043 SA
ENDBRANCH  17  19
ENDBRANCH  15  17
ENDBRANCH   3  13
TORSDOF 5
ENDMDL
MODEL 2
REMARK VINA RESULT: -6.870530096      2.655      3.780
REMARK  5 active torsions:
REMARK  status: ('A' for Active; 'I' for Inactive)
REMARK    1  A    between atoms: C2_3  and  N2_4 
REMARK    2  A    between atoms: C2_3  and  C9_13 
REMARK       I    between atoms: N2_4  and  C3_6 
REMARK    3  A    between atoms: C3_6  and  C4_8 
REMARK       I    between atoms: C9_13  and  N3_15 
REMARK    4  A    between atoms: N3_15  and  N4_17 
REMARK    5  A    between atoms: N4_17  and  C10_19 
ROOT
HETATM    1  N1  UNL     1      24.576  67.334   9.935  1.00  0.00    -0.195 NA
HETATM    2  C1  UNL     1      25.360  66.573   9.566  1.00  0.00     0.094 C 
HETATM    3  C2  UNL     1      26.387  65.596   9.094  1.00  0.00     0.286 C 
ENDROOT
BRANCH   3   4
HETATM    4  N2  UNL     1      27.681  66.259   9.163  1.00  0.00    -0.336 N 
HETATM    5  C3  UNL     1      28.528  66.365   8.045  1.00  0.00     0.223 C 
HETATM    6  O1  UNL     1      28.137  65.866   6.928  1.00  0.00    -0.273 OA
ATOM      7  H2  UNL     1      27.984  66.660  10.051  1.00  0.00     0.164 HD
BRANCH   5   8
HETATM    8  C4  UNL     1      29.828  67.022   8.137  1.00  0.00     0.078 C 
HETATM    9  C5  UNL     1      30.588  67.062   6.825  1.00  0.00     0.014 C 
HETATM   10  C6  UNL     1      32.049  67.068   7.170  1.00  0.00     0.001 C 
HETATM   11  C7  UNL     1      32.107  66.918   8.682  1.00  0.00     0.001 C 
HETATM   12  C8  UNL     1      30.818  66.181   8.969  1.00  0.00     0.014 C 
ENDBRANCH   5   8
ENDBRANCH   3   4
BRANCH   3  13
HETATM   13  C9  UNL     1      26.367  64.500  10.089  1.00  0.00     0.273 C 
HETATM   14  O2  UNL     1      26.722  63.349   9.753  1.00  0.00    -0.268 OA
HETATM   15  N3  UNL     1      25.947  64.723  11.449  1.00  0.00    -0.266 N 
ATOM     16  H3  UNL     1      25.648  65.652  11.747  1.00  0.00     0.190 HD
BRANCH  15  17
HETATM   17  N4  UNL     1      25.947  63.657  12.365  1.00  0.00    -0.276 N 
ATOM     18  H4  UNL     1      25.169  62.997  12.360  1.00  0.00     0.189 HD
BRANCH  17  19
HETATM   19  C10 UNL     1      27.000  63.475  13.295  1.00  0.00     0.199 C 
HETATM   20  N5  UNL     1      28.020  62.497  13.146  1.00  0.00    -0.068 NA
HETATM   21  S1  UNL     1      27.112  64.416  14.647  1.00  0.00    -0.043 SA
ENDBRANCH  17  19
ENDBRANCH  15  17
ENDBRANCH   3  13
TORSDOF 5
ENDMDL
MODEL 3
REMARK VINA RESULT: -6.802136466      1.711      1.802
REMARK  5 active torsions:
REMARK  status: ('A' for Active; 'I' for Inactive)
REMARK    1  A    between atoms: C2_3  and  N2_4 
REMARK    2  A    between atoms: C2_3  and  C9_13 
REMARK       I    between atoms: N2_4  and  C3_6 
REMARK    3  A    between atoms: C3_6  and  C4_8 
REMARK       I    between atoms: C9_13  and  N3_15 
REMARK    4  A    between atoms: N3_15  and  N4_17 
REMARK    5  A    between atoms: N4_17  and  C10_19 
ROOT
HETATM    1  N1  UNL     1      29.324  66.179  14.029  1.00  0.00    -0.195 NA
HETATM    2  C1  UNL     1      28.909  66.099  12.956  1.00  0.00     0.094 C 
HETATM    3  C2  UNL     1      28.386  65.991  11.560  1.00  0.00     0.286 C 
ENDROOT
BRANCH   3   4
HETATM    4  N2  UNL     1      29.534  66.005  10.665  1.00  0.00    -0.336 N 
HETATM    5  C3  UNL     1      29.390  65.973   9.265  1.00  0.00     0.223 C 
HETATM    6  O1  UNL     1      28.207  65.939   8.769  1.00  0.00    -0.273 OA
ATOM      7  H2  UNL     1      30.472  66.040  11.064  1.00  0.00     0.164 HD
BRANCH   5   8
HETATM    8  C4  UNL     1      30.554  65.976   8.384  1.00  0.00     0.078 C 
HETATM    9  C5  UNL     1      31.818  66.496   9.041  1.00  0.00     0.014 C 
HETATM   10  C6  UNL     1      32.656  67.102   7.952  1.00  0.00     0.001 C 
HETATM   11  C7  UNL     1      31.803  67.019   6.696  1.00  0.00     0.001 C 
HETATM   12  C8  UNL     1      30.404  67.031   7.269  1.00  0.00     0.014 C 
ENDBRANCH   5   8
ENDBRANCH   3   4
BRANCH   3  13
HETATM   13  C9  UNL     1      27.750  64.656  11.487  1.00  0.00     0.273 C 
HETATM   14  O2  UNL     1      28.401  63.639  11.814  1.00  0.00    -0.268 OA
HETATM   15  N3  UNL     1      26.389  64.492  11.044  1.00  0.00    -0.266 N 
ATOM     16  H3  UNL     1      25.840  65.306  10.767  1.00  0.00     0.190 HD
BRANCH  15  17
HETATM   17  N4  UNL     1      25.820  63.208  10.993  1.00  0.00    -0.276 N 
ATOM     18  H4  UNL     1      25.557  62.746  11.863  1.00  0.00     0.189 HD
BRANCH  17  19
HETATM   19  C10 UNL     1      25.603  62.538   9.763  1.00  0.00     0.199 C 
HETATM   20  N5  UNL     1      26.347  61.403   9.344  1.00  0.00    -0.068 NA
HETATM   21  S1  UNL     1      24.438  63.050   8.712  1.00  0.00    -0.043 SA
ENDBRANCH  17  19
ENDBRANCH  15  17
ENDBRANCH   3  13
TORSDOF 5
ENDMDL
MODEL 4
REMARK VINA RESULT: -6.731822732      2.659      6.256
REMARK  5 active torsions:
REMARK  status: ('A' for Active; 'I' for Inactive)
REMARK    1  A    between atoms: C2_3  and  N2_4 
REMARK    2  A    between atoms: C2_3  and  C9_13 
REMARK       I    between atoms: N2_4  and  C3_6 
REMARK    3  A    between atoms: C3_6  and  C4_8 
REMARK       I    between atoms: C9_13  and  N3_15 
REMARK    4  A    between atoms: N3_15  and  N4_17 
REMARK    5  A    between atoms: N4_17  and  C10_19 
ROOT
HETATM    1  N1  UNL     1      28.134  67.827  11.710  1.00  0.00    -0.195 NA
HETATM    2  C1  UNL     1      28.162  66.692  11.505  1.00  0.00     0.094 C 
HETATM    3  C2  UNL     1      28.189  65.224  11.229  1.00  0.00     0.286 C 
ENDROOT
BRANCH   3   4
HETATM    4  N2  UNL     1      27.016  64.912  10.425  1.00  0.00    -0.336 N 
HETATM    5  C3  UNL     1      26.108  63.901  10.788  1.00  0.00     0.223 C 
HETATM    6  O1  UNL     1      26.322  63.241  11.868  1.00  0.00    -0.273 OA
ATOM      7  H2  UNL     1      26.847  65.444   9.571  1.00  0.00     0.164 HD
BRANCH   5   8
HETATM    8  C4  UNL     1      24.945  63.594   9.961  1.00  0.00     0.078 C 
HETATM    9  C5  UNL     1      24.906  62.160   9.468  1.00  0.00     0.014 C 
HETATM   10  C6  UNL     1      24.168  62.170   8.160  1.00  0.00     0.001 C 
HETATM   11  C7  UNL     1      23.891  63.637   7.867  1.00  0.00     0.001 C 
HETATM   12  C8  UNL     1      25.023  64.319   8.602  1.00  0.00     0.014 C 
ENDBRANCH   5   8
ENDBRANCH   3   4
BRANCH   3  13
HETATM   13  C9  UNL     1      29.397  65.006  10.402  1.00  0.00     0.273 C 
HETATM   14  O2  UNL     1      29.588  63.894   9.863  1.00  0.00    -0.268 OA
HETATM   15  N3  UNL     1      30.369  66.049  10.196  1.00  0.00    -0.266 N 
ATOM     16  H3  UNL     1      30.237  66.964  10.629  1.00  0.00     0.190 HD
BRANCH  15  17
HETATM   17  N4  UNL     1      31.501  65.804   9.399  1.00  0.00    -0.276 N 
ATOM     18  H4  UNL     1      32.134  65.046   9.655  1.00  0.00     0.189 HD
BRANCH  17  19
HETATM   19  C10 UNL     1      31.783  66.581   8.249  1.00  0.00     0.199 C 
HETATM   20  N5  UNL     1      33.077  67.079   7.935  1.00  0.00    -0.068 NA
HETATM   21  S1  UNL     1      30.595  66.966   7.170  1.00  0.00    -0.043 SA
ENDBRANCH  17  19
ENDBRANCH  15  17
ENDBRANCH   3  13
TORSDOF 5
ENDMDL
MODEL 5
REMARK VINA RESULT: -6.681845115      2.136      2.260
REMARK  5 active torsions:
REMARK  status: ('A' for Active; 'I' for Inactive)
REMARK    1  A    between atoms: C2_3  and  N2_4 
REMARK    2  A    between atoms: C2_3  and  C9_13 
REMARK       I    between atoms: N2_4  and  C3_6 
REMARK    3  A    between atoms: C3_6  and  C4_8 
REMARK       I    between atoms: C9_13  and  N3_15 
REMARK    4  A    between atoms: N3_15  and  N4_17 
REMARK    5  A    between atoms: N4_17  and  C10_19 
ROOT
HETATM    1  N1  UNL     1      27.766  62.496  11.670  1.00  0.00    -0.195 NA
HETATM    2  C1  UNL     1      27.906  63.574  11.286  1.00  0.00     0.094 C 
HETATM    3  C2  UNL     1      28.096  64.966  10.777  1.00  0.00     0.286 C 
ENDROOT
BRANCH   3   4
HETATM    4  N2  UNL     1      29.220  64.940   9.852  1.00  0.00    -0.336 N 
HETATM    5  C3  UNL     1      29.861  66.116   9.421  1.00  0.00     0.223 C 
HETATM    6  O1  UNL     1      29.441  67.244   9.867  1.00  0.00    -0.273 OA
ATOM      7  H2  UNL     1      29.555  64.041   9.506  1.00  0.00     0.164 HD
BRANCH   5   8
HETATM    8  C4  UNL     1      30.979  66.071   8.483  1.00  0.00     0.078 C 
HETATM    9  C5  UNL     1      32.279  66.601   9.055  1.00  0.00     0.014 C 
HETATM   10  C6  UNL     1      33.067  67.154   7.903  1.00  0.00     0.001 C 
HETATM   11  C7  UNL     1      32.151  67.033   6.695  1.00  0.00     0.001 C 
HETATM   12  C8  UNL     1      30.783  67.084   7.337  1.00  0.00     0.014 C 
ENDBRANCH   5   8
ENDBRANCH   3   4
BRANCH   3  13
HETATM   13  C9  UNL     1      26.866  65.271  10.012  1.00  0.00     0.273 C 
HETATM   14  O2  UNL     1      26.228  64.343   9.467  1.00  0.00    -0.268 OA
HETATM   15  N3  UNL     1      26.377  66.619   9.875  1.00  0.00    -0.266 N 
ATOM     16  H3  UNL     1      26.882  67.393  10.307  1.00  0.00     0.190 HD
BRANCH  15  17
HETATM   17  N4  UNL     1      25.202  66.866   9.144  1.00  0.00    -0.276 N 
ATOM     18  H4  UNL     1      25.236  66.843   8.125  1.00  0.00     0.189 HD
BRANCH  17  19
HETATM   19  C10 UNL     1      23.971  67.146   9.787  1.00  0.00     0.199 C 
HETATM   20  N5  UNL     1      22.815  66.329   9.662  1.00  0.00    -0.068 NA
HETATM   21  S1  UNL     1      23.798  68.475  10.750  1.00  0.00    -0.043 SA
ENDBRANCH  17  19
ENDBRANCH  15  17
ENDBRANCH   3  13
TORSDOF 5
ENDMDL
