MODEL 1
REMARK VINA RESULT: -6.227826764      0.000      0.000
REMARK  5 active torsions:
REMARK  status: ('A' for Active; 'I' for Inactive)
REMARK    1  A    between atoms: N1_2  and  C2_4 
REMARK    2  A    between atoms: N2_5  and  N3_7 
REMARK       I    between atoms: N3_7  and  C3_9 
REMARK       I    between atoms: C3_9  and  N5_13 
REMARK    3  A    between atoms: N5_13  and  C4_15 
REMARK    4  A    between atoms: C4_15  and  C5_16 
REMARK    5  A    between atoms: C5_16  and  O2_18 
ROOT
HETATM    1  N3  UNL     1      28.676  64.224  11.911  1.00  0.00    -0.132 N 
ATOM      2  H3  UNL     1      28.517  64.846  12.704  1.00  0.00     0.205 HD
HETATM    3  C3  UNL     1      27.677  63.273  11.576  1.00  0.00     0.688 C 
HETATM    4  N4  UNL     1      28.128  62.121  11.184  1.00  0.00    -0.234 N 
ATOM      5  H41 UNL     1      27.410  61.437  10.943  1.00  0.00     0.174 HD
ATOM      6  H42 UNL     1      29.141  62.006  11.154  1.00  0.00     0.174 HD
HETATM    7  N5  UNL     1      26.295  63.430  11.618  1.00  0.00    -0.180 N 
ATOM      8  H5  UNL     1      25.775  62.802  12.230  1.00  0.00     0.181 HD
ENDROOT
BRANCH   7   9
HETATM    9  C4  UNL     1      25.519  64.418  10.861  1.00  0.00     0.307 C 
HETATM   10  C7  UNL     1      24.021  64.299  11.041  1.00  0.00     0.082 C 
HETATM   11  C8  UNL     1      23.914  64.182  12.544  1.00  0.00     0.039 C 
HETATM   12  C11 UNL     1      24.045  65.790  10.943  1.00  0.00     0.250 C 
HETATM   13  C9  UNL     1      24.964  65.238  12.889  1.00  0.00     0.241 C 
HETATM   14  N6  UNL     1      25.357  65.657  11.551  1.00  0.00    -0.033 N 
HETATM   15  C10 UNL     1      26.260  66.709  11.403  1.00  0.00     0.276 C 
BRANCH   9  16
HETATM   16  C5  UNL     1      25.912  64.456   9.441  1.00  0.00     0.317 C 
HETATM   17  O1  UNL     1      25.432  63.588   8.665  1.00  0.00    -0.260 OA
BRANCH  16  18
HETATM   18  O2  UNL     1      26.765  65.354   8.841  1.00  0.00    -0.323 OA
HETATM   19  C6  UNL     1      26.447  66.151   7.735  1.00  0.00     0.213 C 
ENDBRANCH  16  18
ENDBRANCH   9  16
ENDBRANCH   7   9
BRANCH   1  20
HETATM   20  N2  UNL     1      29.873  64.339  11.191  1.00  0.00    -0.282 N 
HETATM   21  C2  UNL     1      29.966  65.091  10.137  1.00  0.00     0.193 C 
ATOM     22  H2  UNL     1      30.692  63.817  11.503  1.00  0.00     0.188 HD
BRANCH  21  23
HETATM   23  N1  UNL     1      31.183  65.203   9.410  1.00  0.00    -0.389 N 
HETATM   24  C1  UNL     1      31.708  66.499   8.986  1.00  0.00     0.147 C 
ATOM     25  H1  UNL     1      31.702  64.356   9.178  1.00  0.00     0.159 HD
ENDBRANCH  21  23
ENDBRANCH   1  20
TORSDOF 5
ENDMDL
MODEL 2
REMARK VINA RESULT: -6.195302533      1.538      1.986
REMARK  5 active torsions:
REMARK  status: ('A' for Active; 'I' for Inactive)
REMARK    1  A    between atoms: N1_2  and  C2_4 
REMARK    2  A    between atoms: N2_5  and  N3_7 
REMARK       I    between atoms: N3_7  and  C3_9 
REMARK       I    between atoms: C3_9  and  N5_13 
REMARK    3  A    between atoms: N5_13  and  C4_15 
REMARK    4  A    between atoms: C4_15  and  C5_16 
REMARK    5  A    between atoms: C5_16  and  O2_18 
ROOT
HETATM    1  N3  UNL     1      29.249  65.768  11.069  1.00  0.00    -0.132 N 
ATOM      2  H3  UNL     1      28.925  66.726  11.201  1.00  0.00     0.205 HD
HETATM    3  C3  UNL     1      28.767  64.754  11.938  1.00  0.00     0.688 C 
HETATM    4  N4  UNL     1      29.643  63.858  12.273  1.00  0.00    -0.234 N 
ATOM      5  H41 UNL     1      29.296  63.129  12.897  1.00  0.00     0.174 HD
ATOM      6  H42 UNL     1      30.581  63.961  11.888  1.00  0.00     0.174 HD
HETATM    7  N5  UNL     1      27.486  64.614  12.463  1.00  0.00    -0.180 N 
ATOM      8  H5  UNL     1      27.396  64.628  13.479  1.00  0.00     0.181 HD
ENDROOT
BRANCH   7   9
HETATM    9  C4  UNL     1      26.252  64.448  11.687  1.00  0.00     0.307 C 
HETATM   10  C7  UNL     1      25.121  63.798  12.454  1.00  0.00     0.082 C 
HETATM   11  C8  UNL     1      25.152  64.583  13.746  1.00  0.00     0.039 C 
HETATM   12  C11 UNL     1      24.256  64.723  11.661  1.00  0.00     0.250 C 
HETATM   13  C9  UNL     1      25.385  65.959  13.122  1.00  0.00     0.241 C 
HETATM   14  N6  UNL     1      25.411  65.602  11.710  1.00  0.00    -0.033 N 
HETATM   15  C10 UNL     1      25.513  66.609  10.753  1.00  0.00     0.276 C 
BRANCH   9  16
HETATM   16  C5  UNL     1      26.501  63.792  10.391  1.00  0.00     0.317 C 
HETATM   17  O1  UNL     1      27.013  64.474   9.465  1.00  0.00    -0.260 OA
BRANCH  16  18
HETATM   18  O2  UNL     1      26.233  62.483  10.061  1.00  0.00    -0.323 OA
HETATM   19  C6  UNL     1      25.170  62.057   9.257  1.00  0.00     0.213 C 
ENDBRANCH  16  18
ENDBRANCH   9  16
ENDBRANCH   7   9
BRANCH   1  20
HETATM   20  N2  UNL     1      30.156  65.498  10.035  1.00  0.00    -0.282 N 
HETATM   21  C2  UNL     1      30.608  66.438   9.260  1.00  0.00     0.193 C 
ATOM     22  H2  UNL     1      30.468  64.539   9.886  1.00  0.00     0.188 HD
BRANCH  21  23
HETATM   23  N1  UNL     1      31.527  66.158   8.212  1.00  0.00    -0.389 N 
HETATM   24  C1  UNL     1      32.759  66.926   8.045  1.00  0.00     0.147 C 
ATOM     25  H1  UNL     1      31.320  65.402   7.559  1.00  0.00     0.159 HD
ENDBRANCH  21  23
ENDBRANCH   1  20
TORSDOF 5
ENDMDL
MODEL 3
REMARK VINA RESULT: -6.172987934      1.265      1.467
REMARK  5 active torsions:
REMARK  status: ('A' for Active; 'I' for Inactive)
REMARK    1  A    between atoms: N1_2  and  C2_4 
REMARK    2  A    between atoms: N2_5  and  N3_7 
REMARK       I    between atoms: N3_7  and  C3_9 
REMARK       I    between atoms: C3_9  and  N5_13 
REMARK    3  A    between atoms: N5_13  and  C4_15 
REMARK    4  A    between atoms: C4_15  and  C5_16 
REMARK    5  A    between atoms: C5_16  and  O2_18 
ROOT
HETATM    1  N3  UNL     1      29.405  65.925  11.004  1.00  0.00    -0.132 N 
ATOM      2  H3  UNL     1      29.167  66.894  11.215  1.00  0.00     0.205 HD
HETATM    3  C3  UNL     1      28.795  64.890  11.760  1.00  0.00     0.688 C 
HETATM    4  N4  UNL     1      29.568  63.886  12.038  1.00  0.00    -0.234 N 
ATOM      5  H41 UNL     1      29.130  63.142  12.581  1.00  0.00     0.174 HD
ATOM      6  H42 UNL     1      30.527  63.931  11.694  1.00  0.00     0.174 HD
HETATM    7  N5  UNL     1      27.486  64.829  12.230  1.00  0.00    -0.180 N 
ATOM      8  H5  UNL     1      27.358  64.761  13.240  1.00  0.00     0.181 HD
ENDROOT
BRANCH   7   9
HETATM    9  C4  UNL     1      26.274  64.853  11.405  1.00  0.00     0.307 C 
HETATM   10  C7  UNL     1      25.164  63.958  11.908  1.00  0.00     0.082 C 
HETATM   11  C8  UNL     1      25.137  64.318  13.376  1.00  0.00     0.039 C 
HETATM   12  C11 UNL     1      24.269  65.042  11.404  1.00  0.00     0.250 C 
HETATM   13  C9  UNL     1      25.314  65.826  13.200  1.00  0.00     0.241 C 
HETATM   14  N6  UNL     1      25.380  65.911  11.748  1.00  0.00    -0.033 N 
HETATM   15  C10 UNL     1      25.448  67.163  11.140  1.00  0.00     0.276 C 
BRANCH   9  16
HETATM   16  C5  UNL     1      26.575  64.628   9.980  1.00  0.00     0.317 C 
HETATM   17  O1  UNL     1      26.294  63.507   9.480  1.00  0.00    -0.260 OA
BRANCH  16  18
HETATM   18  O2  UNL     1      27.141  65.523   9.101  1.00  0.00    -0.323 OA
HETATM   19  C6  UNL     1      26.526  66.014   7.944  1.00  0.00     0.213 C 
ENDBRANCH  16  18
ENDBRANCH   9  16
ENDBRANCH   7   9
BRANCH   1  20
HETATM   20  N2  UNL     1      30.322  65.661   9.978  1.00  0.00    -0.282 N 
HETATM   21  C2  UNL     1      30.601  66.545   9.068  1.00  0.00     0.193 C 
ATOM     22  H2  UNL     1      30.783  64.752   9.945  1.00  0.00     0.188 HD
BRANCH  21  23
HETATM   23  N1  UNL     1      31.532  66.271   8.028  1.00  0.00    -0.389 N 
HETATM   24  C1  UNL     1      32.827  66.945   7.961  1.00  0.00     0.147 C 
ATOM     25  H1  UNL     1      31.289  65.588   7.312  1.00  0.00     0.159 HD
ENDBRANCH  21  23
ENDBRANCH   1  20
TORSDOF 5
ENDMDL
MODEL 4
REMARK VINA RESULT: -5.975732348      1.906      2.532
REMARK  5 active torsions:
REMARK  status: ('A' for Active; 'I' for Inactive)
REMARK    1  A    between atoms: N1_2  and  C2_4 
REMARK    2  A    between atoms: N2_5  and  N3_7 
REMARK       I    between atoms: N3_7  and  C3_9 
REMARK       I    between atoms: C3_9  and  N5_13 
REMARK    3  A    between atoms: N5_13  and  C4_15 
REMARK    4  A    between atoms: C4_15  and  C5_16 
REMARK    5  A    between atoms: C5_16  and  O2_18 
ROOT
HETATM    1  N3  UNL     1      28.527  66.200   9.838  1.00  0.00    -0.132 N 
ATOM      2  H3  UNL     1      28.033  67.027  10.171  1.00  0.00     0.205 HD
HETATM    3  C3  UNL     1      28.697  65.101  10.720  1.00  0.00     0.688 C 
HETATM    4  N4  UNL     1      29.839  64.494  10.625  1.00  0.00    -0.234 N 
ATOM      5  H41 UNL     1      29.961  63.704  11.259  1.00  0.00     0.174 HD
ATOM      6  H42 UNL     1      30.499  64.854   9.936  1.00  0.00     0.174 HD
HETATM    7  N5  UNL     1      27.796  64.609  11.660  1.00  0.00    -0.180 N 
ATOM      8  H5  UNL     1      28.096  64.609  12.635  1.00  0.00     0.181 HD
ENDROOT
BRANCH   7   9
HETATM    9  C4  UNL     1      26.453  64.091  11.376  1.00  0.00     0.307 C 
HETATM   10  C7  UNL     1      25.728  63.551  12.588  1.00  0.00     0.082 C 
HETATM   11  C8  UNL     1      25.959  64.660  13.589  1.00  0.00     0.039 C 
HETATM   12  C11 UNL     1      24.515  64.112  11.922  1.00  0.00     0.250 C 
HETATM   13  C9  UNL     1      25.737  65.827  12.628  1.00  0.00     0.241 C 
HETATM   14  N6  UNL     1      25.443  65.099  11.401  1.00  0.00    -0.033 N 
HETATM   15  C10 UNL     1      25.077  65.807  10.258  1.00  0.00     0.276 C 
BRANCH   9  16
HETATM   16  C5  UNL     1      26.459  63.136  10.253  1.00  0.00     0.317 C 
HETATM   17  O1  UNL     1      27.232  62.145  10.317  1.00  0.00    -0.260 OA
BRANCH  16  18
HETATM   18  O2  UNL     1      25.697  63.199   9.109  1.00  0.00    -0.323 OA
HETATM   19  C6  UNL     1      24.615  62.360   8.816  1.00  0.00     0.213 C 
ENDBRANCH  16  18
ENDBRANCH   9  16
ENDBRANCH   7   9
BRANCH   1  20
HETATM   20  N2  UNL     1      29.013  66.186   8.523  1.00  0.00    -0.282 N 
HETATM   21  C2  UNL     1      29.701  67.175   8.040  1.00  0.00     0.193 C 
ATOM     22  H2  UNL     1      28.821  65.378   7.931  1.00  0.00     0.188 HD
BRANCH  21  23
HETATM   23  N1  UNL     1      30.191  67.156   6.705  1.00  0.00    -0.389 N 
HETATM   24  C1  UNL     1      31.552  66.722   6.393  1.00  0.00     0.147 C 
ATOM     25  H1  UNL     1      29.578  67.452   5.946  1.00  0.00     0.159 HD
ENDBRANCH  21  23
ENDBRANCH   1  20
TORSDOF 5
ENDMDL
MODEL 5
REMARK VINA RESULT: -5.941056592      2.377      3.610
REMARK  5 active torsions:
REMARK  status: ('A' for Active; 'I' for Inactive)
REMARK    1  A    between atoms: N1_2  and  C2_4 
REMARK    2  A    between atoms: N2_5  and  N3_7 
REMARK       I    between atoms: N3_7  and  C3_9 
REMARK       I    between atoms: C3_9  and  N5_13 
REMARK    3  A    between atoms: N5_13  and  C4_15 
REMARK    4  A    between atoms: C4_15  and  C5_16 
REMARK    5  A    between atoms: C5_16  and  O2_18 
ROOT
HETATM    1  N3  UNL     1      28.197  66.178   8.912  1.00  0.00    -0.132 N 
ATOM      2  H3  UNL     1      27.392  65.813   8.403  1.00  0.00     0.205 HD
HETATM    3  C3  UNL     1      28.043  66.524  10.281  1.00  0.00     0.688 C 
HETATM    4  N4  UNL     1      28.691  67.584  10.653  1.00  0.00    -0.234 N 
ATOM      5  H41 UNL     1      28.580  67.833  11.637  1.00  0.00     0.174 HD
ATOM      6  H42 UNL     1      29.243  68.063   9.942  1.00  0.00     0.174 HD
HETATM    7  N5  UNL     1      27.289  65.870  11.251  1.00  0.00    -0.180 N 
ATOM      8  H5  UNL     1      26.544  66.404  11.698  1.00  0.00     0.181 HD
ENDROOT
BRANCH   7   9
HETATM    9  C4  UNL     1      27.470  64.481  11.688  1.00  0.00     0.307 C 
HETATM   10  C7  UNL     1      28.738  64.240  12.476  1.00  0.00     0.082 C 
HETATM   11  C8  UNL     1      28.697  65.388  13.460  1.00  0.00     0.039 C 
HETATM   12  C11 UNL     1      27.897  63.272  13.241  1.00  0.00     0.250 C 
HETATM   13  C9  UNL     1      27.202  65.315  13.768  1.00  0.00     0.241 C 
HETATM   14  N6  UNL     1      26.819  64.191  12.925  1.00  0.00    -0.033 N 
HETATM   15  C10 UNL     1      25.510  63.713  12.976  1.00  0.00     0.276 C 
BRANCH   9  16
HETATM   16  C5  UNL     1      27.312  63.529  10.575  1.00  0.00     0.317 C 
HETATM   17  O1  UNL     1      28.190  62.641  10.420  1.00  0.00    -0.260 OA
BRANCH  16  18
HETATM   18  O2  UNL     1      26.287  63.491   9.657  1.00  0.00    -0.323 OA
HETATM   19  C6  UNL     1      25.354  62.454   9.534  1.00  0.00     0.213 C 
ENDBRANCH  16  18
ENDBRANCH   9  16
ENDBRANCH   7   9
BRANCH   1  20
HETATM   20  N2  UNL     1      29.417  66.319   8.238  1.00  0.00    -0.282 N 
HETATM   21  C2  UNL     1      29.517  67.018   7.147  1.00  0.00     0.193 C 
ATOM     22  H2  UNL     1      30.247  65.862   8.612  1.00  0.00     0.188 HD
BRANCH  21  23
HETATM   23  N1  UNL     1      30.758  67.157   6.466  1.00  0.00    -0.389 N 
HETATM   24  C1  UNL     1      32.033  67.117   7.179  1.00  0.00     0.147 C 
ATOM     25  H1  UNL     1      30.757  67.288   5.455  1.00  0.00     0.159 HD
ENDBRANCH  21  23
ENDBRANCH   1  20
TORSDOF 5
ENDMDL
