MODEL 1
REMARK VINA RESULT: -8.992236396      0.000      0.000
REMARK  12 active torsions:
REMARK  status: ('A' for Active; 'I' for Inactive)
REMARK    1  A    between atoms: C2_2  and  C3_3 
REMARK    2  A    between atoms: C3_3  and  O1_4 
REMARK    3  A    between atoms: O1_4  and  C4_5 
REMARK    4  A    between atoms: C6_7  and  N1_8 
REMARK       I    between atoms: N1_8  and  C7_10 
REMARK    5  A    between atoms: C11_17  and  N3_18 
REMARK    6  A    between atoms: N4_21  and  C14_22 
REMARK    7  A    between atoms: C14_22  and  C15_23 
REMARK    8  A    between atoms: C15_23  and  C16_24 
REMARK    9  A    between atoms: C16_24  and  N5_25 
REMARK       I    between atoms: N5_25  and  C17_27 
REMARK   10  A    between atoms: C17_27  and  C18_29 
REMARK   11  A    between atoms: C18_29  and  N6_30 
REMARK   12  A    between atoms: C20_33  and  N7_35 
ROOT
HETATM    1  N3  UNL     1      18.991  22.948  20.050  1.00  0.00    -0.355 N 
HETATM    2  C12 UNL     1      20.073  22.095  20.413  1.00  0.00     0.169 C 
HETATM    3  C13 UNL     1      21.373  22.838  20.167  1.00  0.00     0.083 C 
HETATM    4  N4  UNL     1      21.436  24.137  20.682  1.00  0.00    -0.371 N 
HETATM    5  C25 UNL     1      20.226  24.689  21.235  1.00  0.00     0.147 C 
HETATM    6  C26 UNL     1      19.031  24.326  20.410  1.00  0.00     0.145 C 
ENDROOT
BRANCH   4   7
HETATM    7  C14 UNL     1      22.617  24.547  21.290  1.00  0.00     0.065 C 
BRANCH   7   8
HETATM    8  C15 UNL     1      23.245  25.846  21.011  1.00  0.00     0.064 C 
BRANCH   8   9
HETATM    9  C16 UNL     1      23.776  26.106  19.643  1.00  0.00     0.128 C 
BRANCH   9  10
HETATM   10  N5  UNL     1      22.929  26.955  18.859  1.00  0.00    -0.359 N 
HETATM   11  C17 UNL     1      23.110  27.121  17.471  1.00  0.00     0.235 C 
HETATM   12  O3  UNL     1      24.027  26.545  16.842  1.00  0.00    -0.272 OA
ATOM     13  H5  UNL     1      22.169  27.456  19.321  1.00  0.00     0.162 HD
BRANCH  11  14
HETATM   14  C18 UNL     1      22.203  28.007  16.673  1.00  0.00     0.229 C 
BRANCH  14  15
HETATM   15  N6  UNL     1      21.291  27.210  15.875  1.00  0.00    -0.337 N 
HETATM   16  C19 UNL     1      20.266  26.421  16.479  1.00  0.00     0.256 C 
HETATM   17  O4  UNL     1      20.040  26.292  17.728  1.00  0.00    -0.271 OA
HETATM   18  C20 UNL     1      19.502  25.768  15.405  1.00  0.00     0.201 C 
HETATM   19  C21 UNL     1      20.074  24.398  15.138  1.00  0.00     0.056 C 
HETATM   20  C22 UNL     1      19.794  26.627  14.203  1.00  0.00     0.073 C 
HETATM   21  C23 UNL     1      21.227  27.058  14.453  1.00  0.00     0.086 C 
HETATM   22  C24 UNL     1      21.494  28.324  13.688  1.00  0.00     0.032 C 
BRANCH  18  23
HETATM   23  N7  UNL     1      18.082  25.706  15.698  1.00  0.00    -0.062 N 
ATOM     24  H73 UNL     1      17.879  26.096  16.619  1.00  0.00     0.275 HD
ATOM     25  H72 UNL     1      17.558  26.365  15.123  1.00  0.00     0.275 HD
ATOM     26  H71 UNL     1      17.709  24.761  15.608  1.00  0.00     0.275 HD
ENDBRANCH  18  23
ENDBRANCH  14  15
ENDBRANCH  11  14
ENDBRANCH   9  10
ENDBRANCH   8   9
ENDBRANCH   7   8
ENDBRANCH   4   7
BRANCH   1  27
HETATM   27  C11 UNL     1      17.860  22.450  19.322  1.00  0.00     0.148 A 
HETATM   28  N2  UNL     1      17.242  21.297  19.429  1.00  0.00    -0.335 N 
HETATM   29  C10 UNL     1      16.217  21.025  18.675  1.00  0.00     0.056 A 
ATOM     30  H2  UNL     1      17.567  20.610  20.109  1.00  0.00     0.168 HD
HETATM   31  C9  UNL     1      15.472  19.837  18.687  1.00  0.00     0.060 A 
HETATM   32  C27 UNL     1      15.819  21.980  17.782  1.00  0.00     0.068 A 
HETATM   33  C6  UNL     1      14.412  19.648  17.856  1.00  0.00     0.039 A 
HETATM   34  C5  UNL     1      14.015  20.614  16.958  1.00  0.00     0.067 A 
HETATM   35  C4  UNL     1      14.735  21.794  16.927  1.00  0.00     0.090 A 
HETATM   36  S1  UNL     1      16.949  23.223  18.078  1.00  0.00    -0.049 SA
BRANCH  33  37
HETATM   37  N1  UNL     1      13.734  18.385  17.941  1.00  0.00    -0.327 N 
HETATM   38  C7  UNL     1      12.472  18.148  18.482  1.00  0.00     0.218 C 
HETATM   39  C8  UNL     1      11.969  16.719  18.464  1.00  0.00     0.117 C 
HETATM   40  O2  UNL     1      11.706  19.014  18.988  1.00  0.00    -0.274 OA
ATOM     41  H1  UNL     1      14.228  17.575  17.567  1.00  0.00     0.169 HD
ENDBRANCH  33  37
BRANCH  35  42
HETATM   42  O1  UNL     1      14.455  22.846  16.084  1.00  0.00    -0.350 OA
BRANCH  42  43
HETATM   43  C3  UNL     1      14.340  22.809  14.697  1.00  0.00     0.175 C 
BRANCH  43  44
HETATM   44  C2  UNL     1      15.563  22.101  14.132  1.00  0.00     0.022 C 
HETATM   45  C1  UNL     1      15.403  21.691  12.706  1.00  0.00     0.007 C 
ENDBRANCH  43  44
ENDBRANCH  42  43
ENDBRANCH  35  42
ENDBRANCH   1  27
TORSDOF 12
ENDMDL
MODEL 2
REMARK VINA RESULT: -8.808976751      2.020      4.997
REMARK  12 active torsions:
REMARK  status: ('A' for Active; 'I' for Inactive)
REMARK    1  A    between atoms: C2_2  and  C3_3 
REMARK    2  A    between atoms: C3_3  and  O1_4 
REMARK    3  A    between atoms: O1_4  and  C4_5 
REMARK    4  A    between atoms: C6_7  and  N1_8 
REMARK       I    between atoms: N1_8  and  C7_10 
REMARK    5  A    between atoms: C11_17  and  N3_18 
REMARK    6  A    between atoms: N4_21  and  C14_22 
REMARK    7  A    between atoms: C14_22  and  C15_23 
REMARK    8  A    between atoms: C15_23  and  C16_24 
REMARK    9  A    between atoms: C16_24  and  N5_25 
REMARK       I    between atoms: N5_25  and  C17_27 
REMARK   10  A    between atoms: C17_27  and  C18_29 
REMARK   11  A    between atoms: C18_29  and  N6_30 
REMARK   12  A    between atoms: C20_33  and  N7_35 
ROOT
HETATM    1  N3  UNL     1      18.421  24.524  15.497  1.00  0.00    -0.355 N 
HETATM    2  C12 UNL     1      19.762  24.089  15.704  1.00  0.00     0.169 C 
HETATM    3  C13 UNL     1      20.638  24.708  14.631  1.00  0.00     0.083 C 
HETATM    4  N4  UNL     1      20.477  26.083  14.435  1.00  0.00    -0.371 N 
HETATM    5  C25 UNL     1      19.401  26.730  15.140  1.00  0.00     0.147 C 
HETATM    6  C26 UNL     1      18.167  25.883  15.155  1.00  0.00     0.145 C 
ENDROOT
BRANCH   4   7
HETATM    7  C14 UNL     1      21.615  26.856  14.235  1.00  0.00     0.065 C 
BRANCH   7   8
HETATM    8  C15 UNL     1      22.030  27.916  15.165  1.00  0.00     0.064 C 
BRANCH   8   9
HETATM    9  C16 UNL     1      23.073  27.607  16.184  1.00  0.00     0.128 C 
BRANCH   9  10
HETATM   10  N5  UNL     1      22.568  27.595  17.524  1.00  0.00    -0.359 N 
HETATM   11  C17 UNL     1      23.104  26.754  18.521  1.00  0.00     0.235 C 
HETATM   12  O3  UNL     1      24.047  25.962  18.292  1.00  0.00    -0.272 OA
ATOM     13  H5  UNL     1      21.795  28.215  17.766  1.00  0.00     0.162 HD
BRANCH  11  14
HETATM   14  C18 UNL     1      22.564  26.768  19.919  1.00  0.00     0.229 C 
BRANCH  14  15
HETATM   15  N6  UNL     1      21.843  25.541  20.195  1.00  0.00    -0.337 N 
HETATM   16  C19 UNL     1      20.658  25.193  19.478  1.00  0.00     0.256 C 
HETATM   17  O4  UNL     1      20.088  25.884  18.568  1.00  0.00    -0.271 OA
HETATM   18  C20 UNL     1      20.194  23.887  19.970  1.00  0.00     0.201 C 
HETATM   19  C21 UNL     1      19.185  24.091  21.072  1.00  0.00     0.056 C 
HETATM   20  C22 UNL     1      21.432  23.293  20.588  1.00  0.00     0.073 C 
HETATM   21  C23 UNL     1      22.132  24.515  21.151  1.00  0.00     0.086 C 
HETATM   22  C24 UNL     1      23.597  24.211  21.299  1.00  0.00     0.032 C 
BRANCH  18  23
HETATM   23  N7  UNL     1      19.663  23.055  18.907  1.00  0.00    -0.062 N 
ATOM     24  H73 UNL     1      19.149  23.613  18.224  1.00  0.00     0.275 HD
ATOM     25  H72 UNL     1      20.409  22.707  18.304  1.00  0.00     0.275 HD
ATOM     26  H71 UNL     1      19.090  22.290  19.263  1.00  0.00     0.275 HD
ENDBRANCH  18  23
ENDBRANCH  14  15
ENDBRANCH  11  14
ENDBRANCH   9  10
ENDBRANCH   8   9
ENDBRANCH   7   8
ENDBRANCH   4   7
BRANCH   1  27
HETATM   27  C11 UNL     1      17.316  23.618  15.621  1.00  0.00     0.148 A 
HETATM   28  N2  UNL     1      16.733  22.884  14.702  1.00  0.00    -0.335 N 
HETATM   29  C10 UNL     1      15.732  22.110  15.012  1.00  0.00     0.056 A 
ATOM     30  H2  UNL     1      17.066  22.920  13.739  1.00  0.00     0.168 HD
HETATM   31  C9  UNL     1      15.025  21.281  14.131  1.00  0.00     0.060 A 
HETATM   32  C27 UNL     1      15.326  22.096  16.315  1.00  0.00     0.068 A 
HETATM   33  C6  UNL     1      13.990  20.505  14.553  1.00  0.00     0.039 A 
HETATM   34  C5  UNL     1      13.584  20.495  15.868  1.00  0.00     0.067 A 
HETATM   35  C4  UNL     1      14.266  21.306  16.756  1.00  0.00     0.090 A 
HETATM   36  S1  UNL     1      16.409  23.205  17.029  1.00  0.00    -0.049 SA
BRANCH  33  37
HETATM   37  N1  UNL     1      13.324  19.709  13.560  1.00  0.00    -0.327 N 
HETATM   38  C7  UNL     1      11.976  19.759  13.215  1.00  0.00     0.218 C 
HETATM   39  C8  UNL     1      11.503  18.809  12.133  1.00  0.00     0.117 C 
HETATM   40  O2  UNL     1      11.107  20.522  13.721  1.00  0.00    -0.274 OA
ATOM     41  H1  UNL     1      13.900  19.036  13.053  1.00  0.00     0.169 HD
ENDBRANCH  33  37
BRANCH  35  42
HETATM   42  O1  UNL     1      13.973  21.398  18.099  1.00  0.00    -0.350 OA
BRANCH  42  43
HETATM   43  C3  UNL     1      14.172  20.425  19.074  1.00  0.00     0.175 C 
BRANCH  43  44
HETATM   44  C2  UNL     1      15.059  21.010  20.164  1.00  0.00     0.022 C 
HETATM   45  C1  UNL     1      16.507  21.028  19.801  1.00  0.00     0.007 C 
ENDBRANCH  43  44
ENDBRANCH  42  43
ENDBRANCH  35  42
ENDBRANCH   1  27
TORSDOF 12
ENDMDL
MODEL 3
REMARK VINA RESULT: -8.768342516      2.342     10.605
REMARK  12 active torsions:
REMARK  status: ('A' for Active; 'I' for Inactive)
REMARK    1  A    between atoms: C2_2  and  C3_3 
REMARK    2  A    between atoms: C3_3  and  O1_4 
REMARK    3  A    between atoms: O1_4  and  C4_5 
REMARK    4  A    between atoms: C6_7  and  N1_8 
REMARK       I    between atoms: N1_8  and  C7_10 
REMARK    5  A    between atoms: C11_17  and  N3_18 
REMARK    6  A    between atoms: N4_21  and  C14_22 
REMARK    7  A    between atoms: C14_22  and  C15_23 
REMARK    8  A    between atoms: C15_23  and  C16_24 
REMARK    9  A    between atoms: C16_24  and  N5_25 
REMARK       I    between atoms: N5_25  and  C17_27 
REMARK   10  A    between atoms: C17_27  and  C18_29 
REMARK   11  A    between atoms: C18_29  and  N6_30 
REMARK   12  A    between atoms: C20_33  and  N7_35 
ROOT
HETATM    1  N3  UNL     1      15.213  22.748  15.005  1.00  0.00    -0.355 N 
HETATM    2  C12 UNL     1      15.305  21.733  14.010  1.00  0.00     0.169 C 
HETATM    3  C13 UNL     1      14.243  20.687  14.290  1.00  0.00     0.083 C 
HETATM    4  N4  UNL     1      12.955  21.179  14.527  1.00  0.00    -0.371 N 
HETATM    5  C25 UNL     1      12.803  22.606  14.644  1.00  0.00     0.147 C 
HETATM    6  C26 UNL     1      13.931  23.216  15.415  1.00  0.00     0.145 C 
ENDROOT
BRANCH   4   7
HETATM    7  C14 UNL     1      11.879  20.504  13.961  1.00  0.00     0.065 C 
BRANCH   7   8
HETATM    8  C15 UNL     1      11.896  19.057  13.701  1.00  0.00     0.064 C 
BRANCH   8   9
HETATM    9  C16 UNL     1      11.204  18.149  14.659  1.00  0.00     0.128 C 
BRANCH   9  10
HETATM   10  N5  UNL     1      11.133  18.677  15.988  1.00  0.00    -0.359 N 
HETATM   11  C17 UNL     1      11.262  17.860  17.129  1.00  0.00     0.235 C 
HETATM   12  O3  UNL     1      11.438  16.622  17.049  1.00  0.00    -0.272 OA
ATOM     13  H5  UNL     1      10.983  19.678  16.113  1.00  0.00     0.162 HD
BRANCH  11  14
HETATM   14  C18 UNL     1      11.194  18.440  18.509  1.00  0.00     0.229 C 
BRANCH  14  15
HETATM   15  N6  UNL     1      12.513  18.849  18.952  1.00  0.00    -0.337 N 
HETATM   16  C19 UNL     1      13.108  20.066  18.501  1.00  0.00     0.256 C 
HETATM   17  O4  UNL     1      12.604  20.899  17.675  1.00  0.00    -0.271 OA
HETATM   18  C20 UNL     1      14.418  20.203  19.154  1.00  0.00     0.201 C 
HETATM   19  C21 UNL     1      15.490  19.624  18.265  1.00  0.00     0.056 C 
HETATM   20  C22 UNL     1      14.295  19.312  20.362  1.00  0.00     0.073 C 
HETATM   21  C23 UNL     1      13.414  18.188  19.847  1.00  0.00     0.086 C 
HETATM   22  C24 UNL     1      12.740  17.525  21.016  1.00  0.00     0.032 C 
BRANCH  18  23
HETATM   23  N7  UNL     1      14.711  21.576  19.519  1.00  0.00    -0.062 N 
ATOM     24  H73 UNL     1      13.857  22.132  19.578  1.00  0.00     0.275 HD
ATOM     25  H72 UNL     1      15.015  21.643  20.490  1.00  0.00     0.275 HD
ATOM     26  H71 UNL     1      15.388  22.008  18.891  1.00  0.00     0.275 HD
ENDBRANCH  18  23
ENDBRANCH  14  15
ENDBRANCH  11  14
ENDBRANCH   9  10
ENDBRANCH   8   9
ENDBRANCH   7   8
ENDBRANCH   4   7
BRANCH   1  27
HETATM   27  C11 UNL     1      16.385  23.307  15.612  1.00  0.00     0.148 A 
HETATM   28  N2  UNL     1      17.323  24.056  15.079  1.00  0.00    -0.335 N 
HETATM   29  C10 UNL     1      18.321  24.478  15.801  1.00  0.00     0.056 A 
ATOM     30  H2  UNL     1      17.269  24.309  14.093  1.00  0.00     0.168 HD
HETATM   31  C9  UNL     1      19.383  25.278  15.357  1.00  0.00     0.060 A 
HETATM   32  C27 UNL     1      18.347  24.113  17.117  1.00  0.00     0.068 A 
HETATM   33  C6  UNL     1      20.383  25.668  16.192  1.00  0.00     0.039 A 
HETATM   34  C5  UNL     1      20.404  25.298  17.518  1.00  0.00     0.067 A 
HETATM   35  C4  UNL     1      19.367  24.508  17.980  1.00  0.00     0.090 A 
HETATM   36  S1  UNL     1      16.926  23.176  17.245  1.00  0.00    -0.049 SA
BRANCH  33  37
HETATM   37  N1  UNL     1      21.431  26.471  15.625  1.00  0.00    -0.327 N 
HETATM   38  C7  UNL     1      21.355  27.815  15.270  1.00  0.00     0.218 C 
HETATM   39  C8  UNL     1      22.600  28.447  14.681  1.00  0.00     0.117 C 
HETATM   40  O2  UNL     1      20.344  28.560  15.394  1.00  0.00    -0.274 OA
ATOM     41  H1  UNL     1      22.325  26.007  15.464  1.00  0.00     0.169 HD
ENDBRANCH  33  37
BRANCH  35  42
HETATM   42  O1  UNL     1      19.255  24.062  19.278  1.00  0.00    -0.350 OA
BRANCH  42  43
HETATM   43  C3  UNL     1      20.252  24.034  20.249  1.00  0.00     0.175 C 
BRANCH  43  44
HETATM   44  C2  UNL     1      20.696  22.591  20.441  1.00  0.00     0.022 C 
HETATM   45  C1  UNL     1      19.605  21.600  20.198  1.00  0.00     0.007 C 
ENDBRANCH  43  44
ENDBRANCH  42  43
ENDBRANCH  35  42
ENDBRANCH   1  27
TORSDOF 12
ENDMDL
MODEL 4
REMARK VINA RESULT: -8.719317129      2.230      5.215
REMARK  12 active torsions:
REMARK  status: ('A' for Active; 'I' for Inactive)
REMARK    1  A    between atoms: C2_2  and  C3_3 
REMARK    2  A    between atoms: C3_3  and  O1_4 
REMARK    3  A    between atoms: O1_4  and  C4_5 
REMARK    4  A    between atoms: C6_7  and  N1_8 
REMARK       I    between atoms: N1_8  and  C7_10 
REMARK    5  A    between atoms: C11_17  and  N3_18 
REMARK    6  A    between atoms: N4_21  and  C14_22 
REMARK    7  A    between atoms: C14_22  and  C15_23 
REMARK    8  A    between atoms: C15_23  and  C16_24 
REMARK    9  A    between atoms: C16_24  and  N5_25 
REMARK       I    between atoms: N5_25  and  C17_27 
REMARK   10  A    between atoms: C17_27  and  C18_29 
REMARK   11  A    between atoms: C18_29  and  N6_30 
REMARK   12  A    between atoms: C20_33  and  N7_35 
ROOT
HETATM    1  N3  UNL     1      18.219  24.624  15.847  1.00  0.00    -0.355 N 
HETATM    2  C12 UNL     1      19.408  24.564  16.630  1.00  0.00     0.169 C 
HETATM    3  C13 UNL     1      20.595  24.806  15.718  1.00  0.00     0.083 C 
HETATM    4  N4  UNL     1      20.492  25.913  14.869  1.00  0.00    -0.371 N 
HETATM    5  C25 UNL     1      19.227  26.599  14.827  1.00  0.00     0.147 C 
HETATM    6  C26 UNL     1      18.080  25.637  14.855  1.00  0.00     0.145 C 
ENDROOT
BRANCH   4   7
HETATM    7  C14 UNL     1      21.616  26.713  14.691  1.00  0.00     0.065 C 
BRANCH   7   8
HETATM    8  C15 UNL     1      22.813  26.600  15.536  1.00  0.00     0.064 C 
BRANCH   8   9
HETATM    9  C16 UNL     1      23.141  27.718  16.467  1.00  0.00     0.128 C 
BRANCH   9  10
HETATM   10  N5  UNL     1      22.974  27.373  17.846  1.00  0.00    -0.359 N 
HETATM   11  C17 UNL     1      21.714  27.388  18.477  1.00  0.00     0.235 C 
HETATM   12  O3  UNL     1      20.666  27.713  17.872  1.00  0.00    -0.272 OA
ATOM     13  H5  UNL     1      23.795  27.107  18.391  1.00  0.00     0.162 HD
BRANCH  11  14
HETATM   14  C18 UNL     1      21.565  27.013  19.920  1.00  0.00     0.229 C 
BRANCH  14  15
HETATM   15  N6  UNL     1      22.201  25.735  20.179  1.00  0.00    -0.337 N 
HETATM   16  C19 UNL     1      23.575  25.648  20.560  1.00  0.00     0.256 C 
HETATM   17  O4  UNL     1      24.391  26.621  20.691  1.00  0.00    -0.271 OA
HETATM   18  C20 UNL     1      23.898  24.230  20.777  1.00  0.00     0.201 C 
HETATM   19  C21 UNL     1      24.457  23.638  19.507  1.00  0.00     0.056 C 
HETATM   20  C22 UNL     1      22.551  23.603  21.021  1.00  0.00     0.073 C 
HETATM   21  C23 UNL     1      21.646  24.417  20.115  1.00  0.00     0.086 C 
HETATM   22  C24 UNL     1      20.235  24.321  20.624  1.00  0.00     0.032 C 
BRANCH  18  23
HETATM   23  N7  UNL     1      24.800  24.036  21.898  1.00  0.00    -0.062 N 
ATOM     24  H73 UNL     1      25.760  23.904  21.579  1.00  0.00     0.275 HD
ATOM     25  H72 UNL     1      24.921  24.900  22.426  1.00  0.00     0.275 HD
ATOM     26  H71 UNL     1      24.504  23.272  22.505  1.00  0.00     0.275 HD
ENDBRANCH  18  23
ENDBRANCH  14  15
ENDBRANCH  11  14
ENDBRANCH   9  10
ENDBRANCH   8   9
ENDBRANCH   7   8
ENDBRANCH   4   7
BRANCH   1  27
HETATM   27  C11 UNL     1      17.155  23.680  16.033  1.00  0.00     0.148 A 
HETATM   28  N2  UNL     1      16.494  22.983  15.138  1.00  0.00    -0.335 N 
HETATM   29  C10 UNL     1      15.552  22.163  15.504  1.00  0.00     0.056 A 
ATOM     30  H2  UNL     1      16.720  23.085  14.149  1.00  0.00     0.168 HD
HETATM   31  C9  UNL     1      14.773  21.365  14.654  1.00  0.00     0.060 A 
HETATM   32  C27 UNL     1      15.288  22.060  16.840  1.00  0.00     0.068 A 
HETATM   33  C6  UNL     1      13.809  20.535  15.136  1.00  0.00     0.039 A 
HETATM   34  C5  UNL     1      13.547  20.436  16.484  1.00  0.00     0.067 A 
HETATM   35  C4  UNL     1      14.302  21.214  17.342  1.00  0.00     0.090 A 
HETATM   36  S1  UNL     1      16.415  23.158  17.501  1.00  0.00    -0.049 SA
BRANCH  33  37
HETATM   37  N1  UNL     1      13.058  19.779  14.172  1.00  0.00    -0.327 N 
HETATM   38  C7  UNL     1      11.752  20.019  13.754  1.00  0.00     0.218 C 
HETATM   39  C8  UNL     1      11.170  19.073  12.725  1.00  0.00     0.117 C 
HETATM   40  O2  UNL     1      11.004  20.954  14.154  1.00  0.00    -0.274 OA
ATOM     41  H1  UNL     1      13.533  18.980  13.749  1.00  0.00     0.169 HD
ENDBRANCH  33  37
BRANCH  35  42
HETATM   42  O1  UNL     1      14.153  21.219  18.711  1.00  0.00    -0.350 OA
BRANCH  42  43
HETATM   43  C3  UNL     1      14.869  20.469  19.640  1.00  0.00     0.175 C 
BRANCH  43  44
HETATM   44  C2  UNL     1      13.949  19.396  20.204  1.00  0.00     0.022 C 
HETATM   45  C1  UNL     1      13.970  18.127  19.417  1.00  0.00     0.007 C 
ENDBRANCH  43  44
ENDBRANCH  42  43
ENDBRANCH  35  42
ENDBRANCH   1  27
TORSDOF 12
ENDMDL
MODEL 5
REMARK VINA RESULT: -8.709839441      2.371      4.029
REMARK  12 active torsions:
REMARK  status: ('A' for Active; 'I' for Inactive)
REMARK    1  A    between atoms: C2_2  and  C3_3 
REMARK    2  A    between atoms: C3_3  and  O1_4 
REMARK    3  A    between atoms: O1_4  and  C4_5 
REMARK    4  A    between atoms: C6_7  and  N1_8 
REMARK       I    between atoms: N1_8  and  C7_10 
REMARK    5  A    between atoms: C11_17  and  N3_18 
REMARK    6  A    between atoms: N4_21  and  C14_22 
REMARK    7  A    between atoms: C14_22  and  C15_23 
REMARK    8  A    between atoms: C15_23  and  C16_24 
REMARK    9  A    between atoms: C16_24  and  N5_25 
REMARK       I    between atoms: N5_25  and  C17_27 
REMARK   10  A    between atoms: C17_27  and  C18_29 
REMARK   11  A    between atoms: C18_29  and  N6_30 
REMARK   12  A    between atoms: C20_33  and  N7_35 
ROOT
HETATM    1  N3  UNL     1      16.727  21.999  18.375  1.00  0.00    -0.355 N 
HETATM    2  C12 UNL     1      17.099  23.361  18.186  1.00  0.00     0.169 C 
HETATM    3  C13 UNL     1      17.653  23.893  19.494  1.00  0.00     0.083 C 
HETATM    4  N4  UNL     1      18.613  23.090  20.118  1.00  0.00    -0.371 N 
HETATM    5  C25 UNL     1      18.853  21.787  19.554  1.00  0.00     0.147 C 
HETATM    6  C26 UNL     1      17.578  21.134  19.120  1.00  0.00     0.145 C 
ENDROOT
BRANCH   4   7
HETATM    7  C14 UNL     1      19.718  23.711  20.690  1.00  0.00     0.065 C 
BRANCH   7   8
HETATM    8  C15 UNL     1      21.073  23.144  20.620  1.00  0.00     0.064 C 
BRANCH   8   9
HETATM    9  C16 UNL     1      22.059  23.759  19.687  1.00  0.00     0.128 C 
BRANCH   9  10
HETATM   10  N5  UNL     1      21.545  24.901  18.993  1.00  0.00    -0.359 N 
HETATM   11  C17 UNL     1      22.211  26.143  18.994  1.00  0.00     0.235 C 
HETATM   12  O3  UNL     1      23.287  26.325  19.610  1.00  0.00    -0.272 OA
ATOM     13  H5  UNL     1      20.668  24.812  18.480  1.00  0.00     0.162 HD
BRANCH  11  14
HETATM   14  C18 UNL     1      21.657  27.320  18.250  1.00  0.00     0.229 C 
BRANCH  14  15
HETATM   15  N6  UNL     1      21.516  27.007  16.841  1.00  0.00    -0.337 N 
HETATM   16  C19 UNL     1      20.327  26.405  16.326  1.00  0.00     0.256 C 
HETATM   17  O4  UNL     1      19.299  26.056  16.996  1.00  0.00    -0.271 OA
HETATM   18  C20 UNL     1      20.488  26.251  14.872  1.00  0.00     0.201 C 
HETATM   19  C21 UNL     1      21.035  24.879  14.566  1.00  0.00     0.056 C 
HETATM   20  C22 UNL     1      21.559  27.255  14.536  1.00  0.00     0.073 C 
HETATM   21  C23 UNL     1      22.442  27.213  15.770  1.00  0.00     0.086 C 
HETATM   22  C24 UNL     1      23.210  28.501  15.862  1.00  0.00     0.032 C 
BRANCH  18  23
HETATM   23  N7  UNL     1      19.256  26.508  14.151  1.00  0.00    -0.062 N 
ATOM     24  H73 UNL     1      18.920  27.456  14.322  1.00  0.00     0.275 HD
ATOM     25  H72 UNL     1      19.423  26.573  13.147  1.00  0.00     0.275 HD
ATOM     26  H71 UNL     1      18.534  25.819  14.360  1.00  0.00     0.275 HD
ENDBRANCH  18  23
ENDBRANCH  14  15
ENDBRANCH  11  14
ENDBRANCH   9  10
ENDBRANCH   8   9
ENDBRANCH   7   8
ENDBRANCH   4   7
BRANCH   1  27
HETATM   27  C11 UNL     1      15.505  21.478  17.834  1.00  0.00     0.148 A 
HETATM   28  N2  UNL     1      15.098  21.432  16.587  1.00  0.00    -0.335 N 
HETATM   29  C10 UNL     1      13.944  20.909  16.287  1.00  0.00     0.056 A 
ATOM     30  H2  UNL     1      15.690  21.810  15.847  1.00  0.00     0.168 HD
HETATM   31  C9  UNL     1      13.394  20.800  15.003  1.00  0.00     0.060 A 
HETATM   32  C27 UNL     1      13.190  20.414  17.313  1.00  0.00     0.068 A 
HETATM   33  C6  UNL     1      12.175  20.233  14.792  1.00  0.00     0.039 A 
HETATM   34  C5  UNL     1      11.419  19.737  15.830  1.00  0.00     0.067 A 
HETATM   35  C4  UNL     1      11.941  19.833  17.106  1.00  0.00     0.090 A 
HETATM   36  S1  UNL     1      14.186  20.734  18.661  1.00  0.00    -0.049 SA
BRANCH  33  37
HETATM   37  N1  UNL     1      11.701  20.192  13.436  1.00  0.00    -0.327 N 
HETATM   38  C7  UNL     1      11.528  19.060  12.645  1.00  0.00     0.218 C 
HETATM   39  C8  UNL     1      11.017  19.272  11.235  1.00  0.00     0.117 C 
HETATM   40  O2  UNL     1      11.759  17.868  12.992  1.00  0.00    -0.274 OA
ATOM     41  H1  UNL     1      11.466  21.088  13.008  1.00  0.00     0.169 HD
ENDBRANCH  33  37
BRANCH  35  42
HETATM   42  O1  UNL     1      11.300  19.381  18.238  1.00  0.00    -0.350 OA
BRANCH  42  43
HETATM   43  C3  UNL     1      10.994  18.062  18.564  1.00  0.00     0.175 C 
BRANCH  43  44
HETATM   44  C2  UNL     1      12.294  17.323  18.848  1.00  0.00     0.022 C 
HETATM   45  C1  UNL     1      12.850  17.605  20.205  1.00  0.00     0.007 C 
ENDBRANCH  43  44
ENDBRANCH  42  43
ENDBRANCH  35  42
ENDBRANCH   1  27
TORSDOF 12
ENDMDL
