MODEL 1
REMARK VINA RESULT: -9.444987417      0.000      0.000
REMARK  13 active torsions:
REMARK  status: ('A' for Active; 'I' for Inactive)
REMARK    1  A    between atoms: C2_2  and  C3_3 
REMARK    2  A    between atoms: C3_3  and  N1_4 
REMARK    3  A    between atoms: N2_7  and  C6_8 
REMARK    4  A    between atoms: C9_11  and  N3_12 
REMARK    5  A    between atoms: C11_17  and  N5_18 
REMARK    6  A    between atoms: N5_18  and  C12_20 
REMARK    7  A    between atoms: C12_20  and  C13_21 
REMARK    8  A    between atoms: C13_21  and  O1_22 
REMARK    9  A    between atoms: C15_26  and  N7_27 
REMARK   10  A    between atoms: N7_27  and  C16_29 
REMARK   11  A    between atoms: C16_29  and  C17_30 
REMARK   12  A    between atoms: C19_32  and  C20_33 
REMARK   13  A    between atoms: C20_33  and  C21_34 
ROOT
HETATM    1  N3  UNL     1      16.861  20.978  19.675  1.00  0.00    -0.191 N 
ATOM      2  H3  UNL     1      16.601  20.316  20.406  1.00  0.00     0.184 HD
HETATM    3  C10 UNL     1      16.199  20.965  18.563  1.00  0.00     0.711 A 
HETATM    4  N4  UNL     1      15.189  20.044  18.478  1.00  0.00    -0.021 N 
ATOM      5  H4  UNL     1      14.993  19.422  19.263  1.00  0.00     0.203 HD
HETATM    6  C11 UNL     1      14.462  19.963  17.358  1.00  0.00     0.707 A 
HETATM    7  N6  UNL     1      14.756  20.804  16.343  1.00  0.00    -0.022 N 
ATOM      8  H6  UNL     1      14.205  20.748  15.486  1.00  0.00     0.203 HD
HETATM    9  C15 UNL     1      15.745  21.712  16.415  1.00  0.00     0.707 A 
HETATM   10  N9  UNL     1      16.482  21.784  17.568  1.00  0.00    -0.021 N 
ATOM     11  H9  UNL     1      17.240  22.461  17.654  1.00  0.00     0.203 HD
ENDROOT
BRANCH   1  12
HETATM   12  C9  UNL     1      17.928  21.869  19.917  1.00  0.00     0.049 A 
HETATM   13  C8  UNL     1      19.220  21.372  20.010  1.00  0.00     0.032 A 
HETATM   14  C7  UNL     1      20.302  22.198  20.259  1.00  0.00     0.031 A 
HETATM   15  C6  UNL     1      20.156  23.549  20.426  1.00  0.00     0.030 A 
HETATM   16  C27 UNL     1      18.881  24.048  20.335  1.00  0.00     0.031 A 
HETATM   17  C26 UNL     1      17.771  23.228  20.084  1.00  0.00     0.032 A 
BRANCH  15  18
HETATM   18  N2  UNL     1      21.237  24.411  20.703  1.00  0.00    -0.378 N 
HETATM   19  C5  UNL     1      22.566  23.945  21.053  1.00  0.00     0.153 C 
HETATM   20  C4  UNL     1      23.677  24.611  20.320  1.00  0.00     0.292 C 
HETATM   21  N1  UNL     1      23.529  26.087  20.320  1.00  0.00     0.095 N 
HETATM   22  C29 UNL     1      22.209  26.370  19.749  1.00  0.00     0.292 C 
HETATM   23  C28 UNL     1      21.107  25.876  20.646  1.00  0.00     0.153 C 
BRANCH  21  24
HETATM   24  C3  UNL     1      24.486  26.535  19.328  1.00  0.00     0.299 C 
BRANCH  24  25
HETATM   25  C2  UNL     1      24.136  26.210  17.943  1.00  0.00    -0.007 C 
HETATM   26  C1  UNL     1      24.968  26.297  16.932  1.00  0.00     0.008 C 
ENDBRANCH  24  25
ENDBRANCH  21  24
ENDBRANCH  15  18
ENDBRANCH   1  12
BRANCH   6  27
HETATM   27  N5  UNL     1      13.527  19.108  17.280  1.00  0.00    -0.223 N 
ATOM     28  H5  UNL     1      13.086  19.001  16.366  1.00  0.00     0.177 HD
BRANCH  27  29
HETATM   29  C12 UNL     1      13.019  18.276  18.331  1.00  0.00     0.164 C 
BRANCH  29  30
HETATM   30  C13 UNL     1      11.634  18.714  18.715  1.00  0.00     0.187 C 
BRANCH  30  31
HETATM   31  O1  UNL     1      11.371  18.703  20.055  1.00  0.00    -0.394 OA
HETATM   32  C14 UNL     1      12.478  18.421  20.822  1.00  0.00     0.201 C 
ENDBRANCH  30  31
ENDBRANCH  29  30
ENDBRANCH  27  29
ENDBRANCH   6  27
BRANCH   9  33
HETATM   33  N7  UNL     1      16.062  22.529  15.471  1.00  0.00    -0.219 N 
ATOM     34  H7  UNL     1      16.018  22.179  14.514  1.00  0.00     0.178 HD
BRANCH  33  35
HETATM   35  C16 UNL     1      16.468  23.878  15.657  1.00  0.00     0.205 C 
BRANCH  35  36
HETATM   36  C17 UNL     1      17.957  24.033  15.603  1.00  0.00     0.096 A 
HETATM   37  C18 UNL     1      18.637  25.195  15.333  1.00  0.00     0.063 A 
HETATM   38  C19 UNL     1      19.990  24.938  15.371  1.00  0.00     0.035 A 
HETATM   39  N8  UNL     1      20.051  23.600  15.671  1.00  0.00    -0.265 N 
HETATM   40  O2  UNL     1      18.861  23.117  15.796  1.00  0.00    -0.240 OA
ATOM     41  H8  UNL     1      20.912  23.065  15.780  1.00  0.00     0.194 HD
BRANCH  38  42
HETATM   42  C20 UNL     1      21.147  25.825  15.150  1.00  0.00     0.064 C 
BRANCH  42  43
HETATM   43  C21 UNL     1      20.776  27.272  15.213  1.00  0.00    -0.009 C 
HETATM   44  C22 UNL     1      20.760  27.903  13.848  1.00  0.00     0.005 C 
HETATM   45  C23 UNL     1      21.922  28.872  13.767  1.00  0.00     0.000 C 
HETATM   46  C24 UNL     1      22.706  28.705  15.026  1.00  0.00     0.000 C 
HETATM   47  C25 UNL     1      21.748  28.090  16.004  1.00  0.00     0.005 C 
ENDBRANCH  42  43
ENDBRANCH  38  42
ENDBRANCH  35  36
ENDBRANCH  33  35
ENDBRANCH   9  33
TORSDOF 13
ENDMDL
MODEL 2
REMARK VINA RESULT: -9.397344349      1.019      1.257
REMARK  13 active torsions:
REMARK  status: ('A' for Active; 'I' for Inactive)
REMARK    1  A    between atoms: C2_2  and  C3_3 
REMARK    2  A    between atoms: C3_3  and  N1_4 
REMARK    3  A    between atoms: N2_7  and  C6_8 
REMARK    4  A    between atoms: C9_11  and  N3_12 
REMARK    5  A    between atoms: C11_17  and  N5_18 
REMARK    6  A    between atoms: N5_18  and  C12_20 
REMARK    7  A    between atoms: C12_20  and  C13_21 
REMARK    8  A    between atoms: C13_21  and  O1_22 
REMARK    9  A    between atoms: C15_26  and  N7_27 
REMARK   10  A    between atoms: N7_27  and  C16_29 
REMARK   11  A    between atoms: C16_29  and  C17_30 
REMARK   12  A    between atoms: C19_32  and  C20_33 
REMARK   13  A    between atoms: C20_33  and  C21_34 
ROOT
HETATM    1  N3  UNL     1      16.612  21.427  19.895  1.00  0.00    -0.191 N 
ATOM      2  H3  UNL     1      16.379  20.706  20.577  1.00  0.00     0.184 HD
HETATM    3  C10 UNL     1      15.782  21.662  18.931  1.00  0.00     0.711 A 
HETATM    4  N4  UNL     1      14.643  20.901  18.923  1.00  0.00    -0.021 N 
ATOM      5  H4  UNL     1      14.487  20.203  19.650  1.00  0.00     0.203 HD
HETATM    6  C11 UNL     1      13.737  21.079  17.955  1.00  0.00     0.707 A 
HETATM    7  N6  UNL     1      13.984  22.014  17.012  1.00  0.00    -0.022 N 
ATOM      8  H6  UNL     1      13.297  22.155  16.271  1.00  0.00     0.203 HD
HETATM    9  C15 UNL     1      15.098  22.766  17.010  1.00  0.00     0.707 A 
HETATM   10  N9  UNL     1      16.018  22.574  18.006  1.00  0.00    -0.021 N 
ATOM     11  H9  UNL     1      16.874  23.128  18.033  1.00  0.00     0.203 HD
ENDROOT
BRANCH   1  12
HETATM   12  C9  UNL     1      17.828  22.129  20.042  1.00  0.00     0.049 A 
HETATM   13  C8  UNL     1      17.798  23.480  20.356  1.00  0.00     0.032 A 
HETATM   14  C7  UNL     1      18.959  24.221  20.499  1.00  0.00     0.031 A 
HETATM   15  C6  UNL     1      20.198  23.659  20.340  1.00  0.00     0.030 A 
HETATM   16  C27 UNL     1      20.235  22.323  20.029  1.00  0.00     0.031 A 
HETATM   17  C26 UNL     1      19.071  21.556  19.879  1.00  0.00     0.032 A 
BRANCH  15  18
HETATM   18  N2  UNL     1      21.396  24.394  20.457  1.00  0.00    -0.378 N 
HETATM   19  C5  UNL     1      22.633  23.835  20.967  1.00  0.00     0.153 C 
HETATM   20  C4  UNL     1      23.841  24.137  20.151  1.00  0.00     0.292 C 
HETATM   21  N1  UNL     1      23.922  25.576  19.798  1.00  0.00     0.095 N 
HETATM   22  C29 UNL     1      22.666  25.905  19.117  1.00  0.00     0.292 C 
HETATM   23  C28 UNL     1      21.493  25.806  20.053  1.00  0.00     0.153 C 
BRANCH  21  24
HETATM   24  C3  UNL     1      24.946  25.629  18.774  1.00  0.00     0.299 C 
BRANCH  24  25
HETATM   25  C2  UNL     1      24.545  26.301  17.536  1.00  0.00    -0.007 C 
HETATM   26  C1  UNL     1      25.314  26.422  16.481  1.00  0.00     0.008 C 
ENDBRANCH  24  25
ENDBRANCH  21  24
ENDBRANCH  15  18
ENDBRANCH   1  12
BRANCH   6  27
HETATM   27  N5  UNL     1      12.682  20.373  17.949  1.00  0.00    -0.223 N 
ATOM     28  H5  UNL     1      11.803  20.874  17.817  1.00  0.00     0.177 HD
BRANCH  27  29
HETATM   29  C12 UNL     1      12.586  18.951  18.106  1.00  0.00     0.164 C 
BRANCH  29  30
HETATM   30  C13 UNL     1      11.306  18.592  18.805  1.00  0.00     0.187 C 
BRANCH  30  31
HETATM   31  O1  UNL     1      11.334  18.705  20.165  1.00  0.00    -0.394 OA
HETATM   32  C14 UNL     1      12.522  18.285  20.719  1.00  0.00     0.201 C 
ENDBRANCH  30  31
ENDBRANCH  29  30
ENDBRANCH  27  29
ENDBRANCH   6  27
BRANCH   9  33
HETATM   33  N7  UNL     1      15.376  23.664  16.128  1.00  0.00    -0.219 N 
ATOM     34  H7  UNL     1      14.702  24.419  16.000  1.00  0.00     0.178 HD
BRANCH  33  35
HETATM   35  C16 UNL     1      16.546  23.685  15.321  1.00  0.00     0.205 C 
BRANCH  35  36
HETATM   36  C17 UNL     1      17.627  24.534  15.915  1.00  0.00     0.096 A 
HETATM   37  C18 UNL     1      18.816  24.862  15.312  1.00  0.00     0.063 A 
HETATM   38  C19 UNL     1      19.547  25.654  16.171  1.00  0.00     0.035 A 
HETATM   39  N8  UNL     1      18.734  25.763  17.271  1.00  0.00    -0.265 N 
HETATM   40  O2  UNL     1      17.640  25.105  17.084  1.00  0.00    -0.240 OA
ATOM     41  H8  UNL     1      18.961  26.289  18.115  1.00  0.00     0.194 HD
BRANCH  38  42
HETATM   42  C20 UNL     1      20.880  26.266  16.020  1.00  0.00     0.064 C 
BRANCH  42  43
HETATM   43  C21 UNL     1      20.805  27.737  15.761  1.00  0.00    -0.009 C 
HETATM   44  C22 UNL     1      20.358  28.033  14.356  1.00  0.00     0.005 C 
HETATM   45  C23 UNL     1      21.536  28.617  13.603  1.00  0.00     0.000 C 
HETATM   46  C24 UNL     1      22.713  28.529  14.516  1.00  0.00     0.000 C 
HETATM   47  C25 UNL     1      22.129  28.421  15.895  1.00  0.00     0.005 C 
ENDBRANCH  42  43
ENDBRANCH  38  42
ENDBRANCH  35  36
ENDBRANCH  33  35
ENDBRANCH   9  33
TORSDOF 13
ENDMDL
MODEL 3
REMARK VINA RESULT: -9.375550141      1.011      1.203
REMARK  13 active torsions:
REMARK  status: ('A' for Active; 'I' for Inactive)
REMARK    1  A    between atoms: C2_2  and  C3_3 
REMARK    2  A    between atoms: C3_3  and  N1_4 
REMARK    3  A    between atoms: N2_7  and  C6_8 
REMARK    4  A    between atoms: C9_11  and  N3_12 
REMARK    5  A    between atoms: C11_17  and  N5_18 
REMARK    6  A    between atoms: N5_18  and  C12_20 
REMARK    7  A    between atoms: C12_20  and  C13_21 
REMARK    8  A    between atoms: C13_21  and  O1_22 
REMARK    9  A    between atoms: C15_26  and  N7_27 
REMARK   10  A    between atoms: N7_27  and  C16_29 
REMARK   11  A    between atoms: C16_29  and  C17_30 
REMARK   12  A    between atoms: C19_32  and  C20_33 
REMARK   13  A    between atoms: C20_33  and  C21_34 
ROOT
HETATM    1  N3  UNL     1      16.652  21.963  20.035  1.00  0.00    -0.191 N 
ATOM      2  H3  UNL     1      16.361  21.392  20.828  1.00  0.00     0.184 HD
HETATM    3  C10 UNL     1      15.898  21.996  18.984  1.00  0.00     0.711 A 
HETATM    4  N4  UNL     1      14.755  21.244  19.043  1.00  0.00    -0.021 N 
ATOM      5  H4  UNL     1      14.538  20.705  19.881  1.00  0.00     0.203 HD
HETATM    6  C11 UNL     1      13.926  21.220  17.993  1.00  0.00     0.707 A 
HETATM    7  N6  UNL     1      14.253  21.947  16.903  1.00  0.00    -0.022 N 
ATOM      8  H6  UNL     1      13.625  21.933  16.099  1.00  0.00     0.203 HD
HETATM    9  C15 UNL     1      15.372  22.688  16.834  1.00  0.00     0.707 A 
HETATM   10  N9  UNL     1      16.213  22.704  17.915  1.00  0.00    -0.021 N 
ATOM     11  H9  UNL     1      17.071  23.256  17.895  1.00  0.00     0.203 HD
ENDROOT
BRANCH   1  12
HETATM   12  C9  UNL     1      17.861  22.685  20.129  1.00  0.00     0.049 A 
HETATM   13  C8  UNL     1      19.055  22.055  19.806  1.00  0.00     0.032 A 
HETATM   14  C7  UNL     1      20.271  22.710  19.893  1.00  0.00     0.031 A 
HETATM   15  C6  UNL     1      20.361  24.014  20.300  1.00  0.00     0.030 A 
HETATM   16  C27 UNL     1      19.184  24.644  20.621  1.00  0.00     0.031 A 
HETATM   17  C26 UNL     1      17.943  23.998  20.541  1.00  0.00     0.032 A 
BRANCH  15  18
HETATM   18  N2  UNL     1      21.588  24.699  20.420  1.00  0.00    -0.378 N 
HETATM   19  C5  UNL     1      22.878  24.036  20.450  1.00  0.00     0.153 C 
HETATM   20  C4  UNL     1      23.911  24.634  19.562  1.00  0.00     0.292 C 
HETATM   21  N1  UNL     1      23.981  26.108  19.713  1.00  0.00     0.095 N 
HETATM   22  C29 UNL     1      22.629  26.615  19.451  1.00  0.00     0.292 C 
HETATM   23  C28 UNL     1      21.662  26.166  20.512  1.00  0.00     0.153 C 
BRANCH  21  24
HETATM   24  C3  UNL     1      24.783  26.539  18.586  1.00  0.00     0.299 C 
BRANCH  24  25
HETATM   25  C2  UNL     1      25.633  25.499  18.001  1.00  0.00    -0.007 C 
HETATM   26  C1  UNL     1      26.375  25.668  16.933  1.00  0.00     0.008 C 
ENDBRANCH  24  25
ENDBRANCH  21  24
ENDBRANCH  15  18
ENDBRANCH   1  12
BRANCH   6  27
HETATM   27  N5  UNL     1      12.867  20.522  18.049  1.00  0.00    -0.223 N 
ATOM     28  H5  UNL     1      11.986  21.028  17.954  1.00  0.00     0.177 HD
BRANCH  27  29
HETATM   29  C12 UNL     1      12.769  19.103  18.230  1.00  0.00     0.164 C 
BRANCH  29  30
HETATM   30  C13 UNL     1      11.418  18.744  18.781  1.00  0.00     0.187 C 
BRANCH  30  31
HETATM   31  O1  UNL     1      11.337  18.706  20.143  1.00  0.00    -0.394 OA
HETATM   32  C14 UNL     1      12.518  18.337  20.746  1.00  0.00     0.201 C 
ENDBRANCH  30  31
ENDBRANCH  29  30
ENDBRANCH  27  29
ENDBRANCH   6  27
BRANCH   9  33
HETATM   33  N7  UNL     1      15.725  23.392  15.814  1.00  0.00    -0.219 N 
ATOM     34  H7  UNL     1      15.066  24.095  15.478  1.00  0.00     0.178 HD
BRANCH  33  35
HETATM   35  C16 UNL     1      16.959  23.266  15.119  1.00  0.00     0.205 C 
BRANCH  35  36
HETATM   36  C17 UNL     1      17.985  24.242  15.609  1.00  0.00     0.096 A 
HETATM   37  C18 UNL     1      18.361  25.401  14.975  1.00  0.00     0.063 A 
HETATM   38  C19 UNL     1      19.328  26.026  15.731  1.00  0.00     0.035 A 
HETATM   39  N8  UNL     1      19.482  25.188  16.807  1.00  0.00    -0.265 N 
HETATM   40  O2  UNL     1      18.692  24.174  16.698  1.00  0.00    -0.240 OA
ATOM     41  H8  UNL     1      20.128  25.345  17.580  1.00  0.00     0.194 HD
BRANCH  38  42
HETATM   42  C20 UNL     1      20.065  27.283  15.504  1.00  0.00     0.064 C 
BRANCH  42  43
HETATM   43  C21 UNL     1      21.258  27.093  14.622  1.00  0.00    -0.009 C 
HETATM   44  C22 UNL     1      22.488  26.749  15.417  1.00  0.00     0.005 C 
HETATM   45  C23 UNL     1      23.435  27.929  15.347  1.00  0.00     0.000 C 
HETATM   46  C24 UNL     1      22.706  29.022  14.638  1.00  0.00     0.000 C 
HETATM   47  C25 UNL     1      21.624  28.328  13.862  1.00  0.00     0.005 C 
ENDBRANCH  42  43
ENDBRANCH  38  42
ENDBRANCH  35  36
ENDBRANCH  33  35
ENDBRANCH   9  33
TORSDOF 13
ENDMDL
MODEL 4
REMARK VINA RESULT: -9.370279775      1.634      2.515
REMARK  13 active torsions:
REMARK  status: ('A' for Active; 'I' for Inactive)
REMARK    1  A    between atoms: C2_2  and  C3_3 
REMARK    2  A    between atoms: C3_3  and  N1_4 
REMARK    3  A    between atoms: N2_7  and  C6_8 
REMARK    4  A    between atoms: C9_11  and  N3_12 
REMARK    5  A    between atoms: C11_17  and  N5_18 
REMARK    6  A    between atoms: N5_18  and  C12_20 
REMARK    7  A    between atoms: C12_20  and  C13_21 
REMARK    8  A    between atoms: C13_21  and  O1_22 
REMARK    9  A    between atoms: C15_26  and  N7_27 
REMARK   10  A    between atoms: N7_27  and  C16_29 
REMARK   11  A    between atoms: C16_29  and  C17_30 
REMARK   12  A    between atoms: C19_32  and  C20_33 
REMARK   13  A    between atoms: C20_33  and  C21_34 
ROOT
HETATM    1  N3  UNL     1      14.831  21.524  19.239  1.00  0.00    -0.191 N 
ATOM      2  H3  UNL     1      14.312  21.450  20.113  1.00  0.00     0.184 HD
HETATM    3  C10 UNL     1      14.253  21.158  18.141  1.00  0.00     0.711 A 
HETATM    4  N4  UNL     1      12.970  20.695  18.265  1.00  0.00    -0.021 N 
ATOM      5  H4  UNL     1      12.524  20.660  19.182  1.00  0.00     0.203 HD
HETATM    6  C11 UNL     1      12.306  20.290  17.177  1.00  0.00     0.707 A 
HETATM    7  N6  UNL     1      12.935  20.354  15.983  1.00  0.00    -0.022 N 
ATOM      8  H6  UNL     1      12.434  20.047  15.149  1.00  0.00     0.203 HD
HETATM    9  C15 UNL     1      14.194  20.805  15.850  1.00  0.00     0.707 A 
HETATM   10  N9  UNL     1      14.863  21.216  16.972  1.00  0.00    -0.021 N 
ATOM     11  H9  UNL     1      15.820  21.563  16.904  1.00  0.00     0.203 HD
ENDROOT
BRANCH   1  12
HETATM   12  C9  UNL     1      16.151  22.024  19.276  1.00  0.00     0.049 A 
HETATM   13  C8  UNL     1      17.200  21.151  19.525  1.00  0.00     0.032 A 
HETATM   14  C7  UNL     1      18.512  21.588  19.585  1.00  0.00     0.031 A 
HETATM   15  C6  UNL     1      18.844  22.904  19.401  1.00  0.00     0.030 A 
HETATM   16  C27 UNL     1      17.811  23.773  19.154  1.00  0.00     0.031 A 
HETATM   17  C26 UNL     1      16.476  23.351  19.090  1.00  0.00     0.032 A 
BRANCH  15  18
HETATM   18  N2  UNL     1      20.170  23.381  19.480  1.00  0.00    -0.378 N 
HETATM   19  C5  UNL     1      20.616  24.614  18.861  1.00  0.00     0.153 C 
HETATM   20  C4  UNL     1      21.434  25.495  19.739  1.00  0.00     0.292 C 
HETATM   21  N1  UNL     1      22.505  24.739  20.434  1.00  0.00     0.095 N 
HETATM   22  C29 UNL     1      21.839  23.655  21.162  1.00  0.00     0.292 C 
HETATM   23  C28 UNL     1      21.220  22.661  20.218  1.00  0.00     0.153 C 
BRANCH  21  24
HETATM   24  C3  UNL     1      22.979  25.657  21.450  1.00  0.00     0.299 C 
BRANCH  24  25
HETATM   25  C2  UNL     1      21.944  26.506  22.045  1.00  0.00    -0.007 C 
HETATM   26  C1  UNL     1      21.910  26.851  23.310  1.00  0.00     0.008 C 
ENDBRANCH  24  25
ENDBRANCH  21  24
ENDBRANCH  15  18
ENDBRANCH   1  12
BRANCH   6  27
HETATM   27  N5  UNL     1      11.116  19.862  17.293  1.00  0.00    -0.223 N 
ATOM     28  H5  UNL     1      10.373  20.545  17.146  1.00  0.00     0.177 HD
BRANCH  27  29
HETATM   29  C12 UNL     1      10.700  18.527  17.608  1.00  0.00     0.164 C 
BRANCH  29  30
HETATM   30  C13 UNL     1      11.534  17.976  18.730  1.00  0.00     0.187 C 
BRANCH  30  31
HETATM   31  O1  UNL     1      11.288  18.519  19.958  1.00  0.00    -0.394 OA
HETATM   32  C14 UNL     1      12.373  18.462  20.803  1.00  0.00     0.201 C 
ENDBRANCH  30  31
ENDBRANCH  29  30
ENDBRANCH  27  29
ENDBRANCH   6  27
BRANCH   9  33
HETATM   33  N7  UNL     1      14.833  20.878  14.733  1.00  0.00    -0.219 N 
ATOM     34  H7  UNL     1      14.965  20.011  14.211  1.00  0.00     0.178 HD
BRANCH  33  35
HETATM   35  C16 UNL     1      15.368  22.069  14.171  1.00  0.00     0.205 C 
BRANCH  35  36
HETATM   36  C17 UNL     1      16.628  22.500  14.857  1.00  0.00     0.096 A 
HETATM   37  C18 UNL     1      17.169  23.762  14.828  1.00  0.00     0.063 A 
HETATM   38  C19 UNL     1      18.328  23.767  15.573  1.00  0.00     0.035 A 
HETATM   39  N8  UNL     1      18.421  22.473  16.022  1.00  0.00    -0.265 N 
HETATM   40  O2  UNL     1      17.425  21.777  15.588  1.00  0.00    -0.240 OA
ATOM     41  H8  UNL     1      19.170  22.114  16.614  1.00  0.00     0.194 HD
BRANCH  38  42
HETATM   42  C20 UNL     1      19.286  24.850  15.859  1.00  0.00     0.064 C 
BRANCH  42  43
HETATM   43  C21 UNL     1      19.831  25.472  14.613  1.00  0.00    -0.009 C 
HETATM   44  C22 UNL     1      21.331  25.577  14.654  1.00  0.00     0.005 C 
HETATM   45  C23 UNL     1      21.694  27.044  14.770  1.00  0.00     0.000 C 
HETATM   46  C24 UNL     1      20.413  27.789  14.945  1.00  0.00     0.000 C 
HETATM   47  C25 UNL     1      19.353  26.875  14.404  1.00  0.00     0.005 C 
ENDBRANCH  42  43
ENDBRANCH  38  42
ENDBRANCH  35  36
ENDBRANCH  33  35
ENDBRANCH   9  33
TORSDOF 13
ENDMDL
MODEL 5
REMARK VINA RESULT: -9.157658492      1.271      1.542
REMARK  13 active torsions:
REMARK  status: ('A' for Active; 'I' for Inactive)
REMARK    1  A    between atoms: C2_2  and  C3_3 
REMARK    2  A    between atoms: C3_3  and  N1_4 
REMARK    3  A    between atoms: N2_7  and  C6_8 
REMARK    4  A    between atoms: C9_11  and  N3_12 
REMARK    5  A    between atoms: C11_17  and  N5_18 
REMARK    6  A    between atoms: N5_18  and  C12_20 
REMARK    7  A    between atoms: C12_20  and  C13_21 
REMARK    8  A    between atoms: C13_21  and  O1_22 
REMARK    9  A    between atoms: C15_26  and  N7_27 
REMARK   10  A    between atoms: N7_27  and  C16_29 
REMARK   11  A    between atoms: C16_29  and  C17_30 
REMARK   12  A    between atoms: C19_32  and  C20_33 
REMARK   13  A    between atoms: C20_33  and  C21_34 
ROOT
HETATM    1  N3  UNL     1      16.777  21.180  19.527  1.00  0.00    -0.191 N 
ATOM      2  H3  UNL     1      16.435  20.535  20.239  1.00  0.00     0.184 HD
HETATM    3  C10 UNL     1      16.185  21.204  18.377  1.00  0.00     0.711 A 
HETATM    4  N4  UNL     1      15.132  20.341  18.226  1.00  0.00    -0.021 N 
ATOM      5  H4  UNL     1      14.853  19.733  18.996  1.00  0.00     0.203 HD
HETATM    6  C11 UNL     1      14.472  20.301  17.063  1.00  0.00     0.707 A 
HETATM    7  N6  UNL     1      14.876  21.122  16.070  1.00  0.00    -0.022 N 
ATOM      8  H6  UNL     1      14.377  21.097  15.181  1.00  0.00     0.203 HD
HETATM    9  C15 UNL     1      15.908  21.973  16.206  1.00  0.00     0.707 A 
HETATM   10  N9  UNL     1      16.576  22.004  17.402  1.00  0.00    -0.021 N 
ATOM     11  H9  UNL     1      17.364  22.637  17.537  1.00  0.00     0.203 HD
ENDROOT
BRANCH   1  12
HETATM   12  C9  UNL     1      17.876  22.010  19.837  1.00  0.00     0.049 A 
HETATM   13  C8  UNL     1      19.148  21.458  19.891  1.00  0.00     0.032 A 
HETATM   14  C7  UNL     1      20.260  22.222  20.203  1.00  0.00     0.031 A 
HETATM   15  C6  UNL     1      20.164  23.561  20.472  1.00  0.00     0.030 A 
HETATM   16  C27 UNL     1      18.908  24.113  20.420  1.00  0.00     0.031 A 
HETATM   17  C26 UNL     1      17.770  23.357  20.107  1.00  0.00     0.032 A 
BRANCH  15  18
HETATM   18  N2  UNL     1      21.276  24.358  20.815  1.00  0.00    -0.378 N 
HETATM   19  C5  UNL     1      22.564  23.815  21.201  1.00  0.00     0.153 C 
HETATM   20  C4  UNL     1      23.735  24.442  20.530  1.00  0.00     0.292 C 
HETATM   21  N1  UNL     1      23.663  25.923  20.567  1.00  0.00     0.095 N 
HETATM   22  C29 UNL     1      22.381  26.290  19.956  1.00  0.00     0.292 C 
HETATM   23  C28 UNL     1      21.222  25.829  20.796  1.00  0.00     0.153 C 
BRANCH  21  24
HETATM   24  C3  UNL     1      24.679  26.347  19.625  1.00  0.00     0.299 C 
BRANCH  24  25
HETATM   25  C2  UNL     1      24.300  26.231  18.215  1.00  0.00    -0.007 C 
HETATM   26  C1  UNL     1      25.154  26.068  17.232  1.00  0.00     0.008 C 
ENDBRANCH  24  25
ENDBRANCH  21  24
ENDBRANCH  15  18
ENDBRANCH   1  12
BRANCH   6  27
HETATM   27  N5  UNL     1      13.497  19.500  16.926  1.00  0.00    -0.223 N 
ATOM     28  H5  UNL     1      13.731  18.539  16.678  1.00  0.00     0.177 HD
BRANCH  27  29
HETATM   29  C12 UNL     1      12.102  19.795  17.079  1.00  0.00     0.164 C 
BRANCH  29  30
HETATM   30  C13 UNL     1      11.361  19.466  15.814  1.00  0.00     0.187 C 
BRANCH  30  31
HETATM   31  O1  UNL     1      10.610  20.483  15.299  1.00  0.00    -0.394 OA
HETATM   32  C14 UNL     1      11.344  21.370  14.545  1.00  0.00     0.201 C 
ENDBRANCH  30  31
ENDBRANCH  29  30
ENDBRANCH  27  29
ENDBRANCH   6  27
BRANCH   9  33
HETATM   33  N7  UNL     1      16.329  22.769  15.285  1.00  0.00    -0.219 N 
ATOM     34  H7  UNL     1      16.393  22.398  14.337  1.00  0.00     0.178 HD
BRANCH  33  35
HETATM   35  C16 UNL     1      16.711  24.124  15.485  1.00  0.00     0.205 C 
BRANCH  35  36
HETATM   36  C17 UNL     1      18.198  24.303  15.446  1.00  0.00     0.096 A 
HETATM   37  C18 UNL     1      18.863  25.419  15.001  1.00  0.00     0.063 A 
HETATM   38  C19 UNL     1      20.219  25.205  15.119  1.00  0.00     0.035 A 
HETATM   39  N8  UNL     1      20.296  23.939  15.644  1.00  0.00    -0.265 N 
HETATM   40  O2  UNL     1      19.113  23.455  15.816  1.00  0.00    -0.240 OA
ATOM     41  H8  UNL     1      21.164  23.451  15.865  1.00  0.00     0.194 HD
BRANCH  38  42
HETATM   42  C20 UNL     1      21.365  26.069  14.782  1.00  0.00     0.064 C 
BRANCH  42  43
HETATM   43  C21 UNL     1      21.083  27.515  15.040  1.00  0.00    -0.009 C 
HETATM   44  C22 UNL     1      21.408  28.368  13.844  1.00  0.00     0.005 C 
HETATM   45  C23 UNL     1      22.619  29.211  14.186  1.00  0.00     0.000 C 
HETATM   46  C24 UNL     1      23.097  28.752  15.523  1.00  0.00     0.000 C 
HETATM   47  C25 UNL     1      21.910  28.081  16.152  1.00  0.00     0.005 C 
ENDBRANCH  42  43
ENDBRANCH  38  42
ENDBRANCH  35  36
ENDBRANCH  33  35
ENDBRANCH   9  33
TORSDOF 13
ENDMDL
