MODEL 1
REMARK VINA RESULT: -8.777441673      0.000      0.000
REMARK  13 active torsions:
REMARK  status: ('A' for Active; 'I' for Inactive)
REMARK    1  A    between atoms: C2_2  and  C3_3 
REMARK    2  A    between atoms: C4_4  and  C5_5 
REMARK    3  A    between atoms: C5_5  and  C6_6 
REMARK       I    between atoms: C6_6  and  N1_8 
REMARK    4  A    between atoms: N1_8  and  C7_10 
REMARK    5  A    between atoms: C7_10  and  C8_11 
REMARK    6  A    between atoms: C7_10  and  C10_13 
REMARK       I    between atoms: C10_13  and  N2_15 
REMARK    7  A    between atoms: N2_15  and  C11_17 
REMARK    8  A    between atoms: C11_17  and  C12_18 
REMARK    9  A    between atoms: C12_18  and  O3_21 
REMARK   10  A    between atoms: N4_27  and  C17_28 
REMARK   11  A    between atoms: N5_33  and  C21_34 
REMARK   12  A    between atoms: C21_34  and  C22_35 
REMARK   13  A    between atoms: C26_39  and  O5_40 
ROOT
HETATM    1  C3  UNL     1      20.125  25.435  16.099  1.00  0.00     0.027 A 
HETATM    2  C4  UNL     1      19.399  24.264  16.366  1.00  0.00    -0.012 A 
HETATM    3  C15 UNL     1      19.382  23.752  17.660  1.00  0.00     0.023 A 
HETATM    4  C16 UNL     1      18.772  22.648  18.214  1.00  0.00     0.121 A 
HETATM    5  N3  UNL     1      19.097  22.635  19.510  1.00  0.00    -0.308 N 
ATOM      6  H3  UNL     1      18.791  21.933  20.184  1.00  0.00     0.186 HD
HETATM    7  N4  UNL     1      19.886  23.684  19.794  1.00  0.00    -0.287 N 
HETATM    8  C19 UNL     1      20.068  24.383  18.652  1.00  0.00     0.131 A 
HETATM    9  C20 UNL     1      20.751  25.517  18.310  1.00  0.00     0.281 A 
HETATM   10  O4  UNL     1      21.371  26.084  19.211  1.00  0.00    -0.265 OA
HETATM   11  N5  UNL     1      20.805  26.073  17.060  1.00  0.00    -0.290 N 
ENDROOT
BRANCH   2  12
HETATM   12  C5  UNL     1      18.705  23.449  15.338  1.00  0.00     0.144 C 
BRANCH  12  13
HETATM   13  C6  UNL     1      17.227  23.539  15.416  1.00  0.00     0.222 C 
HETATM   14  O1  UNL     1      16.700  24.551  15.899  1.00  0.00    -0.273 OA
HETATM   15  N1  UNL     1      16.427  22.479  14.942  1.00  0.00    -0.348 N 
ATOM     16  H1  UNL     1      16.868  21.651  14.541  1.00  0.00     0.163 HD
BRANCH  15  17
HETATM   17  C7  UNL     1      14.985  22.558  15.021  1.00  0.00     0.176 C 
BRANCH  17  18
HETATM   18  C8  UNL     1      14.439  21.850  13.797  1.00  0.00     0.030 C 
HETATM   19  C9  UNL     1      15.511  21.799  12.763  1.00  0.00     0.007 C 
ENDBRANCH  17  18
BRANCH  17  20
HETATM   20  C10 UNL     1      14.469  21.931  16.273  1.00  0.00     0.244 C 
HETATM   21  O2  UNL     1      13.757  20.931  16.113  1.00  0.00    -0.271 OA
HETATM   22  N2  UNL     1      14.757  22.423  17.552  1.00  0.00    -0.336 N 
ATOM     23  H2  UNL     1      15.350  23.252  17.553  1.00  0.00     0.168 HD
BRANCH  22  24
HETATM   24  C11 UNL     1      14.381  21.986  18.836  1.00  0.00     0.100 C 
BRANCH  24  25
HETATM   25  C12 UNL     1      15.275  21.190  19.686  1.00  0.00     0.082 C 
HETATM   26  C13 UNL     1      16.233  20.306  18.916  1.00  0.00     0.051 C 
HETATM   27  C14 UNL     1      14.665  20.461  20.857  1.00  0.00     0.051 C 
BRANCH  25  28
HETATM   28  O3  UNL     1      16.115  22.174  20.331  1.00  0.00    -0.385 OA
ATOM     29  H3  UNL     1      16.989  21.807  20.270  1.00  0.00     0.211 HD
ENDBRANCH  25  28
ENDBRANCH  24  25
ENDBRANCH  22  24
ENDBRANCH  17  20
ENDBRANCH  15  17
ENDBRANCH  12  13
ENDBRANCH   2  12
BRANCH   1  30
HETATM   30  C2  UNL     1      20.212  25.858  14.710  1.00  0.00     0.054 C 
HETATM   31  C1  UNL     1      19.096  26.776  14.299  1.00  0.00     0.011 C 
ENDBRANCH   1  30
BRANCH  11  32
HETATM   32  C21 UNL     1      21.486  27.305  16.913  1.00  0.00     0.112 C 
BRANCH  32  33
HETATM   33  C22 UNL     1      22.852  27.429  16.420  1.00  0.00    -0.013 A 
HETATM   34  C23 UNL     1      23.841  26.575  16.983  1.00  0.00     0.023 A 
HETATM   35  C24 UNL     1      25.132  26.555  16.586  1.00  0.00    -0.028 A 
HETATM   36  C25 UNL     1      26.159  25.655  17.187  1.00  0.00     0.051 C 
HETATM   37  C26 UNL     1      25.522  27.408  15.578  1.00  0.00     0.074 A 
HETATM   38  C28 UNL     1      24.580  28.247  15.016  1.00  0.00     0.044 A 
HETATM   39  C29 UNL     1      23.238  28.259  15.437  1.00  0.00    -0.048 A 
HETATM   40  C30 UNL     1      22.399  29.223  14.718  1.00  0.00     0.049 C 
BRANCH  37  41
HETATM   41  O5  UNL     1      26.842  27.411  15.145  1.00  0.00    -0.355 OA
HETATM   42  C27 UNL     1      27.621  28.560  15.372  1.00  0.00     0.210 C 
ENDBRANCH  37  41
ENDBRANCH  32  33
ENDBRANCH  11  32
BRANCH   7  43
HETATM   43  C17 UNL     1      20.445  24.014  21.085  1.00  0.00     0.145 C 
HETATM   44  C18 UNL     1      21.789  23.289  21.216  1.00  0.00     0.028 C 
ENDBRANCH   7  43
TORSDOF 13
ENDMDL
MODEL 2
REMARK VINA RESULT: -8.748812301      2.678      4.530
REMARK  13 active torsions:
REMARK  status: ('A' for Active; 'I' for Inactive)
REMARK    1  A    between atoms: C2_2  and  C3_3 
REMARK    2  A    between atoms: C4_4  and  C5_5 
REMARK    3  A    between atoms: C5_5  and  C6_6 
REMARK       I    between atoms: C6_6  and  N1_8 
REMARK    4  A    between atoms: N1_8  and  C7_10 
REMARK    5  A    between atoms: C7_10  and  C8_11 
REMARK    6  A    between atoms: C7_10  and  C10_13 
REMARK       I    between atoms: C10_13  and  N2_15 
REMARK    7  A    between atoms: N2_15  and  C11_17 
REMARK    8  A    between atoms: C11_17  and  C12_18 
REMARK    9  A    between atoms: C12_18  and  O3_21 
REMARK   10  A    between atoms: N4_27  and  C17_28 
REMARK   11  A    between atoms: N5_33  and  C21_34 
REMARK   12  A    between atoms: C21_34  and  C22_35 
REMARK   13  A    between atoms: C26_39  and  O5_40 
ROOT
HETATM    1  C3  UNL     1      19.253  23.372  18.959  1.00  0.00     0.027 A 
HETATM    2  C4  UNL     1      18.825  23.150  17.641  1.00  0.00    -0.012 A 
HETATM    3  C15 UNL     1      19.063  24.122  16.673  1.00  0.00     0.023 A 
HETATM    4  C16 UNL     1      18.771  24.185  15.329  1.00  0.00     0.121 A 
HETATM    5  N3  UNL     1      19.231  25.359  14.887  1.00  0.00    -0.308 N 
ATOM      6  H3  UNL     1      19.161  25.692  13.925  1.00  0.00     0.186 HD
HETATM    7  N4  UNL     1      19.800  26.036  15.896  1.00  0.00    -0.287 N 
HETATM    8  C19 UNL     1      19.701  25.276  17.009  1.00  0.00     0.131 A 
HETATM    9  C20 UNL     1      20.085  25.417  18.314  1.00  0.00     0.281 A 
HETATM   10  O4  UNL     1      20.660  26.464  18.614  1.00  0.00    -0.265 OA
HETATM   11  N5  UNL     1      19.884  24.500  19.311  1.00  0.00    -0.290 N 
ENDROOT
BRANCH   2  12
HETATM   12  C5  UNL     1      18.035  21.975  17.196  1.00  0.00     0.144 C 
BRANCH  12  13
HETATM   13  C6  UNL     1      16.584  22.253  17.076  1.00  0.00     0.222 C 
HETATM   14  O1  UNL     1      16.006  22.891  17.968  1.00  0.00    -0.273 OA
HETATM   15  N1  UNL     1      15.867  21.797  15.951  1.00  0.00    -0.348 N 
ATOM     16  H1  UNL     1      16.350  21.278  15.218  1.00  0.00     0.163 HD
BRANCH  15  17
HETATM   17  C7  UNL     1      14.450  22.061  15.830  1.00  0.00     0.176 C 
BRANCH  17  18
HETATM   18  C8  UNL     1      14.152  22.187  14.349  1.00  0.00     0.030 C 
HETATM   19  C9  UNL     1      15.374  21.806  13.587  1.00  0.00     0.007 C 
ENDBRANCH  17  18
BRANCH  17  20
HETATM   20  C10 UNL     1      13.636  20.972  16.445  1.00  0.00     0.244 C 
HETATM   21  O2  UNL     1      13.040  20.237  15.647  1.00  0.00    -0.271 OA
HETATM   22  N2  UNL     1      13.536  20.777  17.828  1.00  0.00    -0.336 N 
ATOM     23  H2  UNL     1      14.069  21.449  18.380  1.00  0.00     0.168 HD
BRANCH  22  24
HETATM   24  C11 UNL     1      12.838  19.827  18.598  1.00  0.00     0.100 C 
BRANCH  24  25
HETATM   25  C12 UNL     1      13.270  18.428  18.696  1.00  0.00     0.082 C 
HETATM   26  C13 UNL     1      12.774  17.714  19.935  1.00  0.00     0.051 C 
HETATM   27  C14 UNL     1      14.720  18.120  18.420  1.00  0.00     0.051 C 
BRANCH  25  28
HETATM   28  O3  UNL     1      12.595  17.774  17.597  1.00  0.00    -0.385 OA
ATOM     29  H3  UNL     1      11.690  18.048  17.686  1.00  0.00     0.211 HD
ENDBRANCH  25  28
ENDBRANCH  24  25
ENDBRANCH  22  24
ENDBRANCH  17  20
ENDBRANCH  15  17
ENDBRANCH  12  13
ENDBRANCH   2  12
BRANCH   1  30
HETATM   30  C2  UNL     1      18.871  22.383  19.955  1.00  0.00     0.054 C 
HETATM   31  C1  UNL     1      19.991  21.453  20.325  1.00  0.00     0.011 C 
ENDBRANCH   1  30
BRANCH  11  32
HETATM   32  C21 UNL     1      20.435  24.776  20.584  1.00  0.00     0.112 C 
BRANCH  32  33
HETATM   33  C22 UNL     1      21.865  24.866  20.853  1.00  0.00    -0.013 A 
HETATM   34  C23 UNL     1      22.730  23.978  20.155  1.00  0.00     0.023 A 
HETATM   35  C24 UNL     1      24.075  23.987  20.276  1.00  0.00    -0.028 A 
HETATM   36  C25 UNL     1      24.969  23.047  19.540  1.00  0.00     0.051 C 
HETATM   37  C26 UNL     1      24.652  24.907  21.123  1.00  0.00     0.074 A 
HETATM   38  C28 UNL     1      23.833  25.780  21.812  1.00  0.00     0.044 A 
HETATM   39  C29 UNL     1      22.433  25.761  21.679  1.00  0.00    -0.048 A 
HETATM   40  C30 UNL     1      21.746  26.766  22.497  1.00  0.00     0.049 C 
BRANCH  37  41
HETATM   41  O5  UNL     1      26.033  24.944  21.269  1.00  0.00    -0.355 OA
HETATM   42  C27 UNL     1      26.633  26.148  21.678  1.00  0.00     0.210 C 
ENDBRANCH  37  41
ENDBRANCH  32  33
ENDBRANCH  11  32
BRANCH   7  43
HETATM   43  C17 UNL     1      20.412  27.344  15.817  1.00  0.00     0.145 C 
HETATM   44  C18 UNL     1      20.564  27.704  14.335  1.00  0.00     0.028 C 
ENDBRANCH   7  43
TORSDOF 13
ENDMDL
MODEL 3
REMARK VINA RESULT: -8.709025602      1.615      1.913
REMARK  13 active torsions:
REMARK  status: ('A' for Active; 'I' for Inactive)
REMARK    1  A    between atoms: C2_2  and  C3_3 
REMARK    2  A    between atoms: C4_4  and  C5_5 
REMARK    3  A    between atoms: C5_5  and  C6_6 
REMARK       I    between atoms: C6_6  and  N1_8 
REMARK    4  A    between atoms: N1_8  and  C7_10 
REMARK    5  A    between atoms: C7_10  and  C8_11 
REMARK    6  A    between atoms: C7_10  and  C10_13 
REMARK       I    between atoms: C10_13  and  N2_15 
REMARK    7  A    between atoms: N2_15  and  C11_17 
REMARK    8  A    between atoms: C11_17  and  C12_18 
REMARK    9  A    between atoms: C12_18  and  O3_21 
REMARK   10  A    between atoms: N4_27  and  C17_28 
REMARK   11  A    between atoms: N5_33  and  C21_34 
REMARK   12  A    between atoms: C21_34  and  C22_35 
REMARK   13  A    between atoms: C26_39  and  O5_40 
ROOT
HETATM    1  C3  UNL     1      19.387  24.901  16.279  1.00  0.00     0.027 A 
HETATM    2  C4  UNL     1      18.753  23.672  16.519  1.00  0.00    -0.012 A 
HETATM    3  C15 UNL     1      18.767  23.136  17.804  1.00  0.00     0.023 A 
HETATM    4  C16 UNL     1      18.241  21.978  18.333  1.00  0.00     0.121 A 
HETATM    5  N3  UNL     1      18.559  21.967  19.631  1.00  0.00    -0.308 N 
ATOM      6  H3  UNL     1      18.304  21.231  20.290  1.00  0.00     0.186 HD
HETATM    7  N4  UNL     1      19.261  23.068  19.940  1.00  0.00    -0.287 N 
HETATM    8  C19 UNL     1      19.396  23.800  18.812  1.00  0.00     0.131 A 
HETATM    9  C20 UNL     1      19.991  24.990  18.496  1.00  0.00     0.281 A 
HETATM   10  O4  UNL     1      20.559  25.587  19.411  1.00  0.00    -0.265 OA
HETATM   11  N5  UNL     1      20.009  25.572  17.257  1.00  0.00    -0.290 N 
ENDROOT
BRANCH   2  12
HETATM   12  C5  UNL     1      18.130  22.825  15.472  1.00  0.00     0.144 C 
BRANCH  12  13
HETATM   13  C6  UNL     1      16.648  22.816  15.526  1.00  0.00     0.222 C 
HETATM   14  O1  UNL     1      16.035  23.884  15.668  1.00  0.00    -0.273 OA
HETATM   15  N1  UNL     1      15.943  21.601  15.414  1.00  0.00    -0.348 N 
ATOM     16  H1  UNL     1      16.455  20.727  15.291  1.00  0.00     0.163 HD
BRANCH  15  17
HETATM   17  C7  UNL     1      14.498  21.586  15.472  1.00  0.00     0.176 C 
BRANCH  17  18
HETATM   18  C8  UNL     1      14.020  20.769  14.287  1.00  0.00     0.030 C 
HETATM   19  C9  UNL     1      14.859  21.114  13.105  1.00  0.00     0.007 C 
ENDBRANCH  17  18
BRANCH  17  20
HETATM   20  C10 UNL     1      14.007  21.001  16.754  1.00  0.00     0.244 C 
HETATM   21  O2  UNL     1      14.269  21.654  17.772  1.00  0.00    -0.271 OA
HETATM   22  N2  UNL     1      13.297  19.795  16.824  1.00  0.00    -0.336 N 
ATOM     23  H2  UNL     1      13.147  19.350  15.919  1.00  0.00     0.168 HD
BRANCH  22  24
HETATM   24  C11 UNL     1      12.753  19.085  17.911  1.00  0.00     0.100 C 
BRANCH  24  25
HETATM   25  C12 UNL     1      13.479  17.997  18.578  1.00  0.00     0.082 C 
HETATM   26  C13 UNL     1      13.116  17.817  20.037  1.00  0.00     0.051 C 
HETATM   27  C14 UNL     1      14.968  17.910  18.360  1.00  0.00     0.051 C 
BRANCH  25  28
HETATM   28  O3  UNL     1      12.995  16.800  17.926  1.00  0.00    -0.385 OA
ATOM     29  H3  UNL     1      13.539  16.107  18.282  1.00  0.00     0.211 HD
ENDBRANCH  25  28
ENDBRANCH  24  25
ENDBRANCH  22  24
ENDBRANCH  17  20
ENDBRANCH  15  17
ENDBRANCH  12  13
ENDBRANCH   2  12
BRANCH   1  30
HETATM   30  C2  UNL     1      19.449  25.356  14.898  1.00  0.00     0.054 C 
HETATM   31  C1  UNL     1      18.311  26.259  14.521  1.00  0.00     0.011 C 
ENDBRANCH   1  30
BRANCH  11  32
HETATM   32  C21 UNL     1      20.592  26.855  17.137  1.00  0.00     0.112 C 
BRANCH  32  33
HETATM   33  C22 UNL     1      21.939  27.097  16.632  1.00  0.00    -0.013 A 
HETATM   34  C23 UNL     1      23.023  26.471  17.307  1.00  0.00     0.023 A 
HETATM   35  C24 UNL     1      24.312  26.573  16.916  1.00  0.00    -0.028 A 
HETATM   36  C25 UNL     1      25.440  25.914  17.635  1.00  0.00     0.051 C 
HETATM   37  C26 UNL     1      24.602  27.326  15.799  1.00  0.00     0.074 A 
HETATM   38  C28 UNL     1      23.565  27.943  15.127  1.00  0.00     0.044 A 
HETATM   39  C29 UNL     1      22.227  27.829  15.543  1.00  0.00    -0.048 A 
HETATM   40  C30 UNL     1      21.278  28.562  14.697  1.00  0.00     0.049 C 
BRANCH  37  41
HETATM   41  O5  UNL     1      25.917  27.449  15.370  1.00  0.00    -0.355 OA
HETATM   42  C27 UNL     1      26.437  28.740  15.161  1.00  0.00     0.210 C 
ENDBRANCH  37  41
ENDBRANCH  32  33
ENDBRANCH  11  32
BRANCH   7  43
HETATM   43  C17 UNL     1      19.785  23.417  21.241  1.00  0.00     0.145 C 
HETATM   44  C18 UNL     1      21.188  22.812  21.363  1.00  0.00     0.028 C 
ENDBRANCH   7  43
TORSDOF 13
ENDMDL
MODEL 4
REMARK VINA RESULT: -8.648989802      1.052      1.155
REMARK  13 active torsions:
REMARK  status: ('A' for Active; 'I' for Inactive)
REMARK    1  A    between atoms: C2_2  and  C3_3 
REMARK    2  A    between atoms: C4_4  and  C5_5 
REMARK    3  A    between atoms: C5_5  and  C6_6 
REMARK       I    between atoms: C6_6  and  N1_8 
REMARK    4  A    between atoms: N1_8  and  C7_10 
REMARK    5  A    between atoms: C7_10  and  C8_11 
REMARK    6  A    between atoms: C7_10  and  C10_13 
REMARK       I    between atoms: C10_13  and  N2_15 
REMARK    7  A    between atoms: N2_15  and  C11_17 
REMARK    8  A    between atoms: C11_17  and  C12_18 
REMARK    9  A    between atoms: C12_18  and  O3_21 
REMARK   10  A    between atoms: N4_27  and  C17_28 
REMARK   11  A    between atoms: N5_33  and  C21_34 
REMARK   12  A    between atoms: C21_34  and  C22_35 
REMARK   13  A    between atoms: C26_39  and  O5_40 
ROOT
HETATM    1  C3  UNL     1      20.415  25.554  16.122  1.00  0.00     0.027 A 
HETATM    2  C4  UNL     1      19.667  24.407  16.431  1.00  0.00    -0.012 A 
HETATM    3  C15 UNL     1      19.635  23.946  17.743  1.00  0.00     0.023 A 
HETATM    4  C16 UNL     1      19.002  22.876  18.336  1.00  0.00     0.121 A 
HETATM    5  N3  UNL     1      19.322  22.907  19.634  1.00  0.00    -0.308 N 
ATOM      6  H3  UNL     1      19.001  22.237  20.333  1.00  0.00     0.186 HD
HETATM    7  N4  UNL     1      20.129  23.951  19.881  1.00  0.00    -0.287 N 
HETATM    8  C19 UNL     1      20.328  24.602  18.713  1.00  0.00     0.131 A 
HETATM    9  C20 UNL     1      21.034  25.710  18.332  1.00  0.00     0.281 A 
HETATM   10  O4  UNL     1      21.660  26.300  19.213  1.00  0.00    -0.265 OA
HETATM   11  N5  UNL     1      21.103  26.216  17.062  1.00  0.00    -0.290 N 
ENDROOT
BRANCH   2  12
HETATM   12  C5  UNL     1      18.962  23.566  15.432  1.00  0.00     0.144 C 
BRANCH  12  13
HETATM   13  C6  UNL     1      17.488  23.730  15.460  1.00  0.00     0.222 C 
HETATM   14  O1  UNL     1      17.001  24.858  15.618  1.00  0.00    -0.273 OA
HETATM   15  N1  UNL     1      16.649  22.608  15.306  1.00  0.00    -0.348 N 
ATOM     16  H1  UNL     1      17.057  21.683  15.170  1.00  0.00     0.163 HD
BRANCH  15  17
HETATM   17  C7  UNL     1      15.211  22.761  15.338  1.00  0.00     0.176 C 
BRANCH  17  18
HETATM   18  C8  UNL     1      14.647  21.829  14.283  1.00  0.00     0.030 C 
HETATM   19  C9  UNL     1      15.533  21.878  13.087  1.00  0.00     0.007 C 
ENDBRANCH  17  18
BRANCH  17  20
HETATM   20  C10 UNL     1      14.655  22.437  16.685  1.00  0.00     0.244 C 
HETATM   21  O2  UNL     1      14.787  23.320  17.541  1.00  0.00    -0.271 OA
HETATM   22  N2  UNL     1      14.026  21.222  16.982  1.00  0.00    -0.336 N 
ATOM     23  H2  UNL     1      13.981  20.575  16.196  1.00  0.00     0.168 HD
BRANCH  22  24
HETATM   24  C11 UNL     1      13.442  20.728  18.164  1.00  0.00     0.100 C 
BRANCH  24  25
HETATM   25  C12 UNL     1      14.144  19.795  19.055  1.00  0.00     0.082 C 
HETATM   26  C13 UNL     1      14.995  20.471  20.108  1.00  0.00     0.051 C 
HETATM   27  C14 UNL     1      14.861  18.628  18.424  1.00  0.00     0.051 C 
BRANCH  25  28
HETATM   28  O3  UNL     1      13.082  19.150  19.795  1.00  0.00    -0.385 OA
ATOM     29  H3  UNL     1      13.375  18.250  19.881  1.00  0.00     0.211 HD
ENDBRANCH  25  28
ENDBRANCH  24  25
ENDBRANCH  22  24
ENDBRANCH  17  20
ENDBRANCH  15  17
ENDBRANCH  12  13
ENDBRANCH   2  12
BRANCH   1  30
HETATM   30  C2  UNL     1      20.515  25.922  14.718  1.00  0.00     0.054 C 
HETATM   31  C1  UNL     1      19.510  26.958  14.304  1.00  0.00     0.011 C 
ENDBRANCH   1  30
BRANCH  11  32
HETATM   32  C21 UNL     1      21.806  27.429  16.871  1.00  0.00     0.112 C 
BRANCH  32  33
HETATM   33  C22 UNL     1      23.172  27.510  16.366  1.00  0.00    -0.013 A 
HETATM   34  C23 UNL     1      24.131  26.605  16.899  1.00  0.00     0.023 A 
HETATM   35  C24 UNL     1      25.416  26.543  16.489  1.00  0.00    -0.028 A 
HETATM   36  C25 UNL     1      26.412  25.590  17.058  1.00  0.00     0.051 C 
HETATM   37  C26 UNL     1      25.830  27.402  15.495  1.00  0.00     0.074 A 
HETATM   38  C28 UNL     1      24.917  28.290  14.962  1.00  0.00     0.044 A 
HETATM   39  C29 UNL     1      23.581  28.346  15.398  1.00  0.00    -0.048 A 
HETATM   40  C30 UNL     1      22.774  29.359  14.709  1.00  0.00     0.049 C 
BRANCH  37  41
HETATM   41  O5  UNL     1      27.145  27.363  15.049  1.00  0.00    -0.355 OA
HETATM   42  C27 UNL     1      27.941  28.513  15.199  1.00  0.00     0.210 C 
ENDBRANCH  37  41
ENDBRANCH  32  33
ENDBRANCH  11  32
BRANCH   7  43
HETATM   43  C17 UNL     1      20.688  24.321  21.161  1.00  0.00     0.145 C 
HETATM   44  C18 UNL     1      22.035  23.604  21.311  1.00  0.00     0.028 C 
ENDBRANCH   7  43
TORSDOF 13
ENDMDL
MODEL 5
REMARK VINA RESULT: -8.560601666      2.574      4.527
REMARK  13 active torsions:
REMARK  status: ('A' for Active; 'I' for Inactive)
REMARK    1  A    between atoms: C2_2  and  C3_3 
REMARK    2  A    between atoms: C4_4  and  C5_5 
REMARK    3  A    between atoms: C5_5  and  C6_6 
REMARK       I    between atoms: C6_6  and  N1_8 
REMARK    4  A    between atoms: N1_8  and  C7_10 
REMARK    5  A    between atoms: C7_10  and  C8_11 
REMARK    6  A    between atoms: C7_10  and  C10_13 
REMARK       I    between atoms: C10_13  and  N2_15 
REMARK    7  A    between atoms: N2_15  and  C11_17 
REMARK    8  A    between atoms: C11_17  and  C12_18 
REMARK    9  A    between atoms: C12_18  and  O3_21 
REMARK   10  A    between atoms: N4_27  and  C17_28 
REMARK   11  A    between atoms: N5_33  and  C21_34 
REMARK   12  A    between atoms: C21_34  and  C22_35 
REMARK   13  A    between atoms: C26_39  and  O5_40 
ROOT
HETATM    1  C3  UNL     1      20.017  24.711  18.991  1.00  0.00     0.027 A 
HETATM    2  C4  UNL     1      19.362  24.114  17.903  1.00  0.00    -0.012 A 
HETATM    3  C15 UNL     1      19.264  24.808  16.701  1.00  0.00     0.023 A 
HETATM    4  C16 UNL     1      18.696  24.488  15.488  1.00  0.00     0.121 A 
HETATM    5  N3  UNL     1      18.895  25.534  14.679  1.00  0.00    -0.308 N 
ATOM      6  H3  UNL     1      18.585  25.592  13.709  1.00  0.00     0.186 HD
HETATM    7  N4  UNL     1      19.563  26.497  15.333  1.00  0.00    -0.287 N 
HETATM    8  C19 UNL     1      19.797  26.056  16.589  1.00  0.00     0.131 A 
HETATM    9  C20 UNL     1      20.418  26.568  17.695  1.00  0.00     0.281 A 
HETATM   10  O4  UNL     1      20.897  27.697  17.589  1.00  0.00    -0.265 OA
HETATM   11  N5  UNL     1      20.551  25.936  18.903  1.00  0.00    -0.290 N 
ENDROOT
BRANCH   2  12
HETATM   12  C5  UNL     1      18.662  22.806  17.954  1.00  0.00     0.144 C 
BRANCH  12  13
HETATM   13  C6  UNL     1      17.188  22.931  18.058  1.00  0.00     0.222 C 
HETATM   14  O1  UNL     1      16.697  23.734  18.864  1.00  0.00    -0.273 OA
HETATM   15  N1  UNL     1      16.352  22.142  17.242  1.00  0.00    -0.348 N 
ATOM     16  H1  UNL     1      16.764  21.488  16.576  1.00  0.00     0.163 HD
BRANCH  15  17
HETATM   17  C7  UNL     1      14.914  22.255  17.342  1.00  0.00     0.176 C 
BRANCH  17  18
HETATM   18  C8  UNL     1      14.431  22.876  16.046  1.00  0.00     0.030 C 
HETATM   19  C9  UNL     1      15.446  22.611  14.988  1.00  0.00     0.007 C 
ENDBRANCH  17  18
BRANCH  17  20
HETATM   20  C10 UNL     1      14.274  20.926  17.565  1.00  0.00     0.244 C 
HETATM   21  O2  UNL     1      14.937  19.948  17.197  1.00  0.00    -0.271 OA
HETATM   22  N2  UNL     1      13.010  20.772  18.148  1.00  0.00    -0.336 N 
ATOM     23  H2  UNL     1      12.562  21.651  18.405  1.00  0.00     0.168 HD
BRANCH  22  24
HETATM   24  C11 UNL     1      12.242  19.630  18.445  1.00  0.00     0.100 C 
BRANCH  24  25
HETATM   25  C12 UNL     1      12.588  18.716  19.541  1.00  0.00     0.082 C 
HETATM   26  C13 UNL     1      13.662  19.244  20.467  1.00  0.00     0.051 C 
HETATM   27  C14 UNL     1      12.810  17.264  19.201  1.00  0.00     0.051 C 
BRANCH  25  28
HETATM   28  O3  UNL     1      11.390  18.671  20.351  1.00  0.00    -0.385 OA
ATOM     29  H3  UNL     1      11.044  19.554  20.301  1.00  0.00     0.211 HD
ENDBRANCH  25  28
ENDBRANCH  24  25
ENDBRANCH  22  24
ENDBRANCH  17  20
ENDBRANCH  15  17
ENDBRANCH  12  13
ENDBRANCH   2  12
BRANCH   1  30
HETATM   30  C2  UNL     1      19.984  23.997  20.258  1.00  0.00     0.054 C 
HETATM   31  C1  UNL     1      21.081  22.979  20.393  1.00  0.00     0.011 C 
ENDBRANCH   1  30
BRANCH  11  32
HETATM   32  C21 UNL     1      21.309  26.583  19.907  1.00  0.00     0.112 C 
BRANCH  32  33
HETATM   33  C22 UNL     1      22.623  26.136  20.353  1.00  0.00    -0.013 A 
HETATM   34  C23 UNL     1      23.556  25.725  19.361  1.00  0.00     0.023 A 
HETATM   35  C24 UNL     1      24.820  25.333  19.633  1.00  0.00    -0.028 A 
HETATM   36  C25 UNL     1      25.788  24.902  18.583  1.00  0.00     0.051 C 
HETATM   37  C26 UNL     1      25.237  25.328  20.946  1.00  0.00     0.074 A 
HETATM   38  C28 UNL     1      24.348  25.723  21.927  1.00  0.00     0.044 A 
HETATM   39  C29 UNL     1      23.035  26.129  21.631  1.00  0.00    -0.048 A 
HETATM   40  C30 UNL     1      22.251  26.506  22.812  1.00  0.00     0.049 C 
BRANCH  37  41
HETATM   41  O5  UNL     1      26.531  24.933  21.260  1.00  0.00    -0.355 OA
HETATM   42  C27 UNL     1      26.708  23.861  22.154  1.00  0.00     0.210 C 
ENDBRANCH  37  41
ENDBRANCH  32  33
ENDBRANCH  11  32
BRANCH   7  43
HETATM   43  C17 UNL     1      19.964  27.779  14.800  1.00  0.00     0.145 C 
HETATM   44  C18 UNL     1      21.360  27.618  14.188  1.00  0.00     0.028 C 
ENDBRANCH   7  43
TORSDOF 13
ENDMDL
