MODEL 1
REMARK VINA RESULT: -8.081376071      0.000      0.000
REMARK  13 active torsions:
REMARK  status: ('A' for Active; 'I' for Inactive)
REMARK    1  A    between atoms: C3_3  and  O1_4 
REMARK    2  A    between atoms: C3_3  and  C4_6 
REMARK    3  A    between atoms: C4_6  and  C5_7 
REMARK    4  A    between atoms: C6_8  and  O2_9 
REMARK    5  A    between atoms: O2_9  and  C7_10 
REMARK    6  A    between atoms: C8_11  and  O3_12 
REMARK    7  A    between atoms: C11_15  and  C12_16 
REMARK    8  A    between atoms: C12_16  and  N1_17 
REMARK    9  A    between atoms: C16_21  and  C17_22 
REMARK   10  A    between atoms: C21_28  and  S1_29 
REMARK   11  A    between atoms: S1_29  and  C22_30 
REMARK   12  A    between atoms: C22_30  and  C23_31 
REMARK   13  A    between atoms: C23_31  and  N3_32 
ROOT
HETATM    1  C1  UNL     1      14.725  17.103  18.407  1.00  0.00     0.015 C 
HETATM    2  C2  UNL     1      14.045  17.914  19.003  1.00  0.00    -0.085 C 
HETATM    3  C3  UNL     1      13.200  18.899  19.747  1.00  0.00     0.200 C 
ENDROOT
BRANCH   3   4
HETATM    4  O1  UNL     1      12.016  18.196  19.997  1.00  0.00    -0.383 OA
ATOM      5  H1  UNL     1      11.960  18.181  20.945  1.00  0.00     0.211 HD
ENDBRANCH   3   4
BRANCH   3   6
HETATM    6  C4  UNL     1      13.053  20.046  18.851  1.00  0.00     0.093 C 
BRANCH   6   7
HETATM    7  C5  UNL     1      12.654  19.864  17.471  1.00  0.00     0.065 A 
HETATM    8  C6  UNL     1      13.606  20.161  16.474  1.00  0.00     0.162 A 
HETATM    9  N2  UNL     1      13.237  20.073  15.183  1.00  0.00    -0.316 N 
HETATM   10  C21 UNL     1      12.011  19.716  14.762  1.00  0.00     0.149 A 
ATOM     11  H2  UNL     1      13.937  20.292  14.474  1.00  0.00     0.170 HD
HETATM   12  N5  UNL     1      11.115  19.434  15.717  1.00  0.00    -0.303 N 
HETATM   13  C27 UNL     1      11.412  19.500  17.029  1.00  0.00     0.258 A 
ATOM     14  H5  UNL     1      10.173  19.158  15.440  1.00  0.00     0.171 HD
HETATM   15  O5  UNL     1      10.561  19.233  17.916  1.00  0.00    -0.267 OA
BRANCH   8  16
HETATM   16  O2  UNL     1      14.890  20.519  16.795  1.00  0.00    -0.290 OA
BRANCH  16  17
HETATM   17  C7  UNL     1      15.659  21.551  16.371  1.00  0.00     0.118 A 
HETATM   18  C8  UNL     1      15.865  21.898  15.054  1.00  0.00     0.103 A 
HETATM   19  C10 UNL     1      16.679  22.966  14.702  1.00  0.00     0.048 A 
HETATM   20  C11 UNL     1      17.308  23.718  15.664  1.00  0.00    -0.027 A 
HETATM   21  C15 UNL     1      17.086  23.353  16.976  1.00  0.00     0.019 A 
HETATM   22  C16 UNL     1      16.292  22.306  17.372  1.00  0.00    -0.013 A 
BRANCH  18  23
HETATM   23  O3  UNL     1      15.287  21.226  13.999  1.00  0.00    -0.353 OA
HETATM   24  C9  UNL     1      15.403  21.687  12.683  1.00  0.00     0.210 C 
ENDBRANCH  18  23
BRANCH  20  25
HETATM   25  C12 UNL     1      18.182  24.873  15.277  1.00  0.00     0.310 C 
BRANCH  25  26
HETATM   26  N1  UNL     1      19.438  24.756  16.008  1.00  0.00     0.084 N 
HETATM   27  C13 UNL     1      20.570  24.773  15.079  1.00  0.00     0.309 C 
HETATM   28  C14 UNL     1      19.596  25.943  16.860  1.00  0.00     0.309 C 
ENDBRANCH  25  26
ENDBRANCH  20  25
BRANCH  22  29
HETATM   29  C17 UNL     1      16.169  22.023  18.785  1.00  0.00    -0.021 C 
HETATM   30  C18 UNL     1      17.120  22.889  19.582  1.00  0.00     0.019 C 
HETATM   31  C19 UNL     1      14.782  22.397  19.266  1.00  0.00     0.019 C 
HETATM   32  C20 UNL     1      16.445  20.604  19.190  1.00  0.00     0.019 C 
ENDBRANCH  22  29
ENDBRANCH  16  17
ENDBRANCH   8  16
BRANCH  10  33
HETATM   33  S1  UNL     1      11.564  19.617  13.045  1.00  0.00    -0.092 SA
BRANCH  33  34
HETATM   34  C22 UNL     1      10.517  18.147  12.708  1.00  0.00     0.102 C 
BRANCH  34  35
HETATM   35  C23 UNL     1      11.272  16.927  13.150  1.00  0.00     0.138 C 
BRANCH  35  36
HETATM   36  N3  UNL     1      10.465  15.906  13.741  1.00  0.00    -0.332 N 
HETATM   37  C24 UNL     1      10.156  14.652  13.065  1.00  0.00     0.147 C 
HETATM   38  C25 UNL     1       9.992  13.644  14.182  1.00  0.00     0.144 C 
HETATM   39  N4  UNL     1       9.469  14.461  15.274  1.00  0.00    -0.341 N 
HETATM   40  C26 UNL     1       9.813  15.811  14.988  1.00  0.00     0.318 C 
ATOM     41  H4  UNL     1       8.955  14.126  16.089  1.00  0.00     0.164 HD
HETATM   42  O4  UNL     1       9.577  16.796  15.732  1.00  0.00    -0.247 OA
ENDBRANCH  35  36
ENDBRANCH  34  35
ENDBRANCH  33  34
ENDBRANCH  10  33
ENDBRANCH   6   7
ENDBRANCH   3   6
TORSDOF 13
ENDMDL
MODEL 2
REMARK VINA RESULT: -7.869276009      1.421      1.817
REMARK  13 active torsions:
REMARK  status: ('A' for Active; 'I' for Inactive)
REMARK    1  A    between atoms: C3_3  and  O1_4 
REMARK    2  A    between atoms: C3_3  and  C4_6 
REMARK    3  A    between atoms: C4_6  and  C5_7 
REMARK    4  A    between atoms: C6_8  and  O2_9 
REMARK    5  A    between atoms: O2_9  and  C7_10 
REMARK    6  A    between atoms: C8_11  and  O3_12 
REMARK    7  A    between atoms: C11_15  and  C12_16 
REMARK    8  A    between atoms: C12_16  and  N1_17 
REMARK    9  A    between atoms: C16_21  and  C17_22 
REMARK   10  A    between atoms: C21_28  and  S1_29 
REMARK   11  A    between atoms: S1_29  and  C22_30 
REMARK   12  A    between atoms: C22_30  and  C23_31 
REMARK   13  A    between atoms: C23_31  and  N3_32 
ROOT
HETATM    1  C1  UNL     1      14.675  17.184  18.490  1.00  0.00     0.015 C 
HETATM    2  C2  UNL     1      13.969  18.011  19.032  1.00  0.00    -0.085 C 
HETATM    3  C3  UNL     1      13.092  19.016  19.709  1.00  0.00     0.200 C 
ENDROOT
BRANCH   3   4
HETATM    4  O1  UNL     1      11.917  18.305  19.973  1.00  0.00    -0.383 OA
ATOM      5  H1  UNL     1      11.787  18.424  20.906  1.00  0.00     0.211 HD
ENDBRANCH   3   4
BRANCH   3   6
HETATM    6  C4  UNL     1      12.942  20.113  18.752  1.00  0.00     0.093 C 
BRANCH   6   7
HETATM    7  C5  UNL     1      12.613  19.851  17.367  1.00  0.00     0.065 A 
HETATM    8  C6  UNL     1      13.612  20.098  16.403  1.00  0.00     0.162 A 
HETATM    9  N2  UNL     1      13.308  19.935  15.102  1.00  0.00    -0.316 N 
HETATM   10  C21 UNL     1      12.106  19.546  14.642  1.00  0.00     0.149 A 
ATOM     11  H2  UNL     1      14.041  20.119  14.417  1.00  0.00     0.170 HD
HETATM   12  N5  UNL     1      11.165  19.311  15.567  1.00  0.00    -0.303 N 
HETATM   13  C27 UNL     1      11.396  19.454  16.886  1.00  0.00     0.258 A 
ATOM     14  H5  UNL     1      10.239  19.013  15.259  1.00  0.00     0.171 HD
HETATM   15  O5  UNL     1      10.503  19.230  17.743  1.00  0.00    -0.267 OA
BRANCH   8  16
HETATM   16  O2  UNL     1      14.876  20.483  16.766  1.00  0.00    -0.290 OA
BRANCH  16  17
HETATM   17  C7  UNL     1      15.640  21.527  16.361  1.00  0.00     0.118 A 
HETATM   18  C8  UNL     1      15.841  21.902  15.051  1.00  0.00     0.103 A 
HETATM   19  C10 UNL     1      16.650  22.980  14.719  1.00  0.00     0.048 A 
HETATM   20  C11 UNL     1      17.279  23.715  15.694  1.00  0.00    -0.027 A 
HETATM   21  C15 UNL     1      17.062  23.322  17.000  1.00  0.00     0.019 A 
HETATM   22  C16 UNL     1      16.273  22.264  17.376  1.00  0.00    -0.013 A 
BRANCH  18  23
HETATM   23  O3  UNL     1      15.263  21.249  13.984  1.00  0.00    -0.353 OA
HETATM   24  C9  UNL     1      15.436  21.696  12.669  1.00  0.00     0.210 C 
ENDBRANCH  18  23
BRANCH  20  25
HETATM   25  C12 UNL     1      18.146  24.881  15.329  1.00  0.00     0.310 C 
BRANCH  25  26
HETATM   26  N1  UNL     1      19.415  24.740  16.034  1.00  0.00     0.084 N 
HETATM   27  C13 UNL     1      20.534  24.878  15.100  1.00  0.00     0.309 C 
HETATM   28  C14 UNL     1      19.547  25.851  16.988  1.00  0.00     0.309 C 
ENDBRANCH  25  26
ENDBRANCH  20  25
BRANCH  22  29
HETATM   29  C17 UNL     1      16.155  21.951  18.784  1.00  0.00    -0.021 C 
HETATM   30  C18 UNL     1      17.105  22.805  19.596  1.00  0.00     0.019 C 
HETATM   31  C19 UNL     1      14.768  22.310  19.275  1.00  0.00     0.019 C 
HETATM   32  C20 UNL     1      16.438  20.525  19.159  1.00  0.00     0.019 C 
ENDBRANCH  22  29
ENDBRANCH  16  17
ENDBRANCH   8  16
BRANCH  10  33
HETATM   33  S1  UNL     1      11.746  19.347  12.913  1.00  0.00    -0.092 SA
BRANCH  33  34
HETATM   34  C22 UNL     1      10.534  17.997  12.632  1.00  0.00     0.102 C 
BRANCH  34  35
HETATM   35  C23 UNL     1      11.164  16.708  13.070  1.00  0.00     0.138 C 
BRANCH  35  36
HETATM   36  N3  UNL     1      11.653  15.888  12.005  1.00  0.00    -0.332 N 
HETATM   37  C24 UNL     1      10.836  14.875  11.348  1.00  0.00     0.147 C 
HETATM   38  C25 UNL     1      11.372  14.809   9.935  1.00  0.00     0.144 C 
HETATM   39  N4  UNL     1      12.785  15.135  10.113  1.00  0.00    -0.341 N 
HETATM   40  C26 UNL     1      12.901  15.821  11.353  1.00  0.00     0.318 C 
ATOM     41  H4  UNL     1      13.545  14.913   9.470  1.00  0.00     0.164 HD
HETATM   42  O4  UNL     1      13.963  16.307  11.820  1.00  0.00    -0.247 OA
ENDBRANCH  35  36
ENDBRANCH  34  35
ENDBRANCH  33  34
ENDBRANCH  10  33
ENDBRANCH   6   7
ENDBRANCH   3   6
TORSDOF 13
ENDMDL
MODEL 3
REMARK VINA RESULT: -7.853741333      0.849      1.158
REMARK  13 active torsions:
REMARK  status: ('A' for Active; 'I' for Inactive)
REMARK    1  A    between atoms: C3_3  and  O1_4 
REMARK    2  A    between atoms: C3_3  and  C4_6 
REMARK    3  A    between atoms: C4_6  and  C5_7 
REMARK    4  A    between atoms: C6_8  and  O2_9 
REMARK    5  A    between atoms: O2_9  and  C7_10 
REMARK    6  A    between atoms: C8_11  and  O3_12 
REMARK    7  A    between atoms: C11_15  and  C12_16 
REMARK    8  A    between atoms: C12_16  and  N1_17 
REMARK    9  A    between atoms: C16_21  and  C17_22 
REMARK   10  A    between atoms: C21_28  and  S1_29 
REMARK   11  A    between atoms: S1_29  and  C22_30 
REMARK   12  A    between atoms: C22_30  and  C23_31 
REMARK   13  A    between atoms: C23_31  and  N3_32 
ROOT
HETATM    1  C1  UNL     1      13.732  16.920  18.548  1.00  0.00     0.015 C 
HETATM    2  C2  UNL     1      13.244  17.917  19.043  1.00  0.00    -0.085 C 
HETATM    3  C3  UNL     1      12.633  19.134  19.663  1.00  0.00     0.200 C 
ENDROOT
BRANCH   3   4
HETATM    4  O1  UNL     1      11.337  18.722  19.992  1.00  0.00    -0.383 OA
ATOM      5  H1  UNL     1      10.781  19.350  19.547  1.00  0.00     0.211 HD
ENDBRANCH   3   4
BRANCH   3   6
HETATM    6  C4  UNL     1      12.702  20.174  18.636  1.00  0.00     0.093 C 
BRANCH   6   7
HETATM    7  C5  UNL     1      12.407  19.872  17.251  1.00  0.00     0.065 A 
HETATM    8  C6  UNL     1      13.444  20.045  16.312  1.00  0.00     0.162 A 
HETATM    9  N2  UNL     1      13.176  19.844  15.009  1.00  0.00    -0.316 N 
HETATM   10  C21 UNL     1      11.975  19.482  14.524  1.00  0.00     0.149 A 
ATOM     11  H2  UNL     1      13.937  19.975  14.342  1.00  0.00     0.170 HD
HETATM   12  N5  UNL     1      10.997  19.317  15.425  1.00  0.00    -0.303 N 
HETATM   13  C27 UNL     1      11.191  19.501  16.745  1.00  0.00     0.258 A 
ATOM     14  H5  UNL     1      10.071  19.041  15.099  1.00  0.00     0.171 HD
HETATM   15  O5  UNL     1      10.265  19.343  17.580  1.00  0.00    -0.267 OA
BRANCH   8  16
HETATM   16  O2  UNL     1      14.710  20.397  16.702  1.00  0.00    -0.290 OA
BRANCH  16  17
HETATM   17  C7  UNL     1      15.392  21.561  16.566  1.00  0.00     0.118 A 
HETATM   18  C8  UNL     1      15.354  22.378  15.459  1.00  0.00     0.103 A 
HETATM   19  C10 UNL     1      16.093  23.551  15.394  1.00  0.00     0.048 A 
HETATM   20  C11 UNL     1      16.893  23.938  16.442  1.00  0.00    -0.027 A 
HETATM   21  C15 UNL     1      16.915  23.104  17.542  1.00  0.00     0.019 A 
HETATM   22  C16 UNL     1      16.203  21.936  17.650  1.00  0.00    -0.013 A 
BRANCH  18  23
HETATM   23  O3  UNL     1      14.588  22.104  14.347  1.00  0.00    -0.353 OA
HETATM   24  C9  UNL     1      15.169  21.737  13.127  1.00  0.00     0.210 C 
ENDBRANCH  18  23
BRANCH  20  25
HETATM   25  C12 UNL     1      17.685  25.207  16.367  1.00  0.00     0.310 C 
BRANCH  25  26
HETATM   26  N1  UNL     1      18.696  25.051  15.328  1.00  0.00     0.084 N 
HETATM   27  C13 UNL     1      18.885  26.311  14.609  1.00  0.00     0.309 C 
HETATM   28  C14 UNL     1      19.985  24.755  15.970  1.00  0.00     0.309 C 
ENDBRANCH  25  26
ENDBRANCH  20  25
BRANCH  22  29
HETATM   29  C17 UNL     1      16.342  21.147  18.855  1.00  0.00    -0.021 C 
HETATM   30  C18 UNL     1      16.207  19.673  18.540  1.00  0.00     0.019 C 
HETATM   31  C19 UNL     1      17.738  21.314  19.420  1.00  0.00     0.019 C 
HETATM   32  C20 UNL     1      15.351  21.442  19.944  1.00  0.00     0.019 C 
ENDBRANCH  22  29
ENDBRANCH  16  17
ENDBRANCH   8  16
BRANCH  10  33
HETATM   33  S1  UNL     1      11.662  19.231  12.793  1.00  0.00    -0.092 SA
BRANCH  33  34
HETATM   34  C22 UNL     1      10.669  17.713  12.504  1.00  0.00     0.102 C 
BRANCH  34  35
HETATM   35  C23 UNL     1      11.482  16.534  12.952  1.00  0.00     0.138 C 
BRANCH  35  36
HETATM   36  N3  UNL     1      10.764  15.574  13.732  1.00  0.00    -0.332 N 
HETATM   37  C24 UNL     1       9.825  14.623  13.149  1.00  0.00     0.147 C 
HETATM   38  C25 UNL     1       9.891  13.415  14.057  1.00  0.00     0.144 C 
HETATM   39  N4  UNL     1      10.186  14.008  15.358  1.00  0.00    -0.341 N 
HETATM   40  C26 UNL     1      10.748  15.291  15.114  1.00  0.00     0.318 C 
ATOM     41  H4  UNL     1      10.020  13.584  16.271  1.00  0.00     0.164 HD
HETATM   42  O4  UNL     1      11.178  16.078  15.995  1.00  0.00    -0.247 OA
ENDBRANCH  35  36
ENDBRANCH  34  35
ENDBRANCH  33  34
ENDBRANCH  10  33
ENDBRANCH   6   7
ENDBRANCH   3   6
TORSDOF 13
ENDMDL
MODEL 4
REMARK VINA RESULT: -7.798410676      5.600     11.545
REMARK  13 active torsions:
REMARK  status: ('A' for Active; 'I' for Inactive)
REMARK    1  A    between atoms: C3_3  and  O1_4 
REMARK    2  A    between atoms: C3_3  and  C4_6 
REMARK    3  A    between atoms: C4_6  and  C5_7 
REMARK    4  A    between atoms: C6_8  and  O2_9 
REMARK    5  A    between atoms: O2_9  and  C7_10 
REMARK    6  A    between atoms: C8_11  and  O3_12 
REMARK    7  A    between atoms: C11_15  and  C12_16 
REMARK    8  A    between atoms: C12_16  and  N1_17 
REMARK    9  A    between atoms: C16_21  and  C17_22 
REMARK   10  A    between atoms: C21_28  and  S1_29 
REMARK   11  A    between atoms: S1_29  and  C22_30 
REMARK   12  A    between atoms: C22_30  and  C23_31 
REMARK   13  A    between atoms: C23_31  and  N3_32 
ROOT
HETATM    1  C1  UNL     1      24.491  24.822  21.642  1.00  0.00     0.015 C 
HETATM    2  C2  UNL     1      23.450  24.286  21.315  1.00  0.00    -0.085 C 
HETATM    3  C3  UNL     1      22.179  23.613  20.905  1.00  0.00     0.200 C 
ENDROOT
BRANCH   3   4
HETATM    4  O1  UNL     1      22.511  22.984  19.700  1.00  0.00    -0.383 OA
ATOM      5  H1  UNL     1      21.729  23.085  19.171  1.00  0.00     0.211 HD
ENDBRANCH   3   4
BRANCH   3   6
HETATM    6  C4  UNL     1      21.189  24.685  20.783  1.00  0.00     0.093 C 
BRANCH   6   7
HETATM    7  C5  UNL     1      21.246  25.627  19.686  1.00  0.00     0.065 A 
HETATM    8  C6  UNL     1      20.771  25.194  18.431  1.00  0.00     0.162 A 
HETATM    9  N2  UNL     1      20.883  26.023  17.377  1.00  0.00    -0.316 N 
HETATM   10  C21 UNL     1      21.420  27.255  17.428  1.00  0.00     0.149 A 
ATOM     11  H2  UNL     1      20.535  25.694  16.476  1.00  0.00     0.170 HD
HETATM   12  N5  UNL     1      21.866  27.657  18.626  1.00  0.00    -0.303 N 
HETATM   13  C27 UNL     1      21.788  26.883  19.725  1.00  0.00     0.258 A 
ATOM     14  H5  UNL     1      22.279  28.586  18.708  1.00  0.00     0.171 HD
HETATM   15  O5  UNL     1      22.211  27.272  20.843  1.00  0.00    -0.267 OA
BRANCH   8  16
HETATM   16  O2  UNL     1      20.191  23.962  18.273  1.00  0.00    -0.290 OA
BRANCH  16  17
HETATM   17  C7  UNL     1      19.200  23.544  17.448  1.00  0.00     0.118 A 
HETATM   18  C8  UNL     1      19.175  23.723  16.083  1.00  0.00     0.103 A 
HETATM   19  C10 UNL     1      18.114  23.272  15.309  1.00  0.00     0.048 A 
HETATM   20  C11 UNL     1      17.047  22.627  15.885  1.00  0.00    -0.027 A 
HETATM   21  C15 UNL     1      17.094  22.458  17.255  1.00  0.00     0.019 A 
HETATM   22  C16 UNL     1      18.120  22.886  18.059  1.00  0.00    -0.013 A 
BRANCH  18  23
HETATM   23  O3  UNL     1      20.186  24.350  15.387  1.00  0.00    -0.353 OA
HETATM   24  C9  UNL     1      19.919  25.348  14.444  1.00  0.00     0.210 C 
ENDBRANCH  18  23
BRANCH  20  25
HETATM   25  C12 UNL     1      15.908  22.139  15.044  1.00  0.00     0.310 C 
BRANCH  25  26
HETATM   26  N1  UNL     1      14.698  22.172  15.856  1.00  0.00     0.084 N 
HETATM   27  C13 UNL     1      13.735  23.124  15.298  1.00  0.00     0.309 C 
HETATM   28  C14 UNL     1      14.050  20.854  15.785  1.00  0.00     0.309 C 
ENDBRANCH  25  26
ENDBRANCH  20  25
BRANCH  22  29
HETATM   29  C17 UNL     1      18.024  22.662  19.485  1.00  0.00    -0.021 C 
HETATM   30  C18 UNL     1      16.772  21.877  19.814  1.00  0.00     0.019 C 
HETATM   31  C19 UNL     1      19.178  21.795  19.948  1.00  0.00     0.019 C 
HETATM   32  C20 UNL     1      17.987  23.897  20.337  1.00  0.00     0.019 C 
ENDBRANCH  22  29
ENDBRANCH  16  17
ENDBRANCH   8  16
BRANCH  10  33
HETATM   33  S1  UNL     1      21.552  28.317  16.010  1.00  0.00    -0.092 SA
BRANCH  33  34
HETATM   34  C22 UNL     1      23.155  28.084  15.144  1.00  0.00     0.102 C 
BRANCH  34  35
HETATM   35  C23 UNL     1      24.256  28.298  16.141  1.00  0.00     0.138 C 
BRANCH  35  36
HETATM   36  N3  UNL     1      25.194  27.223  16.236  1.00  0.00    -0.332 N 
HETATM   37  C24 UNL     1      26.249  27.004  15.254  1.00  0.00     0.147 C 
HETATM   38  C25 UNL     1      27.373  26.359  16.036  1.00  0.00     0.144 C 
HETATM   39  N4  UNL     1      26.656  25.609  17.065  1.00  0.00    -0.341 N 
HETATM   40  C26 UNL     1      25.364  26.190  17.181  1.00  0.00     0.318 C 
ATOM     41  H4  UNL     1      27.015  24.818  17.599  1.00  0.00     0.164 HD
HETATM   42  O4  UNL     1      24.481  25.844  18.007  1.00  0.00    -0.247 OA
ENDBRANCH  35  36
ENDBRANCH  34  35
ENDBRANCH  33  34
ENDBRANCH  10  33
ENDBRANCH   6   7
ENDBRANCH   3   6
TORSDOF 13
ENDMDL
MODEL 5
REMARK VINA RESULT: -7.765454442      1.939      2.635
REMARK  13 active torsions:
REMARK  status: ('A' for Active; 'I' for Inactive)
REMARK    1  A    between atoms: C3_3  and  O1_4 
REMARK    2  A    between atoms: C3_3  and  C4_6 
REMARK    3  A    between atoms: C4_6  and  C5_7 
REMARK    4  A    between atoms: C6_8  and  O2_9 
REMARK    5  A    between atoms: O2_9  and  C7_10 
REMARK    6  A    between atoms: C8_11  and  O3_12 
REMARK    7  A    between atoms: C11_15  and  C12_16 
REMARK    8  A    between atoms: C12_16  and  N1_17 
REMARK    9  A    between atoms: C16_21  and  C17_22 
REMARK   10  A    between atoms: C21_28  and  S1_29 
REMARK   11  A    between atoms: S1_29  and  C22_30 
REMARK   12  A    between atoms: C22_30  and  C23_31 
REMARK   13  A    between atoms: C23_31  and  N3_32 
ROOT
HETATM    1  C1  UNL     1      14.717  17.114  18.434  1.00  0.00     0.015 C 
HETATM    2  C2  UNL     1      14.030  17.922  19.027  1.00  0.00    -0.085 C 
HETATM    3  C3  UNL     1      13.177  18.903  19.768  1.00  0.00     0.200 C 
ENDROOT
BRANCH   3   4
HETATM    4  O1  UNL     1      12.003  18.188  20.030  1.00  0.00    -0.383 OA
ATOM      5  H1  UNL     1      12.286  17.502  20.623  1.00  0.00     0.211 HD
ENDBRANCH   3   4
BRANCH   3   6
HETATM    6  C4  UNL     1      13.011  20.041  18.862  1.00  0.00     0.093 C 
BRANCH   6   7
HETATM    7  C5  UNL     1      12.623  19.841  17.482  1.00  0.00     0.065 A 
HETATM    8  C6  UNL     1      13.583  20.125  16.489  1.00  0.00     0.162 A 
HETATM    9  N2  UNL     1      13.224  20.021  15.196  1.00  0.00    -0.316 N 
HETATM   10  C21 UNL     1      12.001  19.658  14.770  1.00  0.00     0.149 A 
ATOM     11  H2  UNL     1      13.929  20.231  14.490  1.00  0.00     0.170 HD
HETATM   12  N5  UNL     1      11.098  19.387  15.722  1.00  0.00    -0.303 N 
HETATM   13  C27 UNL     1      11.384  19.471  17.035  1.00  0.00     0.258 A 
ATOM     14  H5  UNL     1      10.158  19.107  15.441  1.00  0.00     0.171 HD
HETATM   15  O5  UNL     1      10.527  19.214  17.919  1.00  0.00    -0.267 OA
BRANCH   8  16
HETATM   16  O2  UNL     1      14.863  20.488  16.815  1.00  0.00    -0.290 OA
BRANCH  16  17
HETATM   17  C7  UNL     1      15.628  21.526  16.398  1.00  0.00     0.118 A 
HETATM   18  C8  UNL     1      15.802  21.906  15.085  1.00  0.00     0.103 A 
HETATM   19  C10 UNL     1      16.614  22.978  14.740  1.00  0.00     0.048 A 
HETATM   20  C11 UNL     1      17.275  23.700  15.704  1.00  0.00    -0.027 A 
HETATM   21  C15 UNL     1      17.085  23.301  17.012  1.00  0.00     0.019 A 
HETATM   22  C16 UNL     1      16.294  22.250  17.401  1.00  0.00    -0.013 A 
BRANCH  18  23
HETATM   23  O3  UNL     1      15.191  21.267  14.029  1.00  0.00    -0.353 OA
HETATM   24  C9  UNL     1      15.395  21.675  12.706  1.00  0.00     0.210 C 
ENDBRANCH  18  23
BRANCH  20  25
HETATM   25  C12 UNL     1      18.146  24.858  15.324  1.00  0.00     0.310 C 
BRANCH  25  26
HETATM   26  N1  UNL     1      19.407  24.732  16.045  1.00  0.00     0.084 N 
HETATM   27  C13 UNL     1      20.532  24.737  15.108  1.00  0.00     0.309 C 
HETATM   28  C14 UNL     1      19.583  25.920  16.893  1.00  0.00     0.309 C 
ENDBRANCH  25  26
ENDBRANCH  20  25
BRANCH  22  29
HETATM   29  C17 UNL     1      16.207  21.930  18.809  1.00  0.00    -0.021 C 
HETATM   30  C18 UNL     1      16.546  20.473  19.042  1.00  0.00     0.019 C 
HETATM   31  C19 UNL     1      17.248  22.715  19.580  1.00  0.00     0.019 C 
HETATM   32  C20 UNL     1      14.868  22.162  19.448  1.00  0.00     0.019 C 
ENDBRANCH  22  29
ENDBRANCH  16  17
ENDBRANCH   8  16
BRANCH  10  33
HETATM   33  S1  UNL     1      11.567  19.537  13.051  1.00  0.00    -0.092 SA
BRANCH  33  34
HETATM   34  C22 UNL     1      11.055  17.830  12.607  1.00  0.00     0.102 C 
BRANCH  34  35
HETATM   35  C23 UNL     1       9.719  17.908  11.928  1.00  0.00     0.138 C 
BRANCH  35  36
HETATM   36  N3  UNL     1       9.766  18.325  10.561  1.00  0.00    -0.332 N 
HETATM   37  C24 UNL     1      10.439  17.554   9.522  1.00  0.00     0.147 C 
HETATM   38  C25 UNL     1       9.667  17.863   8.257  1.00  0.00     0.144 C 
HETATM   39  N4  UNL     1       9.209  19.230   8.488  1.00  0.00    -0.341 N 
HETATM   40  C26 UNL     1       9.245  19.451   9.892  1.00  0.00     0.318 C 
ATOM     41  H4  UNL     1       8.918  19.901   7.776  1.00  0.00     0.164 HD
HETATM   42  O4  UNL     1       8.869  20.500  10.474  1.00  0.00    -0.247 OA
ENDBRANCH  35  36
ENDBRANCH  34  35
ENDBRANCH  33  34
ENDBRANCH  10  33
ENDBRANCH   6   7
ENDBRANCH   3   6
TORSDOF 13
ENDMDL
