MODEL 1
REMARK VINA RESULT: -9.754302952      0.000      0.000
REMARK  12 active torsions:
REMARK  status: ('A' for Active; 'I' for Inactive)
REMARK    1  A    between atoms: C2_3  and  C3_4 
REMARK    2  A    between atoms: C3_4  and  N2_5 
REMARK       I    between atoms: N2_5  and  C4_7 
REMARK    3  A    between atoms: C4_7  and  C5_9 
REMARK    4  A    between atoms: C5_9  and  C6_10 
REMARK    5  A    between atoms: C5_9  and  O5_34 
REMARK    6  A    between atoms: C6_10  and  C7_11 
REMARK    7  A    between atoms: C7_11  and  C8_12 
REMARK    8  A    between atoms: C8_12  and  O3_14 
REMARK    9  A    between atoms: O3_14  and  C9_15 
REMARK       I    between atoms: N5_24  and  C15_25 
REMARK   10  A    between atoms: C15_25  and  C16_27 
REMARK   11  A    between atoms: O5_34  and  C20_35 
REMARK   12  A    between atoms: C20_35  and  C21_36 
ROOT
HETATM    1  N1  UNL     1      11.168  61.946  20.210  1.00  0.00    -0.197 NA
HETATM    2  C1  UNL     1      11.093  63.100  20.146  1.00  0.00     0.060 C 
HETATM    3  C2  UNL     1      10.986  64.551  20.062  1.00  0.00     0.143 C 
ENDROOT
BRANCH   3   4
HETATM    4  C3  UNL     1      11.936  65.073  19.010  1.00  0.00     0.137 C 
BRANCH   4   5
HETATM    5  N2  UNL     1      12.144  64.031  18.029  1.00  0.00    -0.358 N 
HETATM    6  C4  UNL     1      11.658  64.169  16.672  1.00  0.00     0.246 C 
HETATM    7  O1  UNL     1      11.062  65.243  16.421  1.00  0.00    -0.271 OA
ATOM      8  H2  UNL     1      12.642  63.183  18.298  1.00  0.00     0.162 HD
BRANCH   6   9
HETATM    9  C5  UNL     1      11.859  63.114  15.665  1.00  0.00     0.213 C 
BRANCH   9  10
HETATM   10  C6  UNL     1      12.808  63.500  14.546  1.00  0.00     0.051 C 
BRANCH  10  11
HETATM   11  C7  UNL     1      13.838  64.467  14.997  1.00  0.00     0.114 C 
BRANCH  11  12
HETATM   12  C8  UNL     1      15.188  63.797  15.144  1.00  0.00     0.259 C 
HETATM   13  O2  UNL     1      15.363  62.646  14.699  1.00  0.00    -0.265 OA
BRANCH  12  14
HETATM   14  O3  UNL     1      16.243  64.431  15.761  1.00  0.00    -0.316 OA
BRANCH  14  15
HETATM   15  C9  UNL     1      16.299  65.866  15.873  1.00  0.00     0.138 C 
HETATM   16  C10 UNL     1      16.696  66.258  17.245  1.00  0.00     0.079 C 
HETATM   17  C11 UNL     1      18.058  66.869  17.391  1.00  0.00     0.191 C 
HETATM   18  N3  UNL     1      19.008  65.761  17.168  1.00  0.00    -0.359 N 
HETATM   19  N5  UNL     1      18.392  67.723  16.279  1.00  0.00    -0.318 N 
HETATM   20  C12 UNL     1      19.285  65.691  15.897  1.00  0.00     0.114 C 
ATOM     21  H3  UNL     1      19.386  65.150  17.892  1.00  0.00     0.162 HD
HETATM   22  N4  UNL     1      20.162  64.749  15.292  1.00  0.00    -0.086 NA
HETATM   23  C13 UNL     1      18.528  66.776  15.175  1.00  0.00     0.156 C 
HETATM   24  C14 UNL     1      17.168  66.341  14.765  1.00  0.00     0.065 C 
HETATM   25  C15 UNL     1      18.576  69.107  16.186  1.00  0.00     0.253 C 
HETATM   26  O4  UNL     1      18.876  69.576  15.029  1.00  0.00    -0.271 OA
BRANCH  25  27
HETATM   27  C16 UNL     1      18.465  70.082  17.275  1.00  0.00     0.277 C 
HETATM   28  C17 UNL     1      18.542  71.508  16.763  1.00  0.00     0.044 C 
HETATM   29  C18 UNL     1      20.011  71.866  16.871  1.00  0.00     0.030 C 
HETATM   30  C19 UNL     1      20.655  70.767  17.678  1.00  0.00     0.233 C 
HETATM   31  N6  UNL     1      19.600  69.937  18.171  1.00  0.00    -0.062 N 
ATOM     32  H62 UNL     1      19.364  70.133  19.143  1.00  0.00     0.278 HD
ATOM     33  H61 UNL     1      19.886  68.966  18.294  1.00  0.00     0.278 HD
ENDBRANCH  25  27
ENDBRANCH  14  15
ENDBRANCH  12  14
ENDBRANCH  11  12
ENDBRANCH  10  11
ENDBRANCH   9  10
BRANCH   9  34
HETATM   34  O5  UNL     1      12.336  61.912  16.266  1.00  0.00    -0.376 OA
BRANCH  34  35
HETATM   35  C20 UNL     1      11.476  60.920  15.887  1.00  0.00     0.173 C 
BRANCH  35  36
HETATM   36  C21 UNL     1      10.030  61.239  15.821  1.00  0.00     0.009 C 
HETATM   37  C22 UNL     1       9.419  60.592  14.612  1.00  0.00     0.007 C 
HETATM   38  C23 UNL     1       7.943  60.741  14.485  1.00  0.00     0.000 C 
HETATM   39  C24 UNL     1       7.288  59.422  14.843  1.00  0.00     0.000 C 
HETATM   40  C25 UNL     1       7.043  59.296  16.328  1.00  0.00     0.000 C 
HETATM   41  C26 UNL     1       8.293  58.829  16.990  1.00  0.00     0.000 C 
HETATM   42  C27 UNL     1       9.035  59.882  17.733  1.00  0.00     0.000 C 
HETATM   43  C28 UNL     1       9.253  61.181  17.076  1.00  0.00     0.007 C 
ENDBRANCH  35  36
ENDBRANCH  34  35
ENDBRANCH   9  34
ENDBRANCH   6   9
ENDBRANCH   4   5
ENDBRANCH   3   4
TORSDOF 12
ENDMDL
MODEL 2
REMARK VINA RESULT: -9.665668155      3.040      9.467
REMARK  12 active torsions:
REMARK  status: ('A' for Active; 'I' for Inactive)
REMARK    1  A    between atoms: C2_3  and  C3_4 
REMARK    2  A    between atoms: C3_4  and  N2_5 
REMARK       I    between atoms: N2_5  and  C4_7 
REMARK    3  A    between atoms: C4_7  and  C5_9 
REMARK    4  A    between atoms: C5_9  and  C6_10 
REMARK    5  A    between atoms: C5_9  and  O5_34 
REMARK    6  A    between atoms: C6_10  and  C7_11 
REMARK    7  A    between atoms: C7_11  and  C8_12 
REMARK    8  A    between atoms: C8_12  and  O3_14 
REMARK    9  A    between atoms: O3_14  and  C9_15 
REMARK       I    between atoms: N5_24  and  C15_25 
REMARK   10  A    between atoms: C15_25  and  C16_27 
REMARK   11  A    between atoms: O5_34  and  C20_35 
REMARK   12  A    between atoms: C20_35  and  C21_36 
ROOT
HETATM    1  N1  UNL     1      17.558  67.408  20.676  1.00  0.00    -0.197 NA
HETATM    2  C1  UNL     1      16.496  67.380  20.215  1.00  0.00     0.060 C 
HETATM    3  C2  UNL     1      15.154  67.351  19.647  1.00  0.00     0.143 C 
ENDROOT
BRANCH   3   4
HETATM    4  C3  UNL     1      14.763  65.926  19.332  1.00  0.00     0.137 C 
BRANCH   4   5
HETATM    5  N2  UNL     1      15.741  65.379  18.417  1.00  0.00    -0.358 N 
HETATM    6  C4  UNL     1      15.598  65.533  16.985  1.00  0.00     0.246 C 
HETATM    7  O1  UNL     1      14.584  66.169  16.611  1.00  0.00    -0.271 OA
ATOM      8  H2  UNL     1      16.546  64.876  18.789  1.00  0.00     0.162 HD
BRANCH   6   9
HETATM    9  C5  UNL     1      16.583  64.978  16.043  1.00  0.00     0.213 C 
BRANCH   9  10
HETATM   10  C6  UNL     1      16.002  64.591  14.696  1.00  0.00     0.051 C 
BRANCH  10  11
HETATM   11  C7  UNL     1      15.275  63.299  14.752  1.00  0.00     0.114 C 
BRANCH  11  12
HETATM   12  C8  UNL     1      13.828  63.469  14.338  1.00  0.00     0.259 C 
HETATM   13  O2  UNL     1      13.476  64.490  13.715  1.00  0.00    -0.265 OA
BRANCH  12  14
HETATM   14  O3  UNL     1      12.878  62.517  14.632  1.00  0.00    -0.316 OA
BRANCH  14  15
HETATM   15  C9  UNL     1      11.699  62.840  15.395  1.00  0.00     0.138 C 
HETATM   16  C10 UNL     1      11.089  61.606  15.941  1.00  0.00     0.079 C 
HETATM   17  C11 UNL     1      11.180  61.424  17.427  1.00  0.00     0.191 C 
HETATM   18  N3  UNL     1      12.602  61.134  17.698  1.00  0.00    -0.359 N 
HETATM   19  N5  UNL     1      11.030  62.670  18.137  1.00  0.00    -0.318 N 
HETATM   20  C12 UNL     1      13.232  62.258  17.897  1.00  0.00     0.114 C 
ATOM     21  H3  UNL     1      13.023  60.206  17.725  1.00  0.00     0.162 HD
HETATM   22  N4  UNL     1      14.618  62.389  18.186  1.00  0.00    -0.086 NA
HETATM   23  C13 UNL     1      12.248  63.393  17.778  1.00  0.00     0.156 C 
HETATM   24  C14 UNL     1      12.107  63.876  16.380  1.00  0.00     0.065 C 
HETATM   25  C15 UNL     1      10.026  63.148  18.986  1.00  0.00     0.253 C 
HETATM   26  O4  UNL     1      10.188  64.324  19.474  1.00  0.00    -0.271 OA
BRANCH  25  27
HETATM   27  C16 UNL     1       8.802  62.442  19.380  1.00  0.00     0.277 C 
HETATM   28  C17 UNL     1       7.964  63.265  20.340  1.00  0.00     0.044 C 
HETATM   29  C18 UNL     1       8.418  62.816  21.714  1.00  0.00     0.030 C 
HETATM   30  C19 UNL     1       9.270  61.591  21.497  1.00  0.00     0.233 C 
HETATM   31  N6  UNL     1       9.154  61.240  20.116  1.00  0.00    -0.062 N 
ATOM     32  H62 UNL     1       8.501  60.473  19.957  1.00  0.00     0.278 HD
ATOM     33  H61 UNL     1       9.990  60.783  19.753  1.00  0.00     0.278 HD
ENDBRANCH  25  27
ENDBRANCH  14  15
ENDBRANCH  12  14
ENDBRANCH  11  12
ENDBRANCH  10  11
ENDBRANCH   9  10
BRANCH   9  34
HETATM   34  O5  UNL     1      17.657  65.891  15.824  1.00  0.00    -0.376 OA
BRANCH  34  35
HETATM   35  C20 UNL     1      18.423  65.357  14.826  1.00  0.00     0.173 C 
BRANCH  35  36
HETATM   36  C21 UNL     1      19.173  66.286  13.949  1.00  0.00     0.009 C 
HETATM   37  C22 UNL     1      19.804  65.525  12.819  1.00  0.00     0.007 C 
HETATM   38  C23 UNL     1      20.498  66.357  11.797  1.00  0.00     0.000 C 
HETATM   39  C24 UNL     1      19.639  66.416  10.551  1.00  0.00     0.000 C 
HETATM   40  C25 UNL     1      18.621  67.531  10.617  1.00  0.00     0.000 C 
HETATM   41  C26 UNL     1      17.435  67.064  11.386  1.00  0.00     0.000 C 
HETATM   42  C27 UNL     1      17.338  67.602  12.770  1.00  0.00     0.000 C 
HETATM   43  C28 UNL     1      18.543  67.580  13.615  1.00  0.00     0.007 C 
ENDBRANCH  35  36
ENDBRANCH  34  35
ENDBRANCH   9  34
ENDBRANCH   6   9
ENDBRANCH   4   5
ENDBRANCH   3   4
TORSDOF 12
ENDMDL
MODEL 3
REMARK VINA RESULT: -9.543613374      2.745      9.554
REMARK  12 active torsions:
REMARK  status: ('A' for Active; 'I' for Inactive)
REMARK    1  A    between atoms: C2_3  and  C3_4 
REMARK    2  A    between atoms: C3_4  and  N2_5 
REMARK       I    between atoms: N2_5  and  C4_7 
REMARK    3  A    between atoms: C4_7  and  C5_9 
REMARK    4  A    between atoms: C5_9  and  C6_10 
REMARK    5  A    between atoms: C5_9  and  O5_34 
REMARK    6  A    between atoms: C6_10  and  C7_11 
REMARK    7  A    between atoms: C7_11  and  C8_12 
REMARK    8  A    between atoms: C8_12  and  O3_14 
REMARK    9  A    between atoms: O3_14  and  C9_15 
REMARK       I    between atoms: N5_24  and  C15_25 
REMARK   10  A    between atoms: C15_25  and  C16_27 
REMARK   11  A    between atoms: O5_34  and  C20_35 
REMARK   12  A    between atoms: C20_35  and  C21_36 
ROOT
HETATM    1  N1  UNL     1      17.930  70.900  15.253  1.00  0.00    -0.197 NA
HETATM    2  C1  UNL     1      17.912  70.623  14.129  1.00  0.00     0.060 C 
HETATM    3  C2  UNL     1      17.876  70.278  12.714  1.00  0.00     0.143 C 
ENDROOT
BRANCH   3   4
HETATM    4  C3  UNL     1      18.144  68.801  12.540  1.00  0.00     0.137 C 
BRANCH   4   5
HETATM    5  N2  UNL     1      17.535  68.097  13.647  1.00  0.00    -0.358 N 
HETATM    6  C4  UNL     1      17.677  66.664  13.795  1.00  0.00     0.246 C 
HETATM    7  O1  UNL     1      18.360  66.097  12.910  1.00  0.00    -0.271 OA
ATOM      8  H2  UNL     1      16.996  68.621  14.336  1.00  0.00     0.162 HD
BRANCH   6   9
HETATM    9  C5  UNL     1      17.060  65.935  14.915  1.00  0.00     0.213 C 
BRANCH   9  10
HETATM   10  C6  UNL     1      16.172  64.782  14.488  1.00  0.00     0.051 C 
BRANCH  10  11
HETATM   11  C7  UNL     1      14.879  65.249  13.930  1.00  0.00     0.114 C 
BRANCH  11  12
HETATM   12  C8  UNL     1      13.905  64.100  13.774  1.00  0.00     0.259 C 
HETATM   13  O2  UNL     1      13.412  63.851  12.656  1.00  0.00    -0.265 OA
BRANCH  12  14
HETATM   14  O3  UNL     1      13.544  63.312  14.842  1.00  0.00    -0.316 OA
BRANCH  14  15
HETATM   15  C9  UNL     1      12.269  63.468  15.497  1.00  0.00     0.138 C 
HETATM   16  C10 UNL     1      11.713  62.143  15.856  1.00  0.00     0.079 C 
HETATM   17  C11 UNL     1      11.665  61.821  17.320  1.00  0.00     0.191 C 
HETATM   18  N3  UNL     1      13.070  61.612  17.719  1.00  0.00    -0.359 N 
HETATM   19  N5  UNL     1      11.338  62.975  18.120  1.00  0.00    -0.318 N 
HETATM   20  C12 UNL     1      13.579  62.753  18.089  1.00  0.00     0.114 C 
ATOM     21  H3  UNL     1      13.563  60.720  17.708  1.00  0.00     0.162 HD
HETATM   22  N4  UNL     1      14.912  62.958  18.541  1.00  0.00    -0.086 NA
HETATM   23  C13 UNL     1      12.520  63.818  17.966  1.00  0.00     0.156 C 
HETATM   24  C14 UNL     1      12.484  64.427  16.611  1.00  0.00     0.065 C 
HETATM   25  C15 UNL     1      10.214  63.289  18.892  1.00  0.00     0.253 C 
HETATM   26  O4  UNL     1      10.225  64.419  19.501  1.00  0.00    -0.271 OA
BRANCH  25  27
HETATM   27  C16 UNL     1       9.020  62.458  19.082  1.00  0.00     0.277 C 
HETATM   28  C17 UNL     1       8.024  63.113  20.021  1.00  0.00     0.044 C 
HETATM   29  C18 UNL     1       8.374  62.557  21.386  1.00  0.00     0.030 C 
HETATM   30  C19 UNL     1       9.343  61.427  21.145  1.00  0.00     0.233 C 
HETATM   31  N6  UNL     1       9.396  61.215  19.733  1.00  0.00    -0.062 N 
ATOM     32  H62 UNL     1       8.829  60.423  19.431  1.00  0.00     0.278 HD
ATOM     33  H61 UNL     1      10.299  60.861  19.419  1.00  0.00     0.278 HD
ENDBRANCH  25  27
ENDBRANCH  14  15
ENDBRANCH  12  14
ENDBRANCH  11  12
ENDBRANCH  10  11
ENDBRANCH   9  10
BRANCH   9  34
HETATM   34  O5  UNL     1      18.050  65.433  15.811  1.00  0.00    -0.376 OA
BRANCH  34  35
HETATM   35  C20 UNL     1      18.190  66.369  16.797  1.00  0.00     0.173 C 
BRANCH  35  36
HETATM   36  C21 UNL     1      16.976  67.076  17.266  1.00  0.00     0.009 C 
HETATM   37  C22 UNL     1      16.027  66.098  17.897  1.00  0.00     0.007 C 
HETATM   38  C23 UNL     1      14.809  66.696  18.512  1.00  0.00     0.000 C 
HETATM   39  C24 UNL     1      14.965  66.677  20.019  1.00  0.00     0.000 C 
HETATM   40  C25 UNL     1      15.695  67.898  20.528  1.00  0.00     0.000 C 
HETATM   41  C26 UNL     1      17.162  67.681  20.396  1.00  0.00     0.000 C 
HETATM   42  C27 UNL     1      17.802  68.413  19.270  1.00  0.00     0.000 C 
HETATM   43  C28 UNL     1      17.152  68.373  17.950  1.00  0.00     0.007 C 
ENDBRANCH  35  36
ENDBRANCH  34  35
ENDBRANCH   9  34
ENDBRANCH   6   9
ENDBRANCH   4   5
ENDBRANCH   3   4
TORSDOF 12
ENDMDL
MODEL 4
REMARK VINA RESULT: -9.509690995      1.274      2.036
REMARK  12 active torsions:
REMARK  status: ('A' for Active; 'I' for Inactive)
REMARK    1  A    between atoms: C2_3  and  C3_4 
REMARK    2  A    between atoms: C3_4  and  N2_5 
REMARK       I    between atoms: N2_5  and  C4_7 
REMARK    3  A    between atoms: C4_7  and  C5_9 
REMARK    4  A    between atoms: C5_9  and  C6_10 
REMARK    5  A    between atoms: C5_9  and  O5_34 
REMARK    6  A    between atoms: C6_10  and  C7_11 
REMARK    7  A    between atoms: C7_11  and  C8_12 
REMARK    8  A    between atoms: C8_12  and  O3_14 
REMARK    9  A    between atoms: O3_14  and  C9_15 
REMARK       I    between atoms: N5_24  and  C15_25 
REMARK   10  A    between atoms: C15_25  and  C16_27 
REMARK   11  A    between atoms: O5_34  and  C20_35 
REMARK   12  A    between atoms: C20_35  and  C21_36 
ROOT
HETATM    1  N1  UNL     1      15.203  67.378  20.060  1.00  0.00    -0.197 NA
HETATM    2  C1  UNL     1      15.046  66.308  19.648  1.00  0.00     0.060 C 
HETATM    3  C2  UNL     1      14.852  64.965  19.116  1.00  0.00     0.143 C 
ENDROOT
BRANCH   3   4
HETATM    4  C3  UNL     1      13.401  64.565  19.252  1.00  0.00     0.137 C 
BRANCH   4   5
HETATM    5  N2  UNL     1      13.009  63.869  18.047  1.00  0.00    -0.358 N 
HETATM    6  C4  UNL     1      12.129  64.485  17.076  1.00  0.00     0.246 C 
HETATM    7  O1  UNL     1      11.749  65.646  17.356  1.00  0.00    -0.271 OA
ATOM      8  H2  UNL     1      13.359  62.926  17.878  1.00  0.00     0.162 HD
BRANCH   6   9
HETATM    9  C5  UNL     1      11.719  63.786  15.847  1.00  0.00     0.213 C 
BRANCH   9  10
HETATM   10  C6  UNL     1      12.871  63.195  15.058  1.00  0.00     0.051 C 
BRANCH  10  11
HETATM   11  C7  UNL     1      13.870  64.222  14.673  1.00  0.00     0.114 C 
BRANCH  11  12
HETATM   12  C8  UNL     1      15.241  63.881  15.216  1.00  0.00     0.259 C 
HETATM   13  O2  UNL     1      15.362  62.998  16.089  1.00  0.00    -0.265 OA
BRANCH  12  14
HETATM   14  O3  UNL     1      16.374  64.523  14.769  1.00  0.00    -0.316 OA
BRANCH  14  15
HETATM   15  C9  UNL     1      16.529  65.950  14.893  1.00  0.00     0.138 C 
HETATM   16  C10 UNL     1      16.518  66.345  16.320  1.00  0.00     0.079 C 
HETATM   17  C11 UNL     1      17.820  66.833  16.882  1.00  0.00     0.191 C 
HETATM   18  N3  UNL     1      18.682  65.638  16.965  1.00  0.00    -0.359 N 
HETATM   19  N5  UNL     1      18.561  67.620  15.928  1.00  0.00    -0.318 N 
HETATM   20  C12 UNL     1      19.330  65.505  15.842  1.00  0.00     0.114 C 
ATOM     21  H3  UNL     1      18.758  65.017  17.770  1.00  0.00     0.162 HD
HETATM   22  N4  UNL     1      20.257  64.470  15.540  1.00  0.00    -0.086 NA
HETATM   23  C13 UNL     1      18.941  66.633  14.921  1.00  0.00     0.156 C 
HETATM   24  C14 UNL     1      17.739  66.311  14.110  1.00  0.00     0.065 C 
HETATM   25  C15 UNL     1      18.897  68.979  15.897  1.00  0.00     0.253 C 
HETATM   26  O4  UNL     1      19.583  69.385  14.890  1.00  0.00    -0.271 OA
BRANCH  25  27
HETATM   27  C16 UNL     1      18.547  69.991  16.899  1.00  0.00     0.277 C 
HETATM   28  C17 UNL     1      18.709  71.399  16.354  1.00  0.00     0.044 C 
HETATM   29  C18 UNL     1      20.117  71.794  16.748  1.00  0.00     0.030 C 
HETATM   30  C19 UNL     1      20.596  70.742  17.715  1.00  0.00     0.233 C 
HETATM   31  N6  UNL     1      19.474  69.907  18.014  1.00  0.00    -0.062 N 
ATOM     32  H62 UNL     1      19.039  70.134  18.908  1.00  0.00     0.278 HD
ATOM     33  H61 UNL     1      19.742  68.948  18.234  1.00  0.00     0.278 HD
ENDBRANCH  25  27
ENDBRANCH  14  15
ENDBRANCH  12  14
ENDBRANCH  11  12
ENDBRANCH  10  11
ENDBRANCH   9  10
BRANCH   9  34
HETATM   34  O5  UNL     1      10.788  62.744  16.134  1.00  0.00    -0.376 OA
BRANCH  34  35
HETATM   35  C20 UNL     1      11.461  61.566  15.965  1.00  0.00     0.173 C 
BRANCH  35  36
HETATM   36  C21 UNL     1      10.679  60.307  15.984  1.00  0.00     0.009 C 
HETATM   37  C22 UNL     1       9.706  60.328  17.128  1.00  0.00     0.007 C 
HETATM   38  C23 UNL     1       8.778  59.165  17.197  1.00  0.00     0.000 C 
HETATM   39  C24 UNL     1       7.405  59.611  16.738  1.00  0.00     0.000 C 
HETATM   40  C25 UNL     1       7.249  59.513  15.239  1.00  0.00     0.000 C 
HETATM   41  C26 UNL     1       7.830  60.730  14.607  1.00  0.00     0.000 C 
HETATM   42  C27 UNL     1       9.153  60.524  13.958  1.00  0.00     0.000 C 
HETATM   43  C28 UNL     1      10.186  59.781  14.695  1.00  0.00     0.007 C 
ENDBRANCH  35  36
ENDBRANCH  34  35
ENDBRANCH   9  34
ENDBRANCH   6   9
ENDBRANCH   4   5
ENDBRANCH   3   4
TORSDOF 12
ENDMDL
MODEL 5
REMARK VINA RESULT: -9.500364171      3.375      6.362
REMARK  12 active torsions:
REMARK  status: ('A' for Active; 'I' for Inactive)
REMARK    1  A    between atoms: C2_3  and  C3_4 
REMARK    2  A    between atoms: C3_4  and  N2_5 
REMARK       I    between atoms: N2_5  and  C4_7 
REMARK    3  A    between atoms: C4_7  and  C5_9 
REMARK    4  A    between atoms: C5_9  and  C6_10 
REMARK    5  A    between atoms: C5_9  and  O5_34 
REMARK    6  A    between atoms: C6_10  and  C7_11 
REMARK    7  A    between atoms: C7_11  and  C8_12 
REMARK    8  A    between atoms: C8_12  and  O3_14 
REMARK    9  A    between atoms: O3_14  and  C9_15 
REMARK       I    between atoms: N5_24  and  C15_25 
REMARK   10  A    between atoms: C15_25  and  C16_27 
REMARK   11  A    between atoms: O5_34  and  C20_35 
REMARK   12  A    between atoms: C20_35  and  C21_36 
ROOT
HETATM    1  N1  UNL     1       4.040  59.938  16.848  1.00  0.00    -0.197 NA
HETATM    2  C1  UNL     1       3.476  60.676  17.539  1.00  0.00     0.060 C 
HETATM    3  C2  UNL     1       2.767  61.615  18.399  1.00  0.00     0.143 C 
ENDROOT
BRANCH   3   4
HETATM    4  C3  UNL     1       3.574  61.871  19.651  1.00  0.00     0.137 C 
BRANCH   4   5
HETATM    5  N2  UNL     1       4.966  61.984  19.277  1.00  0.00    -0.358 N 
HETATM    6  C4  UNL     1       6.018  61.487  20.139  1.00  0.00     0.246 C 
HETATM    7  O1  UNL     1       5.632  60.958  21.207  1.00  0.00    -0.271 OA
ATOM      8  H2  UNL     1       5.212  62.422  18.389  1.00  0.00     0.162 HD
BRANCH   6   9
HETATM    9  C5  UNL     1       7.440  61.598  19.771  1.00  0.00     0.213 C 
BRANCH   9  10
HETATM   10  C6  UNL     1       8.272  62.397  20.756  1.00  0.00     0.051 C 
BRANCH  10  11
HETATM   11  C7  UNL     1       9.691  62.499  20.335  1.00  0.00     0.114 C 
BRANCH  11  12
HETATM   12  C8  UNL     1      10.107  63.945  20.162  1.00  0.00     0.259 C 
HETATM   13  O2  UNL     1       9.238  64.832  20.052  1.00  0.00    -0.265 OA
BRANCH  12  14
HETATM   14  O3  UNL     1      11.432  64.313  20.124  1.00  0.00    -0.316 OA
BRANCH  14  15
HETATM   15  C9  UNL     1      11.987  65.014  18.992  1.00  0.00     0.138 C 
HETATM   16  C10 UNL     1      13.426  65.284  19.213  1.00  0.00     0.079 C 
HETATM   17  C11 UNL     1      14.384  64.517  18.352  1.00  0.00     0.191 C 
HETATM   18  N3  UNL     1      14.319  63.126  18.840  1.00  0.00    -0.359 N 
HETATM   19  N5  UNL     1      13.887  64.343  17.010  1.00  0.00    -0.318 N 
HETATM   20  C12 UNL     1      13.383  62.493  18.191  1.00  0.00     0.114 C 
ATOM     21  H3  UNL     1      14.911  62.725  19.568  1.00  0.00     0.162 HD
HETATM   22  N4  UNL     1      13.020  61.131  18.383  1.00  0.00    -0.086 NA
HETATM   23  C13 UNL     1      12.756  63.438  17.200  1.00  0.00     0.156 C 
HETATM   24  C14 UNL     1      11.635  64.214  17.790  1.00  0.00     0.065 C 
HETATM   25  C15 UNL     1      14.319  64.852  15.780  1.00  0.00     0.253 C 
HETATM   26  O4  UNL     1      13.652  64.501  14.740  1.00  0.00    -0.271 OA
BRANCH  25  27
HETATM   27  C16 UNL     1      15.459  65.746  15.552  1.00  0.00     0.277 C 
HETATM   28  C17 UNL     1      15.643  66.057  14.078  1.00  0.00     0.044 C 
HETATM   29  C18 UNL     1      16.630  65.014  13.595  1.00  0.00     0.030 C 
HETATM   30  C19 UNL     1      17.172  64.342  14.831  1.00  0.00     0.233 C 
HETATM   31  N6  UNL     1      16.684  65.078  15.955  1.00  0.00    -0.062 N 
ATOM     32  H62 UNL     1      17.377  65.720  16.338  1.00  0.00     0.278 HD
ATOM     33  H61 UNL     1      16.564  64.498  16.786  1.00  0.00     0.278 HD
ENDBRANCH  25  27
ENDBRANCH  14  15
ENDBRANCH  12  14
ENDBRANCH  11  12
ENDBRANCH  10  11
ENDBRANCH   9  10
BRANCH   9  34
HETATM   34  O5  UNL     1       8.034  60.311  19.620  1.00  0.00    -0.376 OA
BRANCH  34  35
HETATM   35  C20 UNL     1       7.624  59.835  18.406  1.00  0.00     0.173 C 
BRANCH  35  36
HETATM   36  C21 UNL     1       8.658  59.345  17.463  1.00  0.00     0.009 C 
HETATM   37  C22 UNL     1       8.007  58.595  16.337  1.00  0.00     0.007 C 
HETATM   38  C23 UNL     1       8.927  58.142  15.257  1.00  0.00     0.000 C 
HETATM   39  C24 UNL     1       8.733  59.032  14.046  1.00  0.00     0.000 C 
HETATM   40  C25 UNL     1       9.591  60.273  14.113  1.00  0.00     0.000 C 
HETATM   41  C26 UNL     1       8.904  61.297  14.949  1.00  0.00     0.000 C 
HETATM   42  C27 UNL     1       9.469  61.468  16.314  1.00  0.00     0.000 C 
HETATM   43  C28 UNL     1       9.759  60.263  17.108  1.00  0.00     0.007 C 
ENDBRANCH  35  36
ENDBRANCH  34  35
ENDBRANCH   9  34
ENDBRANCH   6   9
ENDBRANCH   4   5
ENDBRANCH   3   4
TORSDOF 12
ENDMDL
