MODEL 1
REMARK VINA RESULT: -8.766640819      0.000      0.000
REMARK  12 active torsions:
REMARK  status: ('A' for Active; 'I' for Inactive)
REMARK    1  A    between atoms: C2_2  and  C3_3 
REMARK    2  A    between atoms: C3_3  and  C5_5 
REMARK    3  A    between atoms: C5_5  and  N1_6 
REMARK    4  A    between atoms: C5_5  and  C12_19 
REMARK    5  A    between atoms: C7_13  and  C8_14 
REMARK       I    between atoms: C12_19  and  N4_21 
REMARK    6  A    between atoms: C16_26  and  C17_27 
REMARK    7  A    between atoms: C17_27  and  C18_28 
REMARK    8  A    between atoms: C18_28  and  S2_29 
REMARK    9  A    between atoms: S2_29  and  C19_30 
REMARK   10  A    between atoms: C19_30  and  C20_31 
REMARK   11  A    between atoms: C20_31  and  C21_32 
REMARK   12  A    between atoms: N7_38  and  C23_40 
ROOT
HETATM    1  C12 UNL     1      17.378  21.326  17.474  1.00  0.00     0.246 C 
HETATM    2  O1  UNL     1      17.959  20.380  16.916  1.00  0.00    -0.271 OA
HETATM    3  N4  UNL     1      15.980  21.309  17.666  1.00  0.00    -0.310 N 
ATOM      4  H4  UNL     1      15.427  22.016  17.182  1.00  0.00     0.170 HD
HETATM    5  C13 UNL     1      15.354  20.468  18.405  1.00  0.00     0.122 A 
HETATM    6  C14 UNL     1      15.917  19.452  19.128  1.00  0.00     0.052 A 
HETATM    7  C15 UNL     1      15.122  18.605  19.878  1.00  0.00     0.030 A 
HETATM    8  C16 UNL     1      13.744  18.753  19.930  1.00  0.00     0.026 A 
HETATM    9  N8  UNL     1      13.253  19.764  19.204  1.00  0.00    -0.303 N 
ATOM     10  H8  UNL     1      12.243  19.909  19.211  1.00  0.00     0.186 HD
HETATM   11  N9  UNL     1      13.981  20.577  18.488  1.00  0.00    -0.285 N 
ATOM     12  H9  UNL     1      13.517  21.321  17.970  1.00  0.00     0.188 HD
ENDROOT
BRANCH   1  13
HETATM   13  C5  UNL     1      18.155  22.527  17.956  1.00  0.00     0.180 C 
BRANCH  13  14
HETATM   14  C3  UNL     1      17.979  22.598  19.450  1.00  0.00     0.013 C 
HETATM   15  C4  UNL     1      18.840  21.607  20.160  1.00  0.00     0.012 C 
BRANCH  14  16
HETATM   16  C2  UNL     1      18.170  24.010  19.973  1.00  0.00     0.002 C 
HETATM   17  C1  UNL     1      19.153  24.092  21.080  1.00  0.00     0.005 C 
ENDBRANCH  14  16
ENDBRANCH  13  14
BRANCH  13  18
HETATM   18  N1  UNL     1      17.717  23.690  17.260  1.00  0.00    -0.356 N 
HETATM   19  C6  UNL     1      18.522  24.572  16.751  1.00  0.00     0.161 A 
HETATM   20  N2  UNL     1      18.179  25.689  16.087  1.00  0.00    -0.279 N 
HETATM   21  S1  UNL     1      20.239  24.686  16.720  1.00  0.00    -0.037 SA
HETATM   22  N3  UNL     1      19.077  26.455  15.653  1.00  0.00    -0.295 N 
ATOM     23  H2  UNL     1      17.195  25.914  15.935  1.00  0.00     0.189 HD
HETATM   24  C7  UNL     1      20.363  26.157  15.853  1.00  0.00     0.077 A 
ATOM     25  H3  UNL     1      18.822  27.305  15.150  1.00  0.00     0.187 HD
ATOM     26  H1  UNL     1      16.713  23.839  17.155  1.00  0.00     0.162 HD
BRANCH  24  27
HETATM   27  C8  UNL     1      21.574  26.930  15.419  1.00  0.00    -0.001 C 
HETATM   28  C9  UNL     1      22.067  27.842  16.512  1.00  0.00     0.021 C 
HETATM   29  C10 UNL     1      21.160  27.733  14.207  1.00  0.00     0.021 C 
HETATM   30  C11 UNL     1      22.603  25.941  14.961  1.00  0.00     0.021 C 
ENDBRANCH  24  27
ENDBRANCH  13  18
ENDBRANCH   1  13
BRANCH   8  31
HETATM   31  C17 UNL     1      12.802  17.930  20.670  1.00  0.00     0.068 C 
BRANCH  31  32
HETATM   32  C18 UNL     1      11.371  18.015  20.288  1.00  0.00     0.080 C 
BRANCH  32  33
HETATM   33  S2  UNL     1      10.820  16.762  19.113  1.00  0.00    -0.168 SA
BRANCH  33  34
HETATM   34  C19 UNL     1      11.220  17.247  17.411  1.00  0.00     0.082 C 
BRANCH  34  35
HETATM   35  C20 UNL     1      10.852  18.716  17.265  1.00  0.00     0.096 C 
BRANCH  35  36
HETATM   36  C21 UNL     1      11.637  19.290  16.134  1.00  0.00     0.142 A 
HETATM   37  N5  UNL     1      11.875  18.754  14.932  1.00  0.00    -0.280 N 
HETATM   38  N6  UNL     1      12.624  19.577  14.220  1.00  0.00    -0.263 N 
ATOM     39  H5  UNL     1      11.531  17.849  14.614  1.00  0.00     0.189 HD
HETATM   40  C22 UNL     1      12.863  20.654  14.977  1.00  0.00     0.247 A 
ATOM     41  H6  UNL     1      12.960  19.419  13.270  1.00  0.00     0.190 HD
HETATM   42  N7  UNL     1      13.567  21.696  14.607  1.00  0.00    -0.298 N 
HETATM   43  O3  UNL     1      12.253  20.447  16.121  1.00  0.00    -0.264 OA
ATOM     44  H7  UNL     1      13.997  21.756  13.685  1.00  0.00     0.171 HD
BRANCH  42  45
HETATM   45  C23 UNL     1      13.695  22.729  15.561  1.00  0.00     0.356 C 
HETATM   46  O2  UNL     1      14.819  23.197  15.862  1.00  0.00    -0.283 OA
ENDBRANCH  42  45
ENDBRANCH  35  36
ENDBRANCH  34  35
ENDBRANCH  33  34
ENDBRANCH  32  33
ENDBRANCH  31  32
ENDBRANCH   8  31
TORSDOF 12
ENDMDL
MODEL 2
REMARK VINA RESULT: -8.582352173      2.989      6.186
REMARK  12 active torsions:
REMARK  status: ('A' for Active; 'I' for Inactive)
REMARK    1  A    between atoms: C2_2  and  C3_3 
REMARK    2  A    between atoms: C3_3  and  C5_5 
REMARK    3  A    between atoms: C5_5  and  N1_6 
REMARK    4  A    between atoms: C5_5  and  C12_19 
REMARK    5  A    between atoms: C7_13  and  C8_14 
REMARK       I    between atoms: C12_19  and  N4_21 
REMARK    6  A    between atoms: C16_26  and  C17_27 
REMARK    7  A    between atoms: C17_27  and  C18_28 
REMARK    8  A    between atoms: C18_28  and  S2_29 
REMARK    9  A    between atoms: S2_29  and  C19_30 
REMARK   10  A    between atoms: C19_30  and  C20_31 
REMARK   11  A    between atoms: C20_31  and  C21_32 
REMARK   12  A    between atoms: N7_38  and  C23_40 
ROOT
HETATM    1  C12 UNL     1      17.782  25.575  15.446  1.00  0.00     0.246 C 
HETATM    2  O1  UNL     1      17.622  25.713  14.222  1.00  0.00    -0.271 OA
HETATM    3  N4  UNL     1      16.713  25.180  16.278  1.00  0.00    -0.310 N 
ATOM      4  H4  UNL     1      16.392  25.843  16.983  1.00  0.00     0.170 HD
HETATM    5  C13 UNL     1      16.117  24.046  16.212  1.00  0.00     0.122 A 
HETATM    6  C14 UNL     1      16.401  23.033  15.338  1.00  0.00     0.052 A 
HETATM    7  C15 UNL     1      15.669  21.861  15.365  1.00  0.00     0.030 A 
HETATM    8  C16 UNL     1      14.635  21.667  16.270  1.00  0.00     0.026 A 
HETATM    9  N8  UNL     1      14.405  22.691  17.099  1.00  0.00    -0.303 N 
ATOM     10  H8  UNL     1      13.653  22.594  17.780  1.00  0.00     0.186 HD
HETATM   11  N9  UNL     1      15.082  23.807  17.093  1.00  0.00    -0.285 N 
ATOM     12  H9  UNL     1      14.835  24.532  17.766  1.00  0.00     0.188 HD
ENDROOT
BRANCH   1  13
HETATM   13  C5  UNL     1      19.127  25.835  16.079  1.00  0.00     0.180 C 
BRANCH  13  14
HETATM   14  C3  UNL     1      20.038  26.342  14.992  1.00  0.00     0.013 C 
HETATM   15  C4  UNL     1      20.419  27.770  15.206  1.00  0.00     0.012 C 
BRANCH  14  16
HETATM   16  C2  UNL     1      21.247  25.444  14.806  1.00  0.00     0.002 C 
HETATM   17  C1  UNL     1      22.534  26.144  15.038  1.00  0.00     0.005 C 
ENDBRANCH  14  16
ENDBRANCH  13  14
BRANCH  13  18
HETATM   18  N1  UNL     1      19.589  24.651  16.724  1.00  0.00    -0.356 N 
HETATM   19  C6  UNL     1      20.420  24.650  17.721  1.00  0.00     0.161 A 
HETATM   20  N2  UNL     1      20.897  23.575  18.372  1.00  0.00    -0.279 N 
HETATM   21  S1  UNL     1      21.211  25.923  18.565  1.00  0.00    -0.037 SA
HETATM   22  N3  UNL     1      21.704  23.732  19.322  1.00  0.00    -0.295 N 
ATOM     23  H2  UNL     1      20.605  22.637  18.096  1.00  0.00     0.189 HD
HETATM   24  C7  UNL     1      22.083  24.960  19.681  1.00  0.00     0.077 A 
ATOM     25  H3  UNL     1      22.071  22.920  19.819  1.00  0.00     0.187 HD
ATOM     26  H1  UNL     1      19.247  23.752  16.382  1.00  0.00     0.162 HD
BRANCH  24  27
HETATM   27  C8  UNL     1      23.026  25.359  20.779  1.00  0.00    -0.001 C 
HETATM   28  C9  UNL     1      22.299  26.029  21.915  1.00  0.00     0.021 C 
HETATM   29  C10 UNL     1      24.027  26.309  20.159  1.00  0.00     0.021 C 
HETATM   30  C11 UNL     1      23.782  24.134  21.195  1.00  0.00     0.021 C 
ENDBRANCH  24  27
ENDBRANCH  13  18
ENDBRANCH   1  13
BRANCH   8  31
HETATM   31  C17 UNL     1      13.791  20.491  16.395  1.00  0.00     0.068 C 
BRANCH  31  32
HETATM   32  C18 UNL     1      13.713  19.842  17.728  1.00  0.00     0.080 C 
BRANCH  32  33
HETATM   33  S2  UNL     1      15.265  19.148  18.329  1.00  0.00    -0.168 SA
BRANCH  33  34
HETATM   34  C19 UNL     1      16.072  20.276  19.498  1.00  0.00     0.082 C 
BRANCH  34  35
HETATM   35  C20 UNL     1      17.033  21.142  18.695  1.00  0.00     0.096 C 
BRANCH  35  36
HETATM   36  C21 UNL     1      17.538  22.232  19.579  1.00  0.00     0.142 A 
HETATM   37  N5  UNL     1      17.075  23.480  19.706  1.00  0.00    -0.280 N 
HETATM   38  N6  UNL     1      17.809  24.138  20.585  1.00  0.00    -0.263 N 
ATOM     39  H5  UNL     1      16.277  23.865  19.201  1.00  0.00     0.189 HD
HETATM   40  C22 UNL     1      18.749  23.297  21.029  1.00  0.00     0.247 A 
ATOM     41  H6  UNL     1      17.682  25.109  20.873  1.00  0.00     0.190 HD
HETATM   42  N7  UNL     1      19.663  23.588  21.922  1.00  0.00    -0.298 N 
HETATM   43  O3  UNL     1      18.556  22.160  20.402  1.00  0.00    -0.264 OA
ATOM     44  H7  UNL     1      19.721  24.510  22.354  1.00  0.00     0.171 HD
BRANCH  42  45
HETATM   45  C23 UNL     1      20.562  22.550  22.252  1.00  0.00     0.356 C 
HETATM   46  O2  UNL     1      20.151  21.457  22.708  1.00  0.00    -0.283 OA
ENDBRANCH  42  45
ENDBRANCH  35  36
ENDBRANCH  34  35
ENDBRANCH  33  34
ENDBRANCH  32  33
ENDBRANCH  31  32
ENDBRANCH   8  31
TORSDOF 12
ENDMDL
MODEL 3
REMARK VINA RESULT: -8.565304443      2.111      3.618
REMARK  12 active torsions:
REMARK  status: ('A' for Active; 'I' for Inactive)
REMARK    1  A    between atoms: C2_2  and  C3_3 
REMARK    2  A    between atoms: C3_3  and  C5_5 
REMARK    3  A    between atoms: C5_5  and  N1_6 
REMARK    4  A    between atoms: C5_5  and  C12_19 
REMARK    5  A    between atoms: C7_13  and  C8_14 
REMARK       I    between atoms: C12_19  and  N4_21 
REMARK    6  A    between atoms: C16_26  and  C17_27 
REMARK    7  A    between atoms: C17_27  and  C18_28 
REMARK    8  A    between atoms: C18_28  and  S2_29 
REMARK    9  A    between atoms: S2_29  and  C19_30 
REMARK   10  A    between atoms: C19_30  and  C20_31 
REMARK   11  A    between atoms: C20_31  and  C21_32 
REMARK   12  A    between atoms: N7_38  and  C23_40 
ROOT
HETATM    1  C12 UNL     1      16.769  23.955  18.719  1.00  0.00     0.246 C 
HETATM    2  O1  UNL     1      16.522  24.991  18.079  1.00  0.00    -0.271 OA
HETATM    3  N4  UNL     1      15.734  23.078  19.109  1.00  0.00    -0.310 N 
ATOM      4  H4  UNL     1      15.565  22.960  20.108  1.00  0.00     0.170 HD
HETATM    5  C13 UNL     1      14.991  22.418  18.298  1.00  0.00     0.122 A 
HETATM    6  C14 UNL     1      15.063  22.446  16.932  1.00  0.00     0.052 A 
HETATM    7  C15 UNL     1      14.189  21.692  16.172  1.00  0.00     0.030 A 
HETATM    8  C16 UNL     1      13.222  20.886  16.755  1.00  0.00     0.026 A 
HETATM    9  N8  UNL     1      13.201  20.900  18.093  1.00  0.00    -0.303 N 
ATOM     10  H8  UNL     1      12.505  20.324  18.565  1.00  0.00     0.186 HD
HETATM   11  N9  UNL     1      14.015  21.603  18.833  1.00  0.00    -0.285 N 
ATOM     12  H9  UNL     1      13.925  21.547  19.847  1.00  0.00     0.188 HD
ENDROOT
BRANCH   1  13
HETATM   13  C5  UNL     1      18.187  23.610  19.105  1.00  0.00     0.180 C 
BRANCH  13  14
HETATM   14  C3  UNL     1      18.111  22.686  20.292  1.00  0.00     0.013 C 
HETATM   15  C4  UNL     1      18.323  21.261  19.901  1.00  0.00     0.012 C 
BRANCH  14  16
HETATM   16  C2  UNL     1      19.042  23.124  21.407  1.00  0.00     0.002 C 
HETATM   17  C1  UNL     1      19.959  22.049  21.856  1.00  0.00     0.005 C 
ENDBRANCH  14  16
ENDBRANCH  13  14
BRANCH  13  18
HETATM   18  N1  UNL     1      18.921  24.808  19.343  1.00  0.00    -0.356 N 
HETATM   19  C6  UNL     1      19.664  25.387  18.450  1.00  0.00     0.161 A 
HETATM   20  N2  UNL     1      20.383  26.513  18.606  1.00  0.00    -0.279 N 
HETATM   21  S1  UNL     1      20.026  24.991  16.816  1.00  0.00    -0.037 SA
HETATM   22  N3  UNL     1      21.062  26.954  17.645  1.00  0.00    -0.295 N 
ATOM     23  H2  UNL     1      20.377  27.005  19.500  1.00  0.00     0.189 HD
HETATM   24  C7  UNL     1      21.066  26.308  16.477  1.00  0.00     0.077 A 
ATOM     25  H3  UNL     1      21.611  27.807  17.758  1.00  0.00     0.187 HD
ATOM     26  H1  UNL     1      18.860  25.235  20.268  1.00  0.00     0.162 HD
BRANCH  24  27
HETATM   27  C8  UNL     1      21.801  26.667  15.218  1.00  0.00    -0.001 C 
HETATM   28  C9  UNL     1      21.080  27.739  14.445  1.00  0.00     0.021 C 
HETATM   29  C10 UNL     1      21.895  25.398  14.400  1.00  0.00     0.021 C 
HETATM   30  C11 UNL     1      23.199  27.047  15.601  1.00  0.00     0.021 C 
ENDBRANCH  24  27
ENDBRANCH  13  18
ENDBRANCH   1  13
BRANCH   8  31
HETATM   31  C17 UNL     1      12.245  20.056  16.071  1.00  0.00     0.068 C 
BRANCH  31  32
HETATM   32  C18 UNL     1      11.247  19.343  16.906  1.00  0.00     0.080 C 
BRANCH  32  33
HETATM   33  S2  UNL     1      10.875  17.660  16.380  1.00  0.00    -0.168 SA
BRANCH  33  34
HETATM   34  C19 UNL     1      11.365  16.459  17.648  1.00  0.00     0.082 C 
BRANCH  34  35
HETATM   35  C20 UNL     1      10.677  16.867  18.943  1.00  0.00     0.096 C 
BRANCH  35  36
HETATM   36  C21 UNL     1      11.676  17.549  19.815  1.00  0.00     0.142 A 
HETATM   37  N5  UNL     1      11.492  18.091  21.023  1.00  0.00    -0.280 N 
HETATM   38  N6  UNL     1      12.628  18.609  21.455  1.00  0.00    -0.263 N 
ATOM     39  H5  UNL     1      10.609  18.104  21.533  1.00  0.00     0.189 HD
HETATM   40  C22 UNL     1      13.550  18.389  20.512  1.00  0.00     0.247 A 
ATOM     41  H6  UNL     1      12.774  19.088  22.343  1.00  0.00     0.190 HD
HETATM   42  N7  UNL     1      14.808  18.751  20.586  1.00  0.00    -0.298 N 
HETATM   43  O3  UNL     1      12.943  17.749  19.540  1.00  0.00    -0.264 OA
ATOM     44  H7  UNL     1      15.180  19.245  21.397  1.00  0.00     0.171 HD
BRANCH  42  45
HETATM   45  C23 UNL     1      15.617  18.419  19.477  1.00  0.00     0.356 C 
HETATM   46  O2  UNL     1      15.582  19.098  18.423  1.00  0.00    -0.283 OA
ENDBRANCH  42  45
ENDBRANCH  35  36
ENDBRANCH  34  35
ENDBRANCH  33  34
ENDBRANCH  32  33
ENDBRANCH  31  32
ENDBRANCH   8  31
TORSDOF 12
ENDMDL
MODEL 4
REMARK VINA RESULT: -8.505302720      3.963     10.521
REMARK  12 active torsions:
REMARK  status: ('A' for Active; 'I' for Inactive)
REMARK    1  A    between atoms: C2_2  and  C3_3 
REMARK    2  A    between atoms: C3_3  and  C5_5 
REMARK    3  A    between atoms: C5_5  and  N1_6 
REMARK    4  A    between atoms: C5_5  and  C12_19 
REMARK    5  A    between atoms: C7_13  and  C8_14 
REMARK       I    between atoms: C12_19  and  N4_21 
REMARK    6  A    between atoms: C16_26  and  C17_27 
REMARK    7  A    between atoms: C17_27  and  C18_28 
REMARK    8  A    between atoms: C18_28  and  S2_29 
REMARK    9  A    between atoms: S2_29  and  C19_30 
REMARK   10  A    between atoms: C19_30  and  C20_31 
REMARK   11  A    between atoms: C20_31  and  C21_32 
REMARK   12  A    between atoms: N7_38  and  C23_40 
ROOT
HETATM    1  C12 UNL     1      18.529  23.672  20.165  1.00  0.00     0.246 C 
HETATM    2  O1  UNL     1      18.426  22.759  21.001  1.00  0.00    -0.271 OA
HETATM    3  N4  UNL     1      19.143  24.897  20.499  1.00  0.00    -0.310 N 
ATOM      4  H4  UNL     1      18.564  25.737  20.484  1.00  0.00     0.170 HD
HETATM    5  C13 UNL     1      20.377  25.032  20.822  1.00  0.00     0.122 A 
HETATM    6  C14 UNL     1      21.306  24.031  20.900  1.00  0.00     0.052 A 
HETATM    7  C15 UNL     1      22.607  24.312  21.274  1.00  0.00     0.030 A 
HETATM    8  C16 UNL     1      23.017  25.603  21.575  1.00  0.00     0.026 A 
HETATM    9  N8  UNL     1      22.065  26.539  21.479  1.00  0.00    -0.303 N 
ATOM     10  H8  UNL     1      22.321  27.502  21.693  1.00  0.00     0.186 HD
HETATM   11  N9  UNL     1      20.831  26.298  21.129  1.00  0.00    -0.285 N 
ATOM     12  H9  UNL     1      20.176  27.078  21.081  1.00  0.00     0.188 HD
ENDROOT
BRANCH   1  13
HETATM   13  C5  UNL     1      17.990  23.497  18.766  1.00  0.00     0.180 C 
BRANCH  13  14
HETATM   14  C3  UNL     1      18.644  24.544  17.904  1.00  0.00     0.013 C 
HETATM   15  C4  UNL     1      19.770  23.980  17.102  1.00  0.00     0.012 C 
BRANCH  14  16
HETATM   16  C2  UNL     1      17.633  25.278  17.044  1.00  0.00     0.002 C 
HETATM   17  C1  UNL     1      17.689  24.884  15.615  1.00  0.00     0.005 C 
ENDBRANCH  14  16
ENDBRANCH  13  14
BRANCH  13  18
HETATM   18  N1  UNL     1      16.566  23.566  18.790  1.00  0.00    -0.356 N 
HETATM   19  C6  UNL     1      15.796  22.527  18.891  1.00  0.00     0.161 A 
HETATM   20  N2  UNL     1      14.452  22.519  18.917  1.00  0.00    -0.279 N 
HETATM   21  S1  UNL     1      16.136  20.845  19.014  1.00  0.00    -0.037 SA
HETATM   22  N3  UNL     1      13.839  21.426  19.015  1.00  0.00    -0.295 N 
ATOM     23  H2  UNL     1      13.933  23.395  18.859  1.00  0.00     0.189 HD
HETATM   24  C7  UNL     1      14.521  20.281  19.092  1.00  0.00     0.077 A 
ATOM     25  H3  UNL     1      12.819  21.414  19.034  1.00  0.00     0.187 HD
ATOM     26  H1  UNL     1      16.128  24.485  18.725  1.00  0.00     0.162 HD
BRANCH  24  27
HETATM   27  C8  UNL     1      13.984  18.885  19.213  1.00  0.00    -0.001 C 
HETATM   28  C9  UNL     1      12.656  18.742  18.518  1.00  0.00     0.021 C 
HETATM   29  C10 UNL     1      13.839  18.608  20.693  1.00  0.00     0.021 C 
HETATM   30  C11 UNL     1      15.033  17.949  18.693  1.00  0.00     0.021 C 
ENDBRANCH  24  27
ENDBRANCH  13  18
ENDBRANCH   1  13
BRANCH   8  31
HETATM   31  C17 UNL     1      24.345  26.026  21.984  1.00  0.00     0.068 C 
BRANCH  31  32
HETATM   32  C18 UNL     1      25.427  25.011  21.954  1.00  0.00     0.080 C 
BRANCH  32  33
HETATM   33  S2  UNL     1      26.383  24.962  20.426  1.00  0.00    -0.168 SA
BRANCH  33  34
HETATM   34  C19 UNL     1      25.896  26.307  19.311  1.00  0.00     0.082 C 
BRANCH  34  35
HETATM   35  C20 UNL     1      24.886  25.732  18.328  1.00  0.00     0.096 C 
BRANCH  35  36
HETATM   36  C21 UNL     1      24.297  26.855  17.544  1.00  0.00     0.142 A 
HETATM   37  N5  UNL     1      24.840  28.042  17.255  1.00  0.00    -0.280 N 
HETATM   38  N6  UNL     1      23.988  28.761  16.548  1.00  0.00    -0.263 N 
ATOM     39  H5  UNL     1      25.772  28.346  17.539  1.00  0.00     0.189 HD
HETATM   40  C22 UNL     1      22.887  28.020  16.378  1.00  0.00     0.247 A 
ATOM     41  H6  UNL     1      24.140  29.706  16.197  1.00  0.00     0.190 HD
HETATM   42  N7  UNL     1      21.820  28.394  15.716  1.00  0.00    -0.298 N 
HETATM   43  O3  UNL     1      23.108  26.880  16.990  1.00  0.00    -0.264 OA
ATOM     44  H7  UNL     1      21.754  29.309  15.271  1.00  0.00     0.171 HD
BRANCH  42  45
HETATM   45  C23 UNL     1      20.766  27.455  15.655  1.00  0.00     0.356 C 
HETATM   46  O2  UNL     1      19.862  27.551  14.791  1.00  0.00    -0.283 OA
ENDBRANCH  42  45
ENDBRANCH  35  36
ENDBRANCH  34  35
ENDBRANCH  33  34
ENDBRANCH  32  33
ENDBRANCH  31  32
ENDBRANCH   8  31
TORSDOF 12
ENDMDL
MODEL 5
REMARK VINA RESULT: -8.500690443      2.559      4.442
REMARK  12 active torsions:
REMARK  status: ('A' for Active; 'I' for Inactive)
REMARK    1  A    between atoms: C2_2  and  C3_3 
REMARK    2  A    between atoms: C3_3  and  C5_5 
REMARK    3  A    between atoms: C5_5  and  N1_6 
REMARK    4  A    between atoms: C5_5  and  C12_19 
REMARK    5  A    between atoms: C7_13  and  C8_14 
REMARK       I    between atoms: C12_19  and  N4_21 
REMARK    6  A    between atoms: C16_26  and  C17_27 
REMARK    7  A    between atoms: C17_27  and  C18_28 
REMARK    8  A    between atoms: C18_28  and  S2_29 
REMARK    9  A    between atoms: S2_29  and  C19_30 
REMARK   10  A    between atoms: C19_30  and  C20_31 
REMARK   11  A    between atoms: C20_31  and  C21_32 
REMARK   12  A    between atoms: N7_38  and  C23_40 
ROOT
HETATM    1  C12 UNL     1      18.770  23.364  20.133  1.00  0.00     0.246 C 
HETATM    2  O1  UNL     1      17.977  23.927  20.906  1.00  0.00    -0.271 OA
HETATM    3  N4  UNL     1      18.333  22.348  19.257  1.00  0.00    -0.310 N 
ATOM      4  H4  UNL     1      18.710  21.410  19.395  1.00  0.00     0.170 HD
HETATM    5  C13 UNL     1      17.496  22.517  18.300  1.00  0.00     0.122 A 
HETATM    6  C14 UNL     1      16.885  23.693  17.960  1.00  0.00     0.052 A 
HETATM    7  C15 UNL     1      15.989  23.736  16.909  1.00  0.00     0.030 A 
HETATM    8  C16 UNL     1      15.683  22.606  16.164  1.00  0.00     0.026 A 
HETATM    9  N8  UNL     1      16.313  21.488  16.542  1.00  0.00    -0.303 N 
ATOM     10  H8  UNL     1      16.117  20.632  16.024  1.00  0.00     0.186 HD
HETATM   11  N9  UNL     1      17.162  21.422  17.531  1.00  0.00    -0.285 N 
ATOM     12  H9  UNL     1      17.595  20.524  17.744  1.00  0.00     0.188 HD
ENDROOT
BRANCH   1  13
HETATM   13  C5  UNL     1      20.230  23.749  20.116  1.00  0.00     0.180 C 
BRANCH  13  14
HETATM   14  C3  UNL     1      20.809  23.350  21.447  1.00  0.00     0.013 C 
HETATM   15  C4  UNL     1      20.396  21.971  21.843  1.00  0.00     0.012 C 
BRANCH  14  16
HETATM   16  C2  UNL     1      22.315  23.536  21.485  1.00  0.00     0.002 C 
HETATM   17  C1  UNL     1      22.977  23.182  20.206  1.00  0.00     0.005 C 
ENDBRANCH  14  16
ENDBRANCH  13  14
BRANCH  13  18
HETATM   18  N1  UNL     1      20.354  25.137  19.817  1.00  0.00    -0.356 N 
HETATM   19  C6  UNL     1      20.374  25.615  18.610  1.00  0.00     0.161 A 
HETATM   20  N2  UNL     1      20.490  26.907  18.257  1.00  0.00    -0.279 N 
HETATM   21  S1  UNL     1      20.276  24.860  17.067  1.00  0.00    -0.037 SA
HETATM   22  N3  UNL     1      20.499  27.220  17.039  1.00  0.00    -0.295 N 
ATOM     23  H2  UNL     1      20.571  27.629  18.973  1.00  0.00     0.189 HD
HETATM   24  C7  UNL     1      20.391  26.272  16.105  1.00  0.00     0.077 A 
ATOM     25  H3  UNL     1      20.588  28.198  16.765  1.00  0.00     0.187 HD
ATOM     26  H1  UNL     1      20.432  25.792  20.595  1.00  0.00     0.162 HD
BRANCH  24  27
HETATM   27  C8  UNL     1      20.378  26.434  14.613  1.00  0.00    -0.001 C 
HETATM   28  C9  UNL     1      21.150  27.654  14.184  1.00  0.00     0.021 C 
HETATM   29  C10 UNL     1      18.926  26.558  14.208  1.00  0.00     0.021 C 
HETATM   30  C11 UNL     1      20.895  25.161  14.014  1.00  0.00     0.021 C 
ENDBRANCH  24  27
ENDBRANCH  13  18
ENDBRANCH   1  13
BRANCH   8  31
HETATM   31  C17 UNL     1      14.759  22.519  15.046  1.00  0.00     0.068 C 
BRANCH  31  32
HETATM   32  C18 UNL     1      14.903  21.362  14.128  1.00  0.00     0.080 C 
BRANCH  32  33
HETATM   33  S2  UNL     1      13.418  20.361  13.924  1.00  0.00    -0.168 SA
BRANCH  33  34
HETATM   34  C19 UNL     1      12.129  20.864  15.096  1.00  0.00     0.082 C 
BRANCH  34  35
HETATM   35  C20 UNL     1      11.725  19.623  15.879  1.00  0.00     0.096 C 
BRANCH  35  36
HETATM   36  C21 UNL     1      12.331  19.704  17.239  1.00  0.00     0.142 A 
HETATM   37  N5  UNL     1      13.216  20.593  17.703  1.00  0.00    -0.280 N 
HETATM   38  N6  UNL     1      13.512  20.310  18.959  1.00  0.00    -0.263 N 
ATOM     39  H5  UNL     1      13.603  21.370  17.169  1.00  0.00     0.189 HD
HETATM   40  C22 UNL     1      12.803  19.230  19.303  1.00  0.00     0.247 A 
ATOM     41  H6  UNL     1      14.162  20.821  19.556  1.00  0.00     0.190 HD
HETATM   42  N7  UNL     1      12.824  18.655  20.480  1.00  0.00    -0.298 N 
HETATM   43  O3  UNL     1      12.103  18.893  18.244  1.00  0.00    -0.264 OA
ATOM     44  H7  UNL     1      13.406  19.005  21.241  1.00  0.00     0.171 HD
BRANCH  42  45
HETATM   45  C23 UNL     1      11.995  17.522  20.634  1.00  0.00     0.356 C 
HETATM   46  O2  UNL     1      10.782  17.642  20.931  1.00  0.00    -0.283 OA
ENDBRANCH  42  45
ENDBRANCH  35  36
ENDBRANCH  34  35
ENDBRANCH  33  34
ENDBRANCH  32  33
ENDBRANCH  31  32
ENDBRANCH   8  31
TORSDOF 12
ENDMDL
