MODEL 1
REMARK VINA RESULT: -10.141244686      0.000      0.000
REMARK  12 active torsions:
REMARK  status: ('A' for Active; 'I' for Inactive)
REMARK    1  A    between atoms: O1_2  and  C2_3 
REMARK    2  A    between atoms: C5_6  and  C6_7 
REMARK    3  A    between atoms: C6_7  and  C7_8 
REMARK       I    between atoms: C7_8  and  N1_10 
REMARK    4  A    between atoms: N1_10  and  C8_12 
REMARK    5  A    between atoms: C9_17  and  C10_18 
REMARK    6  A    between atoms: C10_18  and  C11_19 
REMARK    7  A    between atoms: C11_19  and  C12_20 
REMARK    8  A    between atoms: C12_20  and  C13_21 
REMARK    9  A    between atoms: C13_21  and  C14_22 
REMARK       I    between atoms: N6_28  and  C16_30 
REMARK   10  A    between atoms: C16_30  and  C17_32 
REMARK   11  A    between atoms: C17_32  and  C18_33 
REMARK   12  A    between atoms: C24_43  and  O4_44 
ROOT
HETATM    1  C10 UNL     1      17.917  25.545  15.157  1.00  0.00     0.066 C 
ENDROOT
BRANCH   1   2
HETATM    2  C9  UNL     1      17.394  24.856  16.367  1.00  0.00     0.069 A 
HETATM    3  N3  UNL     1      16.646  25.379  17.324  1.00  0.00    -0.296 N 
HETATM    4  N2  UNL     1      16.245  24.682  18.298  1.00  0.00    -0.279 N 
ATOM      5  H3  UNL     1      16.389  26.365  17.274  1.00  0.00     0.187 HD
HETATM    6  C8  UNL     1      16.601  23.377  18.340  1.00  0.00     0.167 A 
ATOM      7  H2  UNL     1      15.668  25.092  19.033  1.00  0.00     0.189 HD
HETATM    8  S2  UNL     1      17.528  23.232  16.918  1.00  0.00    -0.038 SA
BRANCH   6   9
HETATM    9  N1  UNL     1      16.267  22.524  19.275  1.00  0.00    -0.306 N 
HETATM   10  C7  UNL     1      16.801  21.224  19.247  1.00  0.00     0.227 C 
HETATM   11  O2  UNL     1      17.817  20.969  19.960  1.00  0.00    -0.273 OA
ATOM     12  H1  UNL     1      15.624  22.800  20.018  1.00  0.00     0.171 HD
BRANCH  10  13
HETATM   13  C6  UNL     1      16.196  20.143  18.403  1.00  0.00     0.141 C 
BRANCH  13  14
HETATM   14  C5  UNL     1      14.908  19.688  18.989  1.00  0.00    -0.047 A 
HETATM   15  C4  UNL     1      14.933  19.030  20.204  1.00  0.00     0.010 A 
HETATM   16  C3  UNL     1      13.751  18.607  20.754  1.00  0.00     0.040 A 
HETATM   17  C2  UNL     1      12.537  18.806  20.153  1.00  0.00     0.101 A 
HETATM   18  C24 UNL     1      12.503  19.473  18.919  1.00  0.00     0.102 A 
HETATM   19  C23 UNL     1      13.693  19.895  18.373  1.00  0.00     0.047 A 
BRANCH  17  20
HETATM   20  O1  UNL     1      11.384  18.356  20.754  1.00  0.00    -0.353 OA
HETATM   21  C1  UNL     1      11.033  17.007  20.709  1.00  0.00     0.210 C 
ENDBRANCH  17  20
BRANCH  18  22
HETATM   22  O4  UNL     1      11.268  19.651  18.354  1.00  0.00    -0.353 OA
HETATM   23  C25 UNL     1      10.942  19.571  17.006  1.00  0.00     0.210 C 
ENDBRANCH  18  22
ENDBRANCH  13  14
ENDBRANCH  10  13
ENDBRANCH   6   9
ENDBRANCH   1   2
BRANCH   1  24
HETATM   24  C11 UNL     1      19.359  25.148  14.957  1.00  0.00     0.007 C 
BRANCH  24  25
HETATM   25  C12 UNL     1      20.104  26.142  14.107  1.00  0.00     0.007 C 
BRANCH  25  26
HETATM   26  C13 UNL     1      20.059  27.481  14.803  1.00  0.00     0.066 C 
BRANCH  26  27
HETATM   27  C14 UNL     1      21.131  27.497  15.876  1.00  0.00     0.069 A 
HETATM   28  N4  UNL     1      22.204  28.275  15.922  1.00  0.00    -0.296 N 
HETATM   29  N5  UNL     1      23.012  28.186  16.896  1.00  0.00    -0.279 N 
ATOM     30  H4  UNL     1      22.380  28.945  15.173  1.00  0.00     0.187 HD
HETATM   31  C15 UNL     1      22.758  27.297  17.866  1.00  0.00     0.167 A 
ATOM     32  H5  UNL     1      23.841  28.780  16.940  1.00  0.00     0.189 HD
HETATM   33  N6  UNL     1      23.482  27.079  18.941  1.00  0.00    -0.306 N 
HETATM   34  S1  UNL     1      21.301  26.593  17.313  1.00  0.00    -0.038 SA
HETATM   35  C16 UNL     1      23.072  26.105  19.864  1.00  0.00     0.227 C 
ATOM     36  H6  UNL     1      24.335  27.615  19.104  1.00  0.00     0.171 HD
HETATM   37  O3  UNL     1      22.696  26.455  21.007  1.00  0.00    -0.273 OA
BRANCH  35  38
HETATM   38  C17 UNL     1      23.078  24.673  19.509  1.00  0.00     0.143 C 
BRANCH  38  39
HETATM   39  C18 UNL     1      21.858  24.019  20.092  1.00  0.00    -0.032 A 
HETATM   40  C19 UNL     1      20.582  24.187  19.668  1.00  0.00     0.095 A 
HETATM   41  N7  UNL     1      19.784  23.420  20.461  1.00  0.00    -0.369 N 
HETATM   42  C20 UNL     1      20.524  22.777  21.366  1.00  0.00     0.005 A 
ATOM     43  H7  UNL     1      18.770  23.347  20.376  1.00  0.00     0.165 HD
HETATM   44  C21 UNL     1      20.017  21.850  22.408  1.00  0.00     0.068 C 
HETATM   45  C22 UNL     1      21.841  23.133  21.162  1.00  0.00     0.033 A 
ENDBRANCH  38  39
ENDBRANCH  35  38
ENDBRANCH  26  27
ENDBRANCH  25  26
ENDBRANCH  24  25
ENDBRANCH   1  24
TORSDOF 12
ENDMDL
MODEL 2
REMARK VINA RESULT: -10.001402961      2.396      8.498
REMARK  12 active torsions:
REMARK  status: ('A' for Active; 'I' for Inactive)
REMARK    1  A    between atoms: O1_2  and  C2_3 
REMARK    2  A    between atoms: C5_6  and  C6_7 
REMARK    3  A    between atoms: C6_7  and  C7_8 
REMARK       I    between atoms: C7_8  and  N1_10 
REMARK    4  A    between atoms: N1_10  and  C8_12 
REMARK    5  A    between atoms: C9_17  and  C10_18 
REMARK    6  A    between atoms: C10_18  and  C11_19 
REMARK    7  A    between atoms: C11_19  and  C12_20 
REMARK    8  A    between atoms: C12_20  and  C13_21 
REMARK    9  A    between atoms: C13_21  and  C14_22 
REMARK       I    between atoms: N6_28  and  C16_30 
REMARK   10  A    between atoms: C16_30  and  C17_32 
REMARK   11  A    between atoms: C17_32  and  C18_33 
REMARK   12  A    between atoms: C24_43  and  O4_44 
ROOT
HETATM    1  C10 UNL     1      21.688  25.374  21.502  1.00  0.00     0.066 C 
ENDROOT
BRANCH   1   2
HETATM    2  C9  UNL     1      21.708  26.022  20.163  1.00  0.00     0.069 A 
HETATM    3  N3  UNL     1      20.720  26.679  19.579  1.00  0.00    -0.296 N 
HETATM    4  N2  UNL     1      20.865  27.206  18.440  1.00  0.00    -0.279 N 
ATOM      5  H3  UNL     1      19.823  26.761  20.058  1.00  0.00     0.187 HD
HETATM    6  C8  UNL     1      22.066  27.082  17.827  1.00  0.00     0.167 A 
ATOM      7  H2  UNL     1      20.099  27.711  17.995  1.00  0.00     0.189 HD
HETATM    8  S2  UNL     1      22.942  26.178  18.975  1.00  0.00    -0.038 SA
BRANCH   6   9
HETATM    9  N1  UNL     1      22.377  27.570  16.652  1.00  0.00    -0.306 N 
HETATM   10  C7  UNL     1      21.414  27.570  15.628  1.00  0.00     0.227 C 
HETATM   11  O2  UNL     1      20.743  28.625  15.424  1.00  0.00    -0.273 OA
ATOM     12  H1  UNL     1      23.310  27.946  16.481  1.00  0.00     0.171 HD
BRANCH  10  13
HETATM   13  C6  UNL     1      21.170  26.360  14.777  1.00  0.00     0.141 C 
BRANCH  13  14
HETATM   14  C5  UNL     1      19.909  25.688  15.182  1.00  0.00    -0.047 A 
HETATM   15  C4  UNL     1      18.713  26.182  14.697  1.00  0.00     0.010 A 
HETATM   16  C3  UNL     1      17.543  25.570  15.065  1.00  0.00     0.040 A 
HETATM   17  C2  UNL     1      17.502  24.483  15.896  1.00  0.00     0.101 A 
HETATM   18  C24 UNL     1      18.711  23.974  16.393  1.00  0.00     0.102 A 
HETATM   19  C23 UNL     1      19.882  24.594  16.020  1.00  0.00     0.047 A 
BRANCH  17  20
HETATM   20  O1  UNL     1      16.295  23.912  16.231  1.00  0.00    -0.353 OA
HETATM   21  C1  UNL     1      15.654  23.031  15.360  1.00  0.00     0.210 C 
ENDBRANCH  17  20
BRANCH  18  22
HETATM   22  O4  UNL     1      18.623  22.887  17.220  1.00  0.00    -0.353 OA
HETATM   23  C25 UNL     1      18.392  21.567  16.852  1.00  0.00     0.210 C 
ENDBRANCH  18  22
ENDBRANCH  13  14
ENDBRANCH  10  13
ENDBRANCH   6   9
ENDBRANCH   1   2
BRANCH   1  24
HETATM   24  C11 UNL     1      21.838  23.883  21.322  1.00  0.00     0.007 C 
BRANCH  24  25
HETATM   25  C12 UNL     1      20.630  23.272  20.667  1.00  0.00     0.007 C 
BRANCH  25  26
HETATM   26  C13 UNL     1      19.407  23.706  21.438  1.00  0.00     0.066 C 
BRANCH  26  27
HETATM   27  C14 UNL     1      18.177  23.358  20.620  1.00  0.00     0.069 A 
HETATM   28  N4  UNL     1      17.390  24.198  19.963  1.00  0.00    -0.296 N 
HETATM   29  N5  UNL     1      16.399  23.758  19.306  1.00  0.00    -0.279 N 
ATOM     30  H4  UNL     1      17.583  25.200  19.985  1.00  0.00     0.187 HD
HETATM   31  C15 UNL     1      16.168  22.437  19.293  1.00  0.00     0.167 A 
ATOM     32  H5  UNL     1      15.787  24.396  18.797  1.00  0.00     0.189 HD
HETATM   33  N6  UNL     1      15.196  21.816  18.664  1.00  0.00    -0.306 N 
HETATM   34  S1  UNL     1      17.446  21.857  20.271  1.00  0.00    -0.038 SA
HETATM   35  C16 UNL     1      15.097  20.419  18.754  1.00  0.00     0.227 C 
ATOM     36  H6  UNL     1      14.519  22.345  18.114  1.00  0.00     0.171 HD
HETATM   37  O3  UNL     1      15.298  19.717  17.736  1.00  0.00    -0.273 OA
BRANCH  35  38
HETATM   38  C17 UNL     1      14.757  19.763  20.032  1.00  0.00     0.143 C 
BRANCH  38  39
HETATM   39  C18 UNL     1      13.423  19.086  19.895  1.00  0.00    -0.032 A 
HETATM   40  C19 UNL     1      12.496  19.334  18.939  1.00  0.00     0.095 A 
HETATM   41  N7  UNL     1      11.437  18.510  19.175  1.00  0.00    -0.369 N 
HETATM   42  C20 UNL     1      11.677  17.756  20.248  1.00  0.00     0.005 A 
ATOM     43  H7  UNL     1      10.587  18.475  18.613  1.00  0.00     0.165 HD
HETATM   44  C21 UNL     1      10.760  16.740  20.822  1.00  0.00     0.068 C 
HETATM   45  C22 UNL     1      12.924  18.095  20.730  1.00  0.00     0.033 A 
ENDBRANCH  38  39
ENDBRANCH  35  38
ENDBRANCH  26  27
ENDBRANCH  25  26
ENDBRANCH  24  25
ENDBRANCH   1  24
TORSDOF 12
ENDMDL
MODEL 3
REMARK VINA RESULT: -9.815559668      2.065      4.664
REMARK  12 active torsions:
REMARK  status: ('A' for Active; 'I' for Inactive)
REMARK    1  A    between atoms: O1_2  and  C2_3 
REMARK    2  A    between atoms: C5_6  and  C6_7 
REMARK    3  A    between atoms: C6_7  and  C7_8 
REMARK       I    between atoms: C7_8  and  N1_10 
REMARK    4  A    between atoms: N1_10  and  C8_12 
REMARK    5  A    between atoms: C9_17  and  C10_18 
REMARK    6  A    between atoms: C10_18  and  C11_19 
REMARK    7  A    between atoms: C11_19  and  C12_20 
REMARK    8  A    between atoms: C12_20  and  C13_21 
REMARK    9  A    between atoms: C13_21  and  C14_22 
REMARK       I    between atoms: N6_28  and  C16_30 
REMARK   10  A    between atoms: C16_30  and  C17_32 
REMARK   11  A    between atoms: C17_32  and  C18_33 
REMARK   12  A    between atoms: C24_43  and  O4_44 
ROOT
HETATM    1  C10 UNL     1      18.234  23.371  20.717  1.00  0.00     0.066 C 
ENDROOT
BRANCH   1   2
HETATM    2  C9  UNL     1      17.482  23.579  19.450  1.00  0.00     0.069 A 
HETATM    3  N3  UNL     1      16.682  24.589  19.153  1.00  0.00    -0.296 N 
HETATM    4  N2  UNL     1      16.112  24.665  18.028  1.00  0.00    -0.279 N 
ATOM      5  H3  UNL     1      16.523  25.320  19.845  1.00  0.00     0.187 HD
HETATM    6  C8  UNL     1      16.341  23.681  17.127  1.00  0.00     0.167 A 
ATOM      7  H2  UNL     1      15.495  25.446  17.805  1.00  0.00     0.189 HD
HETATM    8  S2  UNL     1      17.404  22.669  17.992  1.00  0.00    -0.038 SA
BRANCH   6   9
HETATM    9  N1  UNL     1      15.830  23.614  15.923  1.00  0.00    -0.306 N 
HETATM   10  C7  UNL     1      14.652  22.876  15.713  1.00  0.00     0.227 C 
HETATM   11  O2  UNL     1      13.545  23.491  15.696  1.00  0.00    -0.273 OA
ATOM     12  H1  UNL     1      16.283  24.093  15.145  1.00  0.00     0.171 HD
BRANCH  10  13
HETATM   13  C6  UNL     1      14.680  21.391  15.506  1.00  0.00     0.141 C 
BRANCH  13  14
HETATM   14  C5  UNL     1      13.785  20.716  16.481  1.00  0.00    -0.047 A 
HETATM   15  C4  UNL     1      12.557  20.258  16.042  1.00  0.00     0.010 A 
HETATM   16  C3  UNL     1      11.724  19.634  16.933  1.00  0.00     0.040 A 
HETATM   17  C2  UNL     1      12.051  19.441  18.248  1.00  0.00     0.101 A 
HETATM   18  C24 UNL     1      13.296  19.902  18.702  1.00  0.00     0.102 A 
HETATM   19  C23 UNL     1      14.127  20.528  17.802  1.00  0.00     0.047 A 
BRANCH  17  20
HETATM   20  O1  UNL     1      11.170  18.808  19.095  1.00  0.00    -0.353 OA
HETATM   21  C1  UNL     1      10.922  17.441  18.979  1.00  0.00     0.210 C 
ENDBRANCH  17  20
BRANCH  18  22
HETATM   22  O4  UNL     1      13.582  19.687  20.024  1.00  0.00    -0.353 OA
HETATM   23  C25 UNL     1      14.398  18.697  20.556  1.00  0.00     0.210 C 
ENDBRANCH  18  22
ENDBRANCH  13  14
ENDBRANCH  10  13
ENDBRANCH   6   9
ENDBRANCH   1   2
BRANCH   1  24
HETATM   24  C11 UNL     1      19.180  22.209  20.535  1.00  0.00     0.007 C 
BRANCH  24  25
HETATM   25  C12 UNL     1      20.558  22.663  20.136  1.00  0.00     0.007 C 
BRANCH  25  26
HETATM   26  C13 UNL     1      20.970  23.782  21.062  1.00  0.00     0.066 C 
BRANCH  26  27
HETATM   27  C14 UNL     1      21.222  25.024  20.228  1.00  0.00     0.069 A 
HETATM   28  N4  UNL     1      20.650  26.212  20.369  1.00  0.00    -0.296 N 
HETATM   29  N5  UNL     1      20.972  27.167  19.600  1.00  0.00    -0.279 N 
ATOM     30  H4  UNL     1      19.949  26.356  21.096  1.00  0.00     0.187 HD
HETATM   31  C15 UNL     1      21.896  26.951  18.653  1.00  0.00     0.167 A 
ATOM     32  H5  UNL     1      20.538  28.085  19.701  1.00  0.00     0.189 HD
HETATM   33  N6  UNL     1      22.348  27.825  17.782  1.00  0.00    -0.306 N 
HETATM   34  S1  UNL     1      22.279  25.305  18.918  1.00  0.00    -0.038 SA
HETATM   35  C16 UNL     1      23.321  27.432  16.851  1.00  0.00     0.227 C 
ATOM     36  H6  UNL     1      21.994  28.782  17.783  1.00  0.00     0.171 HD
HETATM   37  O3  UNL     1      24.476  27.914  16.922  1.00  0.00    -0.273 OA
BRANCH  35  38
HETATM   38  C17 UNL     1      23.005  26.461  15.786  1.00  0.00     0.143 C 
BRANCH  38  39
HETATM   39  C18 UNL     1      21.643  26.768  15.232  1.00  0.00    -0.032 A 
HETATM   40  C19 UNL     1      21.235  27.958  14.730  1.00  0.00     0.095 A 
HETATM   41  N7  UNL     1      19.939  27.811  14.337  1.00  0.00    -0.369 N 
HETATM   42  C20 UNL     1      19.528  26.566  14.577  1.00  0.00     0.005 A 
ATOM     43  H7  UNL     1      19.368  28.546  13.919  1.00  0.00     0.165 HD
HETATM   44  C21 UNL     1      18.177  26.023  14.290  1.00  0.00     0.068 C 
HETATM   45  C22 UNL     1      20.580  25.877  15.144  1.00  0.00     0.033 A 
ENDBRANCH  38  39
ENDBRANCH  35  38
ENDBRANCH  26  27
ENDBRANCH  25  26
ENDBRANCH  24  25
ENDBRANCH   1  24
TORSDOF 12
ENDMDL
MODEL 4
REMARK VINA RESULT: -9.754194173      2.059      4.524
REMARK  12 active torsions:
REMARK  status: ('A' for Active; 'I' for Inactive)
REMARK    1  A    between atoms: O1_2  and  C2_3 
REMARK    2  A    between atoms: C5_6  and  C6_7 
REMARK    3  A    between atoms: C6_7  and  C7_8 
REMARK       I    between atoms: C7_8  and  N1_10 
REMARK    4  A    between atoms: N1_10  and  C8_12 
REMARK    5  A    between atoms: C9_17  and  C10_18 
REMARK    6  A    between atoms: C10_18  and  C11_19 
REMARK    7  A    between atoms: C11_19  and  C12_20 
REMARK    8  A    between atoms: C12_20  and  C13_21 
REMARK    9  A    between atoms: C13_21  and  C14_22 
REMARK       I    between atoms: N6_28  and  C16_30 
REMARK   10  A    between atoms: C16_30  and  C17_32 
REMARK   11  A    between atoms: C17_32  and  C18_33 
REMARK   12  A    between atoms: C24_43  and  O4_44 
ROOT
HETATM    1  C10 UNL     1      18.306  23.390  20.742  1.00  0.00     0.066 C 
ENDROOT
BRANCH   1   2
HETATM    2  C9  UNL     1      17.527  23.592  19.491  1.00  0.00     0.069 A 
HETATM    3  N3  UNL     1      16.650  24.550  19.242  1.00  0.00    -0.296 N 
HETATM    4  N2  UNL     1      16.063  24.629  18.126  1.00  0.00    -0.279 N 
ATOM      5  H3  UNL     1      16.444  25.239  19.966  1.00  0.00     0.187 HD
HETATM    6  C8  UNL     1      16.355  23.703  17.183  1.00  0.00     0.167 A 
ATOM      7  H2  UNL     1      15.387  25.371  17.941  1.00  0.00     0.189 HD
HETATM    8  S2  UNL     1      17.501  22.739  17.997  1.00  0.00    -0.038 SA
BRANCH   6   9
HETATM    9  N1  UNL     1      15.837  23.647  15.982  1.00  0.00    -0.306 N 
HETATM   10  C7  UNL     1      14.660  22.908  15.771  1.00  0.00     0.227 C 
HETATM   11  O2  UNL     1      13.551  23.520  15.767  1.00  0.00    -0.273 OA
ATOM     12  H1  UNL     1      16.284  24.135  15.206  1.00  0.00     0.171 HD
BRANCH  10  13
HETATM   13  C6  UNL     1      14.691  21.425  15.549  1.00  0.00     0.141 C 
BRANCH  13  14
HETATM   14  C5  UNL     1      13.839  20.734  16.551  1.00  0.00    -0.047 A 
HETATM   15  C4  UNL     1      14.203  20.797  17.883  1.00  0.00     0.010 A 
HETATM   16  C3  UNL     1      13.423  20.163  18.814  1.00  0.00     0.040 A 
HETATM   17  C2  UNL     1      12.292  19.465  18.488  1.00  0.00     0.101 A 
HETATM   18  C24 UNL     1      11.914  19.397  17.138  1.00  0.00     0.102 A 
HETATM   19  C23 UNL     1      12.702  20.036  16.208  1.00  0.00     0.047 A 
BRANCH  17  20
HETATM   20  O1  UNL     1      11.551  18.848  19.469  1.00  0.00    -0.353 OA
HETATM   21  C1  UNL     1      12.163  18.338  20.614  1.00  0.00     0.210 C 
ENDBRANCH  17  20
BRANCH  18  22
HETATM   22  O4  UNL     1      10.776  18.690  16.857  1.00  0.00    -0.353 OA
HETATM   23  C25 UNL     1      10.678  17.333  16.577  1.00  0.00     0.210 C 
ENDBRANCH  18  22
ENDBRANCH  13  14
ENDBRANCH  10  13
ENDBRANCH   6   9
ENDBRANCH   1   2
BRANCH   1  24
HETATM   24  C11 UNL     1      19.276  22.254  20.531  1.00  0.00     0.007 C 
BRANCH  24  25
HETATM   25  C12 UNL     1      20.650  22.747  20.164  1.00  0.00     0.007 C 
BRANCH  25  26
HETATM   26  C13 UNL     1      20.991  23.903  21.074  1.00  0.00     0.066 C 
BRANCH  26  27
HETATM   27  C14 UNL     1      21.260  25.124  20.214  1.00  0.00     0.069 A 
HETATM   28  N4  UNL     1      20.712  26.325  20.337  1.00  0.00    -0.296 N 
HETATM   29  N5  UNL     1      21.046  27.259  19.548  1.00  0.00    -0.279 N 
ATOM     30  H4  UNL     1      20.020  26.496  21.068  1.00  0.00     0.187 HD
HETATM   31  C15 UNL     1      21.957  27.007  18.598  1.00  0.00     0.167 A 
ATOM     32  H5  UNL     1      20.630  28.187  19.635  1.00  0.00     0.189 HD
HETATM   33  N6  UNL     1      22.418  27.856  17.707  1.00  0.00    -0.306 N 
HETATM   34  S1  UNL     1      22.311  25.360  18.891  1.00  0.00    -0.038 SA
HETATM   35  C16 UNL     1      23.376  27.427  16.775  1.00  0.00     0.227 C 
ATOM     36  H6  UNL     1      22.083  28.820  17.693  1.00  0.00     0.171 HD
HETATM   37  O3  UNL     1      24.540  27.888  16.828  1.00  0.00    -0.273 OA
BRANCH  35  38
HETATM   38  C17 UNL     1      23.032  26.442  15.732  1.00  0.00     0.143 C 
BRANCH  38  39
HETATM   39  C18 UNL     1      21.666  26.757  15.192  1.00  0.00    -0.032 A 
HETATM   40  C19 UNL     1      21.238  27.967  14.760  1.00  0.00     0.095 A 
HETATM   41  N7  UNL     1      19.945  27.821  14.354  1.00  0.00    -0.369 N 
HETATM   42  C20 UNL     1      19.556  26.556  14.521  1.00  0.00     0.005 A 
ATOM     43  H7  UNL     1      19.362  28.568  13.978  1.00  0.00     0.165 HD
HETATM   44  C21 UNL     1      18.215  26.007  14.199  1.00  0.00     0.068 C 
HETATM   45  C22 UNL     1      20.619  25.855  15.050  1.00  0.00     0.033 A 
ENDBRANCH  38  39
ENDBRANCH  35  38
ENDBRANCH  26  27
ENDBRANCH  25  26
ENDBRANCH  24  25
ENDBRANCH   1  24
TORSDOF 12
ENDMDL
MODEL 5
REMARK VINA RESULT: -9.716721079      2.212      9.488
REMARK  12 active torsions:
REMARK  status: ('A' for Active; 'I' for Inactive)
REMARK    1  A    between atoms: O1_2  and  C2_3 
REMARK    2  A    between atoms: C5_6  and  C6_7 
REMARK    3  A    between atoms: C6_7  and  C7_8 
REMARK       I    between atoms: C7_8  and  N1_10 
REMARK    4  A    between atoms: N1_10  and  C8_12 
REMARK    5  A    between atoms: C9_17  and  C10_18 
REMARK    6  A    between atoms: C10_18  and  C11_19 
REMARK    7  A    between atoms: C11_19  and  C12_20 
REMARK    8  A    between atoms: C12_20  and  C13_21 
REMARK    9  A    between atoms: C13_21  and  C14_22 
REMARK       I    between atoms: N6_28  and  C16_30 
REMARK   10  A    between atoms: C16_30  and  C17_32 
REMARK   11  A    between atoms: C17_32  and  C18_33 
REMARK   12  A    between atoms: C24_43  and  O4_44 
ROOT
HETATM    1  C10 UNL     1      18.414  25.796  14.438  1.00  0.00     0.066 C 
ENDROOT
BRANCH   1   2
HETATM    2  C9  UNL     1      19.856  26.079  14.667  1.00  0.00     0.069 A 
HETATM    3  N3  UNL     1      20.821  25.197  14.865  1.00  0.00    -0.296 N 
HETATM    4  N2  UNL     1      22.020  25.562  15.029  1.00  0.00    -0.279 N 
ATOM      5  H3  UNL     1      20.594  24.203  14.886  1.00  0.00     0.187 HD
HETATM    6  C8  UNL     1      22.295  26.887  14.997  1.00  0.00     0.167 A 
ATOM      7  H2  UNL     1      22.760  24.876  15.182  1.00  0.00     0.189 HD
HETATM    8  S2  UNL     1      20.749  27.548  14.722  1.00  0.00    -0.038 SA
BRANCH   6   9
HETATM    9  N1  UNL     1      23.480  27.424  15.147  1.00  0.00    -0.306 N 
HETATM   10  C7  UNL     1      24.317  26.973  16.182  1.00  0.00     0.227 C 
HETATM   11  O2  UNL     1      25.203  26.108  15.913  1.00  0.00    -0.273 OA
ATOM     12  H1  UNL     1      23.792  28.165  14.519  1.00  0.00     0.171 HD
BRANCH  10  13
HETATM   13  C6  UNL     1      24.186  27.491  17.582  1.00  0.00     0.141 C 
BRANCH  13  14
HETATM   14  C5  UNL     1      23.472  26.505  18.435  1.00  0.00    -0.047 A 
HETATM   15  C4  UNL     1      22.091  26.537  18.465  1.00  0.00     0.010 A 
HETATM   16  C3  UNL     1      21.424  25.631  19.248  1.00  0.00     0.040 A 
HETATM   17  C2  UNL     1      22.064  24.689  20.007  1.00  0.00     0.101 A 
HETATM   18  C24 UNL     1      23.466  24.650  19.982  1.00  0.00     0.102 A 
HETATM   19  C23 UNL     1      24.130  25.562  19.194  1.00  0.00     0.047 A 
BRANCH  17  20
HETATM   20  O1  UNL     1      21.338  23.808  20.775  1.00  0.00    -0.353 OA
HETATM   21  C1  UNL     1      20.187  24.221  21.444  1.00  0.00     0.210 C 
ENDBRANCH  17  20
BRANCH  18  22
HETATM   22  O4  UNL     1      24.065  23.691  20.755  1.00  0.00    -0.353 OA
HETATM   23  C25 UNL     1      25.177  23.846  21.574  1.00  0.00     0.210 C 
ENDBRANCH  18  22
ENDBRANCH  13  14
ENDBRANCH  10  13
ENDBRANCH   6   9
ENDBRANCH   1   2
BRANCH   1  24
HETATM   24  C11 UNL     1      17.892  24.972  15.589  1.00  0.00     0.007 C 
BRANCH  24  25
HETATM   25  C12 UNL     1      18.101  25.656  16.912  1.00  0.00     0.007 C 
BRANCH  25  26
HETATM   26  C13 UNL     1      18.153  24.596  17.986  1.00  0.00     0.066 C 
BRANCH  26  27
HETATM   27  C14 UNL     1      16.798  23.917  18.053  1.00  0.00     0.069 A 
HETATM   28  N4  UNL     1      15.654  24.454  18.455  1.00  0.00    -0.296 N 
HETATM   29  N5  UNL     1      14.590  23.764  18.444  1.00  0.00    -0.279 N 
ATOM     30  H4  UNL     1      15.630  25.424  18.772  1.00  0.00     0.187 HD
HETATM   31  C15 UNL     1      14.649  22.493  18.022  1.00  0.00     0.167 A 
ATOM     32  H5  UNL     1      13.705  24.169  18.751  1.00  0.00     0.189 HD
HETATM   33  N6  UNL     1      13.649  21.645  17.942  1.00  0.00    -0.306 N 
HETATM   34  S1  UNL     1      16.309  22.336  17.640  1.00  0.00    -0.038 SA
HETATM   35  C16 UNL     1      13.883  20.343  17.475  1.00  0.00     0.227 C 
ATOM     36  H6  UNL     1      12.708  21.931  18.216  1.00  0.00     0.171 HD
HETATM   37  O3  UNL     1      13.398  19.981  16.378  1.00  0.00    -0.273 OA
BRANCH  35  38
HETATM   38  C17 UNL     1      14.693  19.390  18.259  1.00  0.00     0.143 C 
BRANCH  38  39
HETATM   39  C18 UNL     1      13.880  18.897  19.422  1.00  0.00    -0.032 A 
HETATM   40  C19 UNL     1      14.023  19.276  20.714  1.00  0.00     0.095 A 
HETATM   41  N7  UNL     1      13.096  18.596  21.444  1.00  0.00    -0.369 N 
HETATM   42  C20 UNL     1      12.379  17.805  20.645  1.00  0.00     0.005 A 
ATOM     43  H7  UNL     1      12.968  18.680  22.453  1.00  0.00     0.165 HD
HETATM   44  C21 UNL     1      11.277  16.905  21.069  1.00  0.00     0.068 C 
HETATM   45  C22 UNL     1      12.849  17.969  19.358  1.00  0.00     0.033 A 
ENDBRANCH  38  39
ENDBRANCH  35  38
ENDBRANCH  26  27
ENDBRANCH  25  26
ENDBRANCH  24  25
ENDBRANCH   1  24
TORSDOF 12
ENDMDL
