MODEL 1
REMARK VINA RESULT: -9.987053613      0.000      0.000
REMARK  11 active torsions:
REMARK  status: ('A' for Active; 'I' for Inactive)
REMARK    1  A    between atoms: C2_2  and  C3_3 
REMARK    2  A    between atoms: C3_3  and  C4_4 
REMARK    3  A    between atoms: C4_4  and  C5_5 
REMARK    4  A    between atoms: C5_5  and  C6_6 
REMARK    5  A    between atoms: C6_6  and  C7_7 
REMARK    6  A    between atoms: C8_10  and  C9_11 
REMARK    7  A    between atoms: C11_13  and  N2_14 
REMARK       I    between atoms: N2_14  and  C12_16 
REMARK    8  A    between atoms: N5_25  and  C16_26 
REMARK    9  A    between atoms: C16_26  and  C17_27 
REMARK       I    between atoms: C17_27  and  N6_29 
REMARK   10  A    between atoms: N7_32  and  C20_33 
REMARK   11  A    between atoms: C24_39  and  C25_40 
REMARK       I    between atoms: C25_40  and  N9_42 
ROOT
HETATM    1  C7  UNL     1      18.424  23.408  18.213  1.00  0.00     0.100 A 
HETATM    2  N1  UNL     1      19.509  24.041  17.733  1.00  0.00    -0.329 N 
ATOM      3  H1  UNL     1      20.455  23.660  17.733  1.00  0.00     0.168 HD
HETATM    4  C8  UNL     1      19.165  25.256  17.249  1.00  0.00     0.134 A 
HETATM    5  N4  UNL     1      17.850  25.351  17.441  1.00  0.00    -0.281 N 
ATOM      6  H4  UNL     1      17.276  26.154  17.183  1.00  0.00     0.189 HD
HETATM    7  N5  UNL     1      17.392  24.228  18.029  1.00  0.00    -0.270 N 
ENDROOT
BRANCH   7   8
HETATM    8  C16 UNL     1      16.024  24.005  18.364  1.00  0.00     0.253 C 
BRANCH   8   9
HETATM    9  C17 UNL     1      15.317  23.232  17.294  1.00  0.00     0.239 C 
HETATM   10  O2  UNL     1      15.403  23.565  16.062  1.00  0.00    -0.271 OA
HETATM   11  N6  UNL     1      14.522  22.104  17.593  1.00  0.00    -0.348 N 
HETATM   12  C18 UNL     1      14.409  21.697  18.990  1.00  0.00     0.145 C 
HETATM   13  C28 UNL     1      13.828  21.341  16.578  1.00  0.00     0.145 C 
HETATM   14  C19 UNL     1      14.879  20.253  19.063  1.00  0.00     0.144 C 
HETATM   15  N7  UNL     1      13.823  19.540  18.218  1.00  0.00    -0.363 N 
HETATM   16  C27 UNL     1      13.985  19.838  16.851  1.00  0.00     0.144 C 
BRANCH  15  17
HETATM   17  C20 UNL     1      12.955  18.746  18.964  1.00  0.00     0.119 A 
HETATM   18  N8  UNL     1      13.317  18.484  20.281  1.00  0.00    -0.352 N 
HETATM   19  C21 UNL     1      12.560  17.777  21.118  1.00  0.00     0.089 A 
ATOM     20  H8  UNL     1      14.205  18.850  20.621  1.00  0.00     0.166 HD
HETATM   21  C22 UNL     1      11.348  17.248  20.733  1.00  0.00     0.018 A 
HETATM   22  C23 UNL     1      10.955  17.479  19.451  1.00  0.00     0.022 A 
HETATM   23  C24 UNL     1      11.778  18.238  18.565  1.00  0.00     0.075 A 
BRANCH  23  24
HETATM   24  C25 UNL     1      11.269  18.365  17.219  1.00  0.00     0.255 C 
HETATM   25  O3  UNL     1      10.632  19.386  16.898  1.00  0.00    -0.268 OA
HETATM   26  N9  UNL     1      11.473  17.343  16.274  1.00  0.00    -0.361 N 
HETATM   27  C26 UNL     1      11.000  17.347  14.908  1.00  0.00     0.149 C 
ATOM     28  H9  UNL     1      12.002  16.527  16.580  1.00  0.00     0.162 HD
ENDBRANCH  23  24
ENDBRANCH  15  17
ENDBRANCH   8   9
ENDBRANCH   7   8
BRANCH   1  29
HETATM   29  C6  UNL     1      18.467  22.054  18.836  1.00  0.00     0.078 C 
BRANCH  29  30
HETATM   30  C5  UNL     1      18.437  22.136  20.330  1.00  0.00     0.007 C 
BRANCH  30  31
HETATM   31  C4  UNL     1      19.682  21.542  20.913  1.00  0.00     0.000 C 
BRANCH  31  32
HETATM   32  C3  UNL     1      20.634  22.560  21.494  1.00  0.00    -0.000 C 
BRANCH  32  33
HETATM   33  C2  UNL     1      19.948  23.874  21.794  1.00  0.00    -0.005 C 
HETATM   34  C1  UNL     1      20.569  25.058  21.135  1.00  0.00     0.005 C 
ENDBRANCH  32  33
ENDBRANCH  31  32
ENDBRANCH  30  31
ENDBRANCH  29  30
ENDBRANCH   1  29
BRANCH   4  35
HETATM   35  C9  UNL     1      20.118  26.227  16.645  1.00  0.00     0.035 A 
HETATM   36  C10 UNL     1      21.228  26.771  17.230  1.00  0.00     0.066 A 
HETATM   37  C11 UNL     1      21.813  27.624  16.278  1.00  0.00     0.108 A 
HETATM   38  N3  UNL     1      21.058  27.568  15.181  1.00  0.00    -0.345 N 
HETATM   39  C14 UNL     1      20.033  26.734  15.381  1.00  0.00     0.021 A 
ATOM     40  H3  UNL     1      21.236  28.084  14.318  1.00  0.00     0.167 HD
HETATM   41  C15 UNL     1      18.980  26.415  14.401  1.00  0.00     0.069 C 
BRANCH  37  42
HETATM   42  N2  UNL     1      23.012  28.377  16.524  1.00  0.00    -0.313 N 
HETATM   43  C12 UNL     1      24.266  27.828  16.276  1.00  0.00     0.219 C 
HETATM   44  C13 UNL     1      25.491  28.670  16.562  1.00  0.00     0.117 C 
HETATM   45  O1  UNL     1      24.481  26.704  15.840  1.00  0.00    -0.274 OA
ATOM     46  H2  UNL     1      22.943  29.328  16.886  1.00  0.00     0.170 HD
ENDBRANCH  37  42
ENDBRANCH   4  35
TORSDOF 11
ENDMDL
MODEL 2
REMARK VINA RESULT: -9.849776558      1.069      1.244
REMARK  11 active torsions:
REMARK  status: ('A' for Active; 'I' for Inactive)
REMARK    1  A    between atoms: C2_2  and  C3_3 
REMARK    2  A    between atoms: C3_3  and  C4_4 
REMARK    3  A    between atoms: C4_4  and  C5_5 
REMARK    4  A    between atoms: C5_5  and  C6_6 
REMARK    5  A    between atoms: C6_6  and  C7_7 
REMARK    6  A    between atoms: C8_10  and  C9_11 
REMARK    7  A    between atoms: C11_13  and  N2_14 
REMARK       I    between atoms: N2_14  and  C12_16 
REMARK    8  A    between atoms: N5_25  and  C16_26 
REMARK    9  A    between atoms: C16_26  and  C17_27 
REMARK       I    between atoms: C17_27  and  N6_29 
REMARK   10  A    between atoms: N7_32  and  C20_33 
REMARK   11  A    between atoms: C24_39  and  C25_40 
REMARK       I    between atoms: C25_40  and  N9_42 
ROOT
HETATM    1  C7  UNL     1      18.630  24.237  18.602  1.00  0.00     0.100 A 
HETATM    2  N1  UNL     1      19.392  25.327  18.407  1.00  0.00    -0.329 N 
ATOM      3  H1  UNL     1      19.516  26.081  19.083  1.00  0.00     0.168 HD
HETATM    4  C8  UNL     1      19.973  25.280  17.187  1.00  0.00     0.134 A 
HETATM    5  N4  UNL     1      19.551  24.140  16.641  1.00  0.00    -0.281 N 
ATOM      6  H4  UNL     1      19.808  23.802  15.714  1.00  0.00     0.189 HD
HETATM    7  N5  UNL     1      18.732  23.499  17.499  1.00  0.00    -0.270 N 
ENDROOT
BRANCH   7   8
HETATM    8  C16 UNL     1      18.115  22.243  17.223  1.00  0.00     0.253 C 
BRANCH   8   9
HETATM    9  C17 UNL     1      16.718  22.419  16.714  1.00  0.00     0.239 C 
HETATM   10  O2  UNL     1      16.448  23.245  15.776  1.00  0.00    -0.271 OA
HETATM   11  N6  UNL     1      15.635  21.684  17.244  1.00  0.00    -0.348 N 
HETATM   12  C18 UNL     1      15.912  20.730  18.313  1.00  0.00     0.145 C 
HETATM   13  C28 UNL     1      14.275  21.837  16.770  1.00  0.00     0.145 C 
HETATM   14  C19 UNL     1      15.413  19.378  17.829  1.00  0.00     0.144 C 
HETATM   15  N7  UNL     1      13.908  19.624  17.719  1.00  0.00    -0.363 N 
HETATM   16  C27 UNL     1      13.612  20.460  16.625  1.00  0.00     0.144 C 
BRANCH  15  17
HETATM   17  C20 UNL     1      13.163  18.964  18.693  1.00  0.00     0.119 A 
HETATM   18  N8  UNL     1      13.658  18.993  19.992  1.00  0.00    -0.352 N 
HETATM   19  C21 UNL     1      13.025  18.443  21.026  1.00  0.00     0.089 A 
ATOM     20  H8  UNL     1      14.549  19.458  20.160  1.00  0.00     0.166 HD
HETATM   21  C22 UNL     1      11.818  17.796  20.880  1.00  0.00     0.018 A 
HETATM   22  C23 UNL     1      11.296  17.742  19.625  1.00  0.00     0.022 A 
HETATM   23  C24 UNL     1      11.987  18.336  18.525  1.00  0.00     0.075 A 
BRANCH  23  24
HETATM   24  C25 UNL     1      11.351  18.163  17.240  1.00  0.00     0.255 C 
HETATM   25  O3  UNL     1      10.653  19.082  16.772  1.00  0.00    -0.268 OA
HETATM   26  N9  UNL     1      11.502  16.964  16.520  1.00  0.00    -0.361 N 
HETATM   27  C26 UNL     1      10.904  16.666  15.238  1.00  0.00     0.149 C 
ATOM     28  H9  UNL     1      12.084  16.240  16.940  1.00  0.00     0.162 HD
ENDBRANCH  23  24
ENDBRANCH  15  17
ENDBRANCH   8   9
ENDBRANCH   7   8
BRANCH   1  29
HETATM   29  C6  UNL     1      17.838  23.994  19.842  1.00  0.00     0.078 C 
BRANCH  29  30
HETATM   30  C5  UNL     1      18.725  23.820  21.034  1.00  0.00     0.007 C 
BRANCH  30  31
HETATM   31  C4  UNL     1      19.297  22.436  21.067  1.00  0.00     0.000 C 
BRANCH  31  32
HETATM   32  C3  UNL     1      20.727  22.373  21.548  1.00  0.00    -0.000 C 
BRANCH  32  33
HETATM   33  C2  UNL     1      21.506  23.617  21.181  1.00  0.00    -0.005 C 
HETATM   34  C1  UNL     1      22.275  23.510  19.910  1.00  0.00     0.005 C 
ENDBRANCH  32  33
ENDBRANCH  31  32
ENDBRANCH  30  31
ENDBRANCH  29  30
ENDBRANCH   1  29
BRANCH   4  35
HETATM   35  C9  UNL     1      20.879  26.326  16.640  1.00  0.00     0.035 A 
HETATM   36  C10 UNL     1      22.096  26.707  17.133  1.00  0.00     0.066 A 
HETATM   37  C11 UNL     1      22.580  27.718  16.285  1.00  0.00     0.108 A 
HETATM   38  N3  UNL     1      21.666  27.908  15.334  1.00  0.00    -0.345 N 
HETATM   39  C14 UNL     1      20.635  27.080  15.530  1.00  0.00     0.021 A 
ATOM     40  H3  UNL     1      21.741  28.583  14.573  1.00  0.00     0.167 HD
HETATM   41  C15 UNL     1      19.428  26.997  14.688  1.00  0.00     0.069 C 
BRANCH  37  42
HETATM   42  N2  UNL     1      23.846  28.371  16.478  1.00  0.00    -0.313 N 
HETATM   43  C12 UNL     1      25.037  27.741  16.134  1.00  0.00     0.219 C 
HETATM   44  C13 UNL     1      26.338  28.479  16.367  1.00  0.00     0.117 C 
HETATM   45  O1  UNL     1      25.139  26.621  15.650  1.00  0.00    -0.274 OA
ATOM     46  H2  UNL     1      23.872  29.312  16.873  1.00  0.00     0.170 HD
ENDBRANCH  37  42
ENDBRANCH   4  35
TORSDOF 11
ENDMDL
MODEL 3
REMARK VINA RESULT: -9.847569630      2.180     11.549
REMARK  11 active torsions:
REMARK  status: ('A' for Active; 'I' for Inactive)
REMARK    1  A    between atoms: C2_2  and  C3_3 
REMARK    2  A    between atoms: C3_3  and  C4_4 
REMARK    3  A    between atoms: C4_4  and  C5_5 
REMARK    4  A    between atoms: C5_5  and  C6_6 
REMARK    5  A    between atoms: C6_6  and  C7_7 
REMARK    6  A    between atoms: C8_10  and  C9_11 
REMARK    7  A    between atoms: C11_13  and  N2_14 
REMARK       I    between atoms: N2_14  and  C12_16 
REMARK    8  A    between atoms: N5_25  and  C16_26 
REMARK    9  A    between atoms: C16_26  and  C17_27 
REMARK       I    between atoms: C17_27  and  N6_29 
REMARK   10  A    between atoms: N7_32  and  C20_33 
REMARK   11  A    between atoms: C24_39  and  C25_40 
REMARK       I    between atoms: C25_40  and  N9_42 
ROOT
HETATM    1  C7  UNL     1      15.009  21.433  16.980  1.00  0.00     0.100 A 
HETATM    2  N1  UNL     1      14.360  20.271  17.164  1.00  0.00    -0.329 N 
ATOM      3  H1  UNL     1      14.355  19.494  16.502  1.00  0.00     0.168 HD
HETATM    4  C8  UNL     1      13.716  20.278  18.353  1.00  0.00     0.134 A 
HETATM    5  N4  UNL     1      13.986  21.467  18.891  1.00  0.00    -0.281 N 
ATOM      6  H4  UNL     1      13.647  21.792  19.796  1.00  0.00     0.189 HD
HETATM    7  N5  UNL     1      14.774  22.176  18.059  1.00  0.00    -0.270 N 
ENDROOT
BRANCH   7   8
HETATM    8  C16 UNL     1      15.253  23.489  18.342  1.00  0.00     0.253 C 
BRANCH   8   9
HETATM    9  C17 UNL     1      16.604  23.453  18.986  1.00  0.00     0.239 C 
HETATM   10  O2  UNL     1      16.827  22.749  20.031  1.00  0.00    -0.271 OA
HETATM   11  N6  UNL     1      17.693  24.192  18.475  1.00  0.00    -0.348 N 
HETATM   12  C18 UNL     1      17.471  25.001  17.281  1.00  0.00     0.145 C 
HETATM   13  C28 UNL     1      19.007  24.175  19.080  1.00  0.00     0.145 C 
HETATM   14  C19 UNL     1      18.476  24.531  16.243  1.00  0.00     0.144 C 
HETATM   15  N7  UNL     1      19.802  24.913  16.900  1.00  0.00    -0.363 N 
HETATM   16  C27 UNL     1      20.086  24.070  17.992  1.00  0.00     0.144 C 
BRANCH  15  17
HETATM   17  C20 UNL     1      20.447  25.979  16.276  1.00  0.00     0.119 A 
HETATM   18  N8  UNL     1      20.148  26.198  14.936  1.00  0.00    -0.352 N 
HETATM   19  C21 UNL     1      20.657  27.206  14.231  1.00  0.00     0.089 A 
ATOM     20  H8  UNL     1      19.508  25.555  14.471  1.00  0.00     0.166 HD
HETATM   21  C22 UNL     1      21.528  28.116  14.787  1.00  0.00     0.018 A 
HETATM   22  C23 UNL     1      21.850  27.939  16.097  1.00  0.00     0.022 A 
HETATM   23  C24 UNL     1      21.297  26.852  16.840  1.00  0.00     0.075 A 
BRANCH  23  24
HETATM   24  C25 UNL     1      21.760  26.748  18.204  1.00  0.00     0.255 C 
HETATM   25  O3  UNL     1      22.812  26.128  18.449  1.00  0.00    -0.268 OA
HETATM   26  N9  UNL     1      21.029  27.326  19.258  1.00  0.00    -0.361 N 
HETATM   27  C26 UNL     1      21.379  27.275  20.659  1.00  0.00     0.149 C 
ATOM     28  H9  UNL     1      20.175  27.826  19.010  1.00  0.00     0.162 HD
ENDBRANCH  23  24
ENDBRANCH  15  17
ENDBRANCH   8   9
ENDBRANCH   7   8
BRANCH   1  29
HETATM   29  C6  UNL     1      15.802  21.752  15.758  1.00  0.00     0.078 C 
BRANCH  29  30
HETATM   30  C5  UNL     1      14.922  22.203  14.635  1.00  0.00     0.007 C 
BRANCH  30  31
HETATM   31  C4  UNL     1      14.961  21.217  13.508  1.00  0.00     0.000 C 
BRANCH  31  32
HETATM   32  C3  UNL     1      13.845  20.200  13.544  1.00  0.00    -0.000 C 
BRANCH  32  33
HETATM   33  C2  UNL     1      12.595  20.749  14.194  1.00  0.00    -0.005 C 
HETATM   34  C1  UNL     1      11.760  19.727  14.887  1.00  0.00     0.005 C 
ENDBRANCH  32  33
ENDBRANCH  31  32
ENDBRANCH  30  31
ENDBRANCH  29  30
ENDBRANCH   1  29
BRANCH   4  35
HETATM   35  C9  UNL     1      12.894  19.153  18.877  1.00  0.00     0.035 A 
HETATM   36  C10 UNL     1      11.782  18.602  18.303  1.00  0.00     0.066 A 
HETATM   37  C11 UNL     1      11.355  17.569  19.154  1.00  0.00     0.108 A 
HETATM   38  N3  UNL     1      12.198  17.531  20.185  1.00  0.00    -0.345 N 
HETATM   39  C14 UNL     1      13.132  18.476  20.038  1.00  0.00     0.021 A 
ATOM     40  H3  UNL     1      12.141  16.880  20.968  1.00  0.00     0.167 HD
HETATM   41  C15 UNL     1      14.236  18.749  20.976  1.00  0.00     0.069 C 
BRANCH  37  42
HETATM   42  N2  UNL     1      10.208  16.746  18.883  1.00  0.00    -0.313 N 
HETATM   43  C12 UNL     1       9.563  16.056  19.904  1.00  0.00     0.219 C 
HETATM   44  C13 UNL     1       8.364  15.201  19.552  1.00  0.00     0.117 C 
HETATM   45  O1  UNL     1       9.877  16.074  21.087  1.00  0.00    -0.274 OA
ATOM     46  H2  UNL     1       9.862  16.666  17.926  1.00  0.00     0.170 HD
ENDBRANCH  37  42
ENDBRANCH   4  35
TORSDOF 11
ENDMDL
MODEL 4
REMARK VINA RESULT: -9.760703052      2.142     11.525
REMARK  11 active torsions:
REMARK  status: ('A' for Active; 'I' for Inactive)
REMARK    1  A    between atoms: C2_2  and  C3_3 
REMARK    2  A    between atoms: C3_3  and  C4_4 
REMARK    3  A    between atoms: C4_4  and  C5_5 
REMARK    4  A    between atoms: C5_5  and  C6_6 
REMARK    5  A    between atoms: C6_6  and  C7_7 
REMARK    6  A    between atoms: C8_10  and  C9_11 
REMARK    7  A    between atoms: C11_13  and  N2_14 
REMARK       I    between atoms: N2_14  and  C12_16 
REMARK    8  A    between atoms: N5_25  and  C16_26 
REMARK    9  A    between atoms: C16_26  and  C17_27 
REMARK       I    between atoms: C17_27  and  N6_29 
REMARK   10  A    between atoms: N7_32  and  C20_33 
REMARK   11  A    between atoms: C24_39  and  C25_40 
REMARK       I    between atoms: C25_40  and  N9_42 
ROOT
HETATM    1  C7  UNL     1      14.791  21.293  16.882  1.00  0.00     0.100 A 
HETATM    2  N1  UNL     1      14.172  20.125  17.122  1.00  0.00    -0.329 N 
ATOM      3  H1  UNL     1      14.127  19.343  16.469  1.00  0.00     0.168 HD
HETATM    4  C8  UNL     1      13.617  20.134  18.355  1.00  0.00     0.134 A 
HETATM    5  N4  UNL     1      13.911  21.331  18.863  1.00  0.00    -0.281 N 
ATOM      6  H4  UNL     1      13.636  21.660  19.788  1.00  0.00     0.189 HD
HETATM    7  N5  UNL     1      14.627  22.042  17.969  1.00  0.00    -0.270 N 
ENDROOT
BRANCH   7   8
HETATM    8  C16 UNL     1      15.109  23.364  18.206  1.00  0.00     0.253 C 
BRANCH   8   9
HETATM    9  C17 UNL     1      16.443  23.347  18.885  1.00  0.00     0.239 C 
HETATM   10  O2  UNL     1      16.651  22.642  19.932  1.00  0.00    -0.271 OA
HETATM   11  N6  UNL     1      17.532  24.107  18.405  1.00  0.00    -0.348 N 
HETATM   12  C18 UNL     1      17.327  24.918  17.209  1.00  0.00     0.145 C 
HETATM   13  C28 UNL     1      18.831  24.109  19.044  1.00  0.00     0.145 C 
HETATM   14  C19 UNL     1      18.367  24.469  16.195  1.00  0.00     0.144 C 
HETATM   15  N7  UNL     1      19.669  24.870  16.888  1.00  0.00    -0.363 N 
HETATM   16  C27 UNL     1      19.938  24.027  17.984  1.00  0.00     0.144 C 
BRANCH  15  17
HETATM   17  C20 UNL     1      20.311  25.950  16.286  1.00  0.00     0.119 A 
HETATM   18  N8  UNL     1      19.997  26.207  14.956  1.00  0.00    -0.352 N 
HETATM   19  C21 UNL     1      20.502  27.232  14.273  1.00  0.00     0.089 A 
ATOM     20  H8  UNL     1      19.348  25.580  14.481  1.00  0.00     0.166 HD
HETATM   21  C22 UNL     1      21.386  28.122  14.842  1.00  0.00     0.018 A 
HETATM   22  C23 UNL     1      21.723  27.907  16.143  1.00  0.00     0.022 A 
HETATM   23  C24 UNL     1      21.173  26.803  16.863  1.00  0.00     0.075 A 
BRANCH  23  24
HETATM   24  C25 UNL     1      21.652  26.659  18.218  1.00  0.00     0.255 C 
HETATM   25  O3  UNL     1      22.660  25.962  18.442  1.00  0.00    -0.268 OA
HETATM   26  N9  UNL     1      20.985  27.285  19.286  1.00  0.00    -0.361 N 
HETATM   27  C26 UNL     1      21.356  27.203  20.681  1.00  0.00     0.149 C 
ATOM     28  H9  UNL     1      20.166  27.848  19.056  1.00  0.00     0.162 HD
ENDBRANCH  23  24
ENDBRANCH  15  17
ENDBRANCH   8   9
ENDBRANCH   7   8
BRANCH   1  29
HETATM   29  C6  UNL     1      15.488  21.611  15.602  1.00  0.00     0.078 C 
BRANCH  29  30
HETATM   30  C5  UNL     1      14.555  21.527  14.434  1.00  0.00     0.007 C 
BRANCH  30  31
HETATM   31  C4  UNL     1      13.279  22.255  14.729  1.00  0.00     0.000 C 
BRANCH  31  32
HETATM   32  C3  UNL     1      12.039  21.406  14.577  1.00  0.00    -0.000 C 
BRANCH  32  33
HETATM   33  C2  UNL     1      12.363  20.007  14.103  1.00  0.00    -0.005 C 
HETATM   34  C1  UNL     1      11.721  19.629  12.812  1.00  0.00     0.005 C 
ENDBRANCH  32  33
ENDBRANCH  31  32
ENDBRANCH  30  31
ENDBRANCH  29  30
ENDBRANCH   1  29
BRANCH   4  35
HETATM   35  C9  UNL     1      12.850  19.005  18.947  1.00  0.00     0.035 A 
HETATM   36  C10 UNL     1      11.740  18.396  18.430  1.00  0.00     0.066 A 
HETATM   37  C11 UNL     1      11.374  17.383  19.333  1.00  0.00     0.108 A 
HETATM   38  N3  UNL     1      12.251  17.412  20.337  1.00  0.00    -0.345 N 
HETATM   39  C14 UNL     1      13.146  18.381  20.125  1.00  0.00     0.021 A 
ATOM     40  H3  UNL     1      12.240  16.790  21.145  1.00  0.00     0.167 HD
HETATM   41  C15 UNL     1      14.269  18.725  21.015  1.00  0.00     0.069 C 
BRANCH  37  42
HETATM   42  N2  UNL     1      10.248  16.513  19.130  1.00  0.00    -0.313 N 
HETATM   43  C12 UNL     1      10.285  15.506  18.170  1.00  0.00     0.219 C 
HETATM   44  C13 UNL     1       9.064  14.628  18.000  1.00  0.00     0.117 C 
HETATM   45  O1  UNL     1      11.230  15.256  17.434  1.00  0.00    -0.274 OA
ATOM     46  H2  UNL     1       9.409  16.636  19.697  1.00  0.00     0.170 HD
ENDBRANCH  37  42
ENDBRANCH   4  35
TORSDOF 11
ENDMDL
MODEL 5
REMARK VINA RESULT: -9.744513550      1.384      1.623
REMARK  11 active torsions:
REMARK  status: ('A' for Active; 'I' for Inactive)
REMARK    1  A    between atoms: C2_2  and  C3_3 
REMARK    2  A    between atoms: C3_3  and  C4_4 
REMARK    3  A    between atoms: C4_4  and  C5_5 
REMARK    4  A    between atoms: C5_5  and  C6_6 
REMARK    5  A    between atoms: C6_6  and  C7_7 
REMARK    6  A    between atoms: C8_10  and  C9_11 
REMARK    7  A    between atoms: C11_13  and  N2_14 
REMARK       I    between atoms: N2_14  and  C12_16 
REMARK    8  A    between atoms: N5_25  and  C16_26 
REMARK    9  A    between atoms: C16_26  and  C17_27 
REMARK       I    between atoms: C17_27  and  N6_29 
REMARK   10  A    between atoms: N7_32  and  C20_33 
REMARK   11  A    between atoms: C24_39  and  C25_40 
REMARK       I    between atoms: C25_40  and  N9_42 
ROOT
HETATM    1  C7  UNL     1      19.518  23.867  18.522  1.00  0.00     0.100 A 
HETATM    2  N1  UNL     1      20.637  24.462  18.075  1.00  0.00    -0.329 N 
ATOM      3  H1  UNL     1      21.583  24.109  18.219  1.00  0.00     0.168 HD
HETATM    4  C8  UNL     1      20.329  25.596  17.406  1.00  0.00     0.134 A 
HETATM    5  N4  UNL     1      19.000  25.680  17.452  1.00  0.00    -0.281 N 
ATOM      6  H4  UNL     1      18.444  26.427  17.036  1.00  0.00     0.189 HD
HETATM    7  N5  UNL     1      18.499  24.629  18.131  1.00  0.00    -0.270 N 
ENDROOT
BRANCH   7   8
HETATM    8  C16 UNL     1      17.107  24.414  18.353  1.00  0.00     0.253 C 
BRANCH   8   9
HETATM    9  C17 UNL     1      16.406  24.015  17.092  1.00  0.00     0.239 C 
HETATM   10  O2  UNL     1      16.684  24.563  15.970  1.00  0.00    -0.271 OA
HETATM   11  N6  UNL     1      15.406  23.018  17.080  1.00  0.00    -0.348 N 
HETATM   12  C18 UNL     1      15.069  22.370  18.344  1.00  0.00     0.145 C 
HETATM   13  C28 UNL     1      14.712  22.615  15.875  1.00  0.00     0.145 C 
HETATM   14  C19 UNL     1      15.281  20.879  18.139  1.00  0.00     0.144 C 
HETATM   15  N7  UNL     1      14.223  20.558  17.084  1.00  0.00    -0.363 N 
HETATM   16  C27 UNL     1      14.585  21.086  15.829  1.00  0.00     0.144 C 
BRANCH  15  17
HETATM   17  C20 UNL     1      13.157  19.807  17.573  1.00  0.00     0.119 A 
HETATM   18  N8  UNL     1      13.276  19.315  18.868  1.00  0.00    -0.352 N 
HETATM   19  C21 UNL     1      12.315  18.621  19.476  1.00  0.00     0.089 A 
ATOM     20  H8  UNL     1      14.141  19.494  19.377  1.00  0.00     0.166 HD
HETATM   21  C22 UNL     1      11.119  18.337  18.856  1.00  0.00     0.018 A 
HETATM   22  C23 UNL     1      10.960  18.798  17.585  1.00  0.00     0.022 A 
HETATM   23  C24 UNL     1      11.999  19.540  16.947  1.00  0.00     0.075 A 
BRANCH  23  24
HETATM   24  C25 UNL     1      11.723  19.926  15.582  1.00  0.00     0.255 C 
HETATM   25  O3  UNL     1      11.153  21.010  15.354  1.00  0.00    -0.268 OA
HETATM   26  N9  UNL     1      12.078  19.085  14.512  1.00  0.00    -0.361 N 
HETATM   27  C26 UNL     1      11.840  19.352  13.111  1.00  0.00     0.149 C 
ATOM     28  H9  UNL     1      12.545  18.209  14.745  1.00  0.00     0.162 HD
ENDBRANCH  23  24
ENDBRANCH  15  17
ENDBRANCH   8   9
ENDBRANCH   7   8
BRANCH   1  29
HETATM   29  C6  UNL     1      19.514  22.604  19.315  1.00  0.00     0.078 C 
BRANCH  29  30
HETATM   30  C5  UNL     1      19.478  22.880  20.785  1.00  0.00     0.007 C 
BRANCH  30  31
HETATM   31  C4  UNL     1      20.798  22.550  21.414  1.00  0.00     0.000 C 
BRANCH  31  32
HETATM   32  C3  UNL     1      21.764  23.710  21.459  1.00  0.00    -0.000 C 
BRANCH  32  33
HETATM   33  C2  UNL     1      21.076  25.010  21.808  1.00  0.00    -0.005 C 
HETATM   34  C1  UNL     1      21.588  26.198  21.067  1.00  0.00     0.005 C 
ENDBRANCH  32  33
ENDBRANCH  31  32
ENDBRANCH  30  31
ENDBRANCH  29  30
ENDBRANCH   1  29
BRANCH   4  35
HETATM   35  C9  UNL     1      21.325  26.507  16.780  1.00  0.00     0.035 A 
HETATM   36  C10 UNL     1      22.348  27.168  17.402  1.00  0.00     0.066 A 
HETATM   37  C11 UNL     1      23.022  27.900  16.409  1.00  0.00     0.108 A 
HETATM   38  N3  UNL     1      22.402  27.663  15.253  1.00  0.00    -0.345 N 
HETATM   39  C14 UNL     1      21.379  26.828  15.455  1.00  0.00     0.021 A 
ATOM     40  H3  UNL     1      22.669  28.059  14.352  1.00  0.00     0.167 HD
HETATM   41  C15 UNL     1      20.453  26.336  14.418  1.00  0.00     0.069 C 
BRANCH  37  42
HETATM   42  N2  UNL     1      24.169  28.724  16.678  1.00  0.00    -0.313 N 
HETATM   43  C12 UNL     1      25.438  28.348  16.247  1.00  0.00     0.219 C 
HETATM   44  C13 UNL     1      26.606  29.256  16.567  1.00  0.00     0.117 C 
HETATM   45  O1  UNL     1      25.708  27.332  15.620  1.00  0.00    -0.274 OA
ATOM     46  H2  UNL     1      24.051  29.596  17.193  1.00  0.00     0.170 HD
ENDBRANCH  37  42
ENDBRANCH   4  35
TORSDOF 11
ENDMDL
