MODEL 1
REMARK VINA RESULT: -7.404982369      0.000      0.000
REMARK  14 active torsions:
REMARK  status: ('A' for Active; 'I' for Inactive)
REMARK    1  A    between atoms: C2_2  and  C3_3 
REMARK    2  A    between atoms: C3_3  and  C4_4 
REMARK    3  A    between atoms: C4_4  and  N1_5 
REMARK    4  A    between atoms: C6_8  and  N3_9 
REMARK    5  A    between atoms: N3_9  and  C7_10 
REMARK       I    between atoms: N3_9  and  C10_14 
REMARK    6  A    between atoms: C7_10  and  C8_11 
REMARK    7  A    between atoms: C8_11  and  O1_12 
REMARK    8  A    between atoms: C10_14  and  C11_16 
REMARK    9  A    between atoms: C17_22  and  N4_23 
REMARK       I    between atoms: N4_23  and  C18_25 
REMARK   10  A    between atoms: C18_25  and  C19_27 
REMARK   11  A    between atoms: C19_27  and  N5_28 
REMARK   12  A    between atoms: C20_32  and  C21_33 
REMARK   13  A    between atoms: C22_34  and  C23_35 
REMARK   14  A    between atoms: N6_40  and  C27_41 
ROOT
HETATM    1  C11 UNL     1      20.099  23.377  19.561  1.00  0.00     0.059 A 
HETATM    2  C12 UNL     1      19.689  22.568  20.611  1.00  0.00    -0.044 A 
HETATM    3  C13 UNL     1      20.601  22.321  21.732  1.00  0.00     0.049 C 
HETATM    4  C14 UNL     1      18.423  22.004  20.668  1.00  0.00     0.017 A 
HETATM    5  C15 UNL     1      17.517  22.229  19.679  1.00  0.00    -0.033 A 
HETATM    6  C16 UNL     1      16.137  21.627  19.717  1.00  0.00     0.050 C 
HETATM    7  C17 UNL     1      17.882  23.025  18.623  1.00  0.00     0.060 A 
HETATM    8  C20 UNL     1      19.140  23.586  18.563  1.00  0.00     0.061 A 
ENDROOT
BRANCH   1   9
HETATM    9  C10 UNL     1      21.419  23.951  19.464  1.00  0.00     0.260 C 
HETATM   10  N3  UNL     1      21.886  25.180  19.929  1.00  0.00    -0.304 N 
HETATM   11  O2  UNL     1      22.296  23.223  18.862  1.00  0.00    -0.267 OA
BRANCH  10  12
HETATM   12  C6  UNL     1      23.221  25.650  19.693  1.00  0.00     0.148 A 
HETATM   13  C5  UNL     1      23.532  26.450  18.620  1.00  0.00     0.155 A 
HETATM   14  N1  UNL     1      24.807  26.899  18.392  1.00  0.00    -0.285 N 
HETATM   15  N2  UNL     1      22.489  26.806  17.743  1.00  0.00    -0.080 NA
HETATM   16  C29 UNL     1      25.744  26.515  19.272  1.00  0.00     0.333 A 
HETATM   17  N6  UNL     1      25.467  25.729  20.338  1.00  0.00    -0.265 N 
HETATM   18  O5  UNL     1      26.929  26.895  19.105  1.00  0.00    -0.246 OA
HETATM   19  C26 UNL     1      24.210  25.290  20.558  1.00  0.00     0.282 A 
HETATM   20  O4  UNL     1      23.940  24.557  21.544  1.00  0.00    -0.265 OA
BRANCH  14  21
HETATM   21  C4  UNL     1      25.102  27.666  17.232  1.00  0.00     0.135 C 
BRANCH  21  22
HETATM   22  C3  UNL     1      25.391  26.906  16.013  1.00  0.00     0.020 C 
BRANCH  22  23
HETATM   23  C2  UNL     1      26.674  26.939  15.318  1.00  0.00    -0.003 C 
HETATM   24  C1  UNL     1      27.759  25.989  15.708  1.00  0.00     0.005 C 
ENDBRANCH  22  23
ENDBRANCH  21  22
ENDBRANCH  14  21
BRANCH  17  25
HETATM   25  C27 UNL     1      26.564  25.378  21.222  1.00  0.00     0.133 C 
HETATM   26  C28 UNL     1      26.555  26.376  22.362  1.00  0.00     0.027 C 
ENDBRANCH  17  25
ENDBRANCH  10  12
BRANCH  10  27
HETATM   27  C7  UNL     1      21.022  26.032  20.702  1.00  0.00     0.159 C 
BRANCH  27  28
HETATM   28  C8  UNL     1      21.517  27.397  20.997  1.00  0.00     0.187 C 
BRANCH  28  29
HETATM   29  O1  UNL     1      21.312  27.719  22.328  1.00  0.00    -0.394 OA
HETATM   30  C9  UNL     1      21.967  26.906  23.226  1.00  0.00     0.201 C 
ENDBRANCH  28  29
ENDBRANCH  27  28
ENDBRANCH  10  27
ENDBRANCH   1   9
BRANCH   8  31
HETATM   31  C21 UNL     1      19.425  24.412  17.437  1.00  0.00    -0.063 C 
HETATM   32  C22 UNL     1      19.680  25.095  16.472  1.00  0.00    -0.097 C 
BRANCH  32  33
HETATM   33  C23 UNL     1      20.006  25.911  15.281  1.00  0.00     0.057 C 
HETATM   34  C24 UNL     1      18.835  25.961  14.327  1.00  0.00     0.023 C 
HETATM   35  C25 UNL     1      21.192  25.246  14.616  1.00  0.00     0.023 C 
ENDBRANCH  32  33
ENDBRANCH   8  31
BRANCH   7  36
HETATM   36  N4  UNL     1      16.911  23.251  17.588  1.00  0.00    -0.324 N 
HETATM   37  C18 UNL     1      16.853  22.358  16.500  1.00  0.00     0.247 C 
HETATM   38  O3  UNL     1      17.635  21.378  16.428  1.00  0.00    -0.271 OA
ATOM     39  H4  UNL     1      16.273  24.045  17.641  1.00  0.00     0.169 HD
BRANCH  37  40
HETATM   40  C19 UNL     1      15.862  22.554  15.406  1.00  0.00     0.332 C 
BRANCH  40  41
HETATM   41  N5  UNL     1      14.738  23.315  15.869  1.00  0.00    -0.071 N 
ATOM     42  H53 UNL     1      14.856  23.611  16.838  1.00  0.00     0.274 HD
ATOM     43  H52 UNL     1      14.697  24.234  15.430  1.00  0.00     0.274 HD
ATOM     44  H51 UNL     1      13.870  22.795  15.737  1.00  0.00     0.274 HD
ENDBRANCH  40  41
ENDBRANCH  37  40
ENDBRANCH   7  36
TORSDOF 14
ENDMDL
MODEL 2
REMARK VINA RESULT: -7.286540887      1.056      2.497
REMARK  14 active torsions:
REMARK  status: ('A' for Active; 'I' for Inactive)
REMARK    1  A    between atoms: C2_2  and  C3_3 
REMARK    2  A    between atoms: C3_3  and  C4_4 
REMARK    3  A    between atoms: C4_4  and  N1_5 
REMARK    4  A    between atoms: C6_8  and  N3_9 
REMARK    5  A    between atoms: N3_9  and  C7_10 
REMARK       I    between atoms: N3_9  and  C10_14 
REMARK    6  A    between atoms: C7_10  and  C8_11 
REMARK    7  A    between atoms: C8_11  and  O1_12 
REMARK    8  A    between atoms: C10_14  and  C11_16 
REMARK    9  A    between atoms: C17_22  and  N4_23 
REMARK       I    between atoms: N4_23  and  C18_25 
REMARK   10  A    between atoms: C18_25  and  C19_27 
REMARK   11  A    between atoms: C19_27  and  N5_28 
REMARK   12  A    between atoms: C20_32  and  C21_33 
REMARK   13  A    between atoms: C22_34  and  C23_35 
REMARK   14  A    between atoms: N6_40  and  C27_41 
ROOT
HETATM    1  C11 UNL     1      19.981  23.397  19.504  1.00  0.00     0.059 A 
HETATM    2  C12 UNL     1      19.563  22.617  20.571  1.00  0.00    -0.044 A 
HETATM    3  C13 UNL     1      20.479  22.370  21.689  1.00  0.00     0.049 C 
HETATM    4  C14 UNL     1      18.285  22.082  20.650  1.00  0.00     0.017 A 
HETATM    5  C15 UNL     1      17.375  22.308  19.665  1.00  0.00    -0.033 A 
HETATM    6  C16 UNL     1      15.984  21.738  19.726  1.00  0.00     0.050 C 
HETATM    7  C17 UNL     1      17.748  23.077  18.592  1.00  0.00     0.060 A 
HETATM    8  C20 UNL     1      19.018  23.609  18.510  1.00  0.00     0.061 A 
ENDROOT
BRANCH   1   9
HETATM    9  C10 UNL     1      21.313  23.940  19.384  1.00  0.00     0.260 C 
HETATM   10  N3  UNL     1      21.805  25.176  19.803  1.00  0.00    -0.304 N 
HETATM   11  O2  UNL     1      22.173  23.172  18.810  1.00  0.00    -0.267 OA
BRANCH  10  12
HETATM   12  C6  UNL     1      23.148  25.609  19.549  1.00  0.00     0.148 A 
HETATM   13  C5  UNL     1      24.198  25.233  20.352  1.00  0.00     0.155 A 
HETATM   14  N1  UNL     1      25.483  25.646  20.112  1.00  0.00    -0.285 N 
HETATM   15  N2  UNL     1      23.918  24.396  21.450  1.00  0.00    -0.080 NA
HETATM   16  C29 UNL     1      25.668  26.442  19.048  1.00  0.00     0.333 A 
HETATM   17  N6  UNL     1      24.654  26.827  18.239  1.00  0.00    -0.265 N 
HETATM   18  O5  UNL     1      26.826  26.852  18.787  1.00  0.00    -0.246 OA
HETATM   19  C26 UNL     1      23.391  26.418  18.480  1.00  0.00     0.282 A 
HETATM   20  O4  UNL     1      22.439  26.770  17.736  1.00  0.00    -0.265 OA
BRANCH  14  21
HETATM   21  C4  UNL     1      26.531  25.294  21.006  1.00  0.00     0.135 C 
BRANCH  21  22
HETATM   22  C3  UNL     1      27.176  24.000  20.764  1.00  0.00     0.020 C 
BRANCH  22  23
HETATM   23  C2  UNL     1      27.233  23.350  19.459  1.00  0.00    -0.003 C 
HETATM   24  C1  UNL     1      26.249  22.281  19.114  1.00  0.00     0.005 C 
ENDBRANCH  22  23
ENDBRANCH  21  22
ENDBRANCH  14  21
BRANCH  17  25
HETATM   25  C27 UNL     1      24.976  27.691  17.117  1.00  0.00     0.133 C 
HETATM   26  C28 UNL     1      25.077  26.810  15.889  1.00  0.00     0.027 C 
ENDBRANCH  17  25
ENDBRANCH  10  12
BRANCH  10  27
HETATM   27  C7  UNL     1      20.959  26.074  20.543  1.00  0.00     0.159 C 
BRANCH  27  28
HETATM   28  C8  UNL     1      21.553  27.368  20.953  1.00  0.00     0.187 C 
BRANCH  28  29
HETATM   29  O1  UNL     1      21.296  27.628  22.288  1.00  0.00    -0.394 OA
HETATM   30  C9  UNL     1      22.038  26.879  23.174  1.00  0.00     0.201 C 
ENDBRANCH  28  29
ENDBRANCH  27  28
ENDBRANCH  10  27
ENDBRANCH   1   9
BRANCH   8  31
HETATM   31  C21 UNL     1      19.311  24.408  17.367  1.00  0.00    -0.063 C 
HETATM   32  C22 UNL     1      19.583  25.086  16.403  1.00  0.00    -0.097 C 
BRANCH  32  33
HETATM   33  C23 UNL     1      19.941  25.918  15.232  1.00  0.00     0.057 C 
HETATM   34  C24 UNL     1      18.816  25.939  14.224  1.00  0.00     0.023 C 
HETATM   35  C25 UNL     1      21.177  25.291  14.622  1.00  0.00     0.023 C 
ENDBRANCH  32  33
ENDBRANCH   8  31
BRANCH   7  36
HETATM   36  N4  UNL     1      16.773  23.305  17.561  1.00  0.00    -0.324 N 
HETATM   37  C18 UNL     1      16.722  22.423  16.463  1.00  0.00     0.247 C 
HETATM   38  O3  UNL     1      17.514  21.452  16.378  1.00  0.00    -0.271 OA
ATOM     39  H4  UNL     1      16.128  24.092  17.623  1.00  0.00     0.169 HD
BRANCH  37  40
HETATM   40  C19 UNL     1      15.727  22.623  15.373  1.00  0.00     0.332 C 
BRANCH  40  41
HETATM   41  N5  UNL     1      14.583  23.341  15.854  1.00  0.00    -0.071 N 
ATOM     42  H53 UNL     1      13.745  22.760  15.852  1.00  0.00     0.274 HD
ATOM     43  H52 UNL     1      14.644  23.520  16.856  1.00  0.00     0.274 HD
ATOM     44  H51 UNL     1      14.447  24.202  15.324  1.00  0.00     0.274 HD
ENDBRANCH  40  41
ENDBRANCH  37  40
ENDBRANCH   7  36
TORSDOF 14
ENDMDL
MODEL 3
REMARK VINA RESULT: -7.131073520      2.604      8.927
REMARK  14 active torsions:
REMARK  status: ('A' for Active; 'I' for Inactive)
REMARK    1  A    between atoms: C2_2  and  C3_3 
REMARK    2  A    between atoms: C3_3  and  C4_4 
REMARK    3  A    between atoms: C4_4  and  N1_5 
REMARK    4  A    between atoms: C6_8  and  N3_9 
REMARK    5  A    between atoms: N3_9  and  C7_10 
REMARK       I    between atoms: N3_9  and  C10_14 
REMARK    6  A    between atoms: C7_10  and  C8_11 
REMARK    7  A    between atoms: C8_11  and  O1_12 
REMARK    8  A    between atoms: C10_14  and  C11_16 
REMARK    9  A    between atoms: C17_22  and  N4_23 
REMARK       I    between atoms: N4_23  and  C18_25 
REMARK   10  A    between atoms: C18_25  and  C19_27 
REMARK   11  A    between atoms: C19_27  and  N5_28 
REMARK   12  A    between atoms: C20_32  and  C21_33 
REMARK   13  A    between atoms: C22_34  and  C23_35 
REMARK   14  A    between atoms: N6_40  and  C27_41 
ROOT
HETATM    1  C11 UNL     1      18.889  24.342  19.495  1.00  0.00     0.059 A 
HETATM    2  C12 UNL     1      19.089  24.410  20.865  1.00  0.00    -0.044 A 
HETATM    3  C13 UNL     1      18.070  23.874  21.773  1.00  0.00     0.049 C 
HETATM    4  C14 UNL     1      20.244  24.936  21.426  1.00  0.00     0.017 A 
HETATM    5  C15 UNL     1      21.244  25.413  20.638  1.00  0.00    -0.033 A 
HETATM    6  C16 UNL     1      22.506  25.990  21.222  1.00  0.00     0.050 C 
HETATM    7  C17 UNL     1      21.087  25.362  19.276  1.00  0.00     0.060 A 
HETATM    8  C20 UNL     1      19.940  24.840  18.716  1.00  0.00     0.061 A 
ENDROOT
BRANCH   1   9
HETATM    9  C10 UNL     1      17.686  23.826  18.888  1.00  0.00     0.260 C 
HETATM   10  N3  UNL     1      17.420  22.547  18.399  1.00  0.00    -0.304 N 
HETATM   11  O2  UNL     1      16.715  24.667  18.784  1.00  0.00    -0.267 OA
BRANCH  10  12
HETATM   12  C6  UNL     1      16.188  22.199  17.752  1.00  0.00     0.148 A 
HETATM   13  C5  UNL     1      15.173  21.553  18.416  1.00  0.00     0.155 A 
HETATM   14  N1  UNL     1      13.995  21.218  17.800  1.00  0.00    -0.285 N 
HETATM   15  N2  UNL     1      15.376  21.236  19.774  1.00  0.00    -0.080 NA
HETATM   16  C29 UNL     1      13.881  21.553  16.506  1.00  0.00     0.333 A 
HETATM   17  N6  UNL     1      14.861  22.190  15.826  1.00  0.00    -0.265 N 
HETATM   18  O5  UNL     1      12.823  21.264  15.893  1.00  0.00    -0.246 OA
HETATM   19  C26 UNL     1      16.019  22.517  16.438  1.00  0.00     0.282 A 
HETATM   20  O4  UNL     1      16.939  23.109  15.817  1.00  0.00    -0.265 OA
BRANCH  14  21
HETATM   21  C4  UNL     1      12.999  20.488  18.502  1.00  0.00     0.135 C 
BRANCH  21  22
HETATM   22  C3  UNL     1      12.942  19.048  18.228  1.00  0.00     0.020 C 
BRANCH  22  23
HETATM   23  C2  UNL     1      13.662  18.044  19.004  1.00  0.00    -0.003 C 
HETATM   24  C1  UNL     1      15.109  17.788  18.734  1.00  0.00     0.005 C 
ENDBRANCH  22  23
ENDBRANCH  21  22
ENDBRANCH  14  21
BRANCH  17  25
HETATM   25  C27 UNL     1      14.623  22.501  14.427  1.00  0.00     0.133 C 
HETATM   26  C28 UNL     1      15.006  21.274  13.626  1.00  0.00     0.027 C 
ENDBRANCH  17  25
ENDBRANCH  10  12
BRANCH  10  27
HETATM   27  C7  UNL     1      18.394  21.501  18.552  1.00  0.00     0.159 C 
BRANCH  27  28
HETATM   28  C8  UNL     1      18.630  21.002  19.927  1.00  0.00     0.187 C 
BRANCH  28  29
HETATM   29  O1  UNL     1      19.967  21.113  20.270  1.00  0.00    -0.394 OA
HETATM   30  C9  UNL     1      20.207  21.259  21.618  1.00  0.00     0.201 C 
ENDBRANCH  28  29
ENDBRANCH  27  28
ENDBRANCH  10  27
ENDBRANCH   1   9
BRANCH   8  31
HETATM   31  C21 UNL     1      19.871  24.813  17.292  1.00  0.00    -0.063 C 
HETATM   32  C22 UNL     1      19.819  24.813  16.084  1.00  0.00    -0.097 C 
BRANCH  32  33
HETATM   33  C23 UNL     1      19.760  24.839  14.605  1.00  0.00     0.057 C 
HETATM   34  C24 UNL     1      21.102  25.214  14.020  1.00  0.00     0.023 C 
HETATM   35  C25 UNL     1      18.721  25.875  14.235  1.00  0.00     0.023 C 
ENDBRANCH  32  33
ENDBRANCH   8  31
BRANCH   7  36
HETATM   36  N4  UNL     1      22.155  25.869  18.459  1.00  0.00    -0.324 N 
HETATM   37  C18 UNL     1      22.043  27.166  17.918  1.00  0.00     0.247 C 
HETATM   38  O3  UNL     1      21.029  27.872  18.140  1.00  0.00    -0.271 OA
ATOM     39  H4  UNL     1      22.982  25.301  18.275  1.00  0.00     0.169 HD
BRANCH  37  40
HETATM   40  C19 UNL     1      23.127  27.731  17.067  1.00  0.00     0.332 C 
BRANCH  40  41
HETATM   41  N5  UNL     1      22.595  28.235  15.835  1.00  0.00    -0.071 N 
ATOM     42  H53 UNL     1      22.027  27.537  15.356  1.00  0.00     0.274 HD
ATOM     43  H52 UNL     1      21.874  28.938  15.995  1.00  0.00     0.274 HD
ATOM     44  H51 UNL     1      23.342  28.590  15.237  1.00  0.00     0.274 HD
ENDBRANCH  40  41
ENDBRANCH  37  40
ENDBRANCH   7  36
TORSDOF 14
ENDMDL
MODEL 4
REMARK VINA RESULT: -7.090331060      2.669      9.310
REMARK  14 active torsions:
REMARK  status: ('A' for Active; 'I' for Inactive)
REMARK    1  A    between atoms: C2_2  and  C3_3 
REMARK    2  A    between atoms: C3_3  and  C4_4 
REMARK    3  A    between atoms: C4_4  and  N1_5 
REMARK    4  A    between atoms: C6_8  and  N3_9 
REMARK    5  A    between atoms: N3_9  and  C7_10 
REMARK       I    between atoms: N3_9  and  C10_14 
REMARK    6  A    between atoms: C7_10  and  C8_11 
REMARK    7  A    between atoms: C8_11  and  O1_12 
REMARK    8  A    between atoms: C10_14  and  C11_16 
REMARK    9  A    between atoms: C17_22  and  N4_23 
REMARK       I    between atoms: N4_23  and  C18_25 
REMARK   10  A    between atoms: C18_25  and  C19_27 
REMARK   11  A    between atoms: C19_27  and  N5_28 
REMARK   12  A    between atoms: C20_32  and  C21_33 
REMARK   13  A    between atoms: C22_34  and  C23_35 
REMARK   14  A    between atoms: N6_40  and  C27_41 
ROOT
HETATM    1  C11 UNL     1      19.336  22.265  19.033  1.00  0.00     0.059 A 
HETATM    2  C12 UNL     1      19.770  21.763  20.250  1.00  0.00    -0.044 A 
HETATM    3  C13 UNL     1      19.038  20.659  20.879  1.00  0.00     0.049 C 
HETATM    4  C14 UNL     1      20.903  22.239  20.894  1.00  0.00     0.017 A 
HETATM    5  C15 UNL     1      21.648  23.234  20.342  1.00  0.00    -0.033 A 
HETATM    6  C16 UNL     1      22.881  23.768  21.021  1.00  0.00     0.050 C 
HETATM    7  C17 UNL     1      21.255  23.757  19.136  1.00  0.00     0.060 A 
HETATM    8  C20 UNL     1      20.129  23.287  18.495  1.00  0.00     0.061 A 
ENDROOT
BRANCH   1   9
HETATM    9  C10 UNL     1      18.145  21.808  18.358  1.00  0.00     0.260 C 
HETATM   10  N3  UNL     1      16.809  22.116  18.617  1.00  0.00    -0.304 N 
HETATM   11  O2  UNL     1      18.343  21.001  17.374  1.00  0.00    -0.267 OA
BRANCH  10  12
HETATM   12  C6  UNL     1      15.718  21.523  17.899  1.00  0.00     0.148 A 
HETATM   13  C5  UNL     1      15.019  20.449  18.394  1.00  0.00     0.155 A 
HETATM   14  N1  UNL     1      13.976  19.879  17.710  1.00  0.00    -0.285 N 
HETATM   15  N2  UNL     1      15.406  19.935  19.647  1.00  0.00    -0.080 NA
HETATM   16  C29 UNL     1      13.670  20.425  16.523  1.00  0.00     0.333 A 
HETATM   17  N6  UNL     1      14.339  21.483  16.010  1.00  0.00    -0.265 N 
HETATM   18  O5  UNL     1      12.726  19.937  15.854  1.00  0.00    -0.246 OA
HETATM   19  C26 UNL     1      15.365  22.039  16.688  1.00  0.00     0.282 A 
HETATM   20  O4  UNL     1      15.996  23.023  16.223  1.00  0.00    -0.265 OA
BRANCH  14  21
HETATM   21  C4  UNL     1      13.324  18.725  18.223  1.00  0.00     0.135 C 
BRANCH  21  22
HETATM   22  C3  UNL     1      12.181  18.970  19.107  1.00  0.00     0.020 C 
BRANCH  22  23
HETATM   23  C2  UNL     1      12.130  18.556  20.505  1.00  0.00    -0.003 C 
HETATM   24  C1  UNL     1      11.620  17.199  20.863  1.00  0.00     0.005 C 
ENDBRANCH  22  23
ENDBRANCH  21  22
ENDBRANCH  14  21
BRANCH  17  25
HETATM   25  C27 UNL     1      13.917  21.987  14.716  1.00  0.00     0.133 C 
HETATM   26  C28 UNL     1      14.830  21.369  13.677  1.00  0.00     0.027 C 
ENDBRANCH  17  25
ENDBRANCH  10  12
BRANCH  10  27
HETATM   27  C7  UNL     1      16.476  23.083  19.627  1.00  0.00     0.159 C 
BRANCH  27  28
HETATM   28  C8  UNL     1      16.720  24.507  19.299  1.00  0.00     0.187 C 
BRANCH  28  29
HETATM   29  O1  UNL     1      17.804  24.998  20.007  1.00  0.00    -0.394 OA
HETATM   30  C9  UNL     1      17.938  24.493  21.281  1.00  0.00     0.201 C 
ENDBRANCH  28  29
ENDBRANCH  27  28
ENDBRANCH  10  27
ENDBRANCH   1   9
BRANCH   8  31
HETATM   31  C21 UNL     1      19.806  23.879  17.240  1.00  0.00    -0.063 C 
HETATM   32  C22 UNL     1      19.542  24.401  16.181  1.00  0.00    -0.097 C 
BRANCH  32  33
HETATM   33  C23 UNL     1      19.230  25.063  14.895  1.00  0.00     0.057 C 
HETATM   34  C24 UNL     1      20.278  26.097  14.553  1.00  0.00     0.023 C 
HETATM   35  C25 UNL     1      17.880  25.726  15.069  1.00  0.00     0.023 C 
ENDBRANCH  32  33
ENDBRANCH   8  31
BRANCH   7  36
HETATM   36  N4  UNL     1      22.056  24.807  18.570  1.00  0.00    -0.324 N 
HETATM   37  C18 UNL     1      21.785  26.142  18.931  1.00  0.00     0.247 C 
HETATM   38  O3  UNL     1      20.859  26.418  19.734  1.00  0.00    -0.271 OA
ATOM     39  H4  UNL     1      22.809  24.590  17.917  1.00  0.00     0.169 HD
BRANCH  37  40
HETATM   40  C19 UNL     1      22.590  27.261  18.367  1.00  0.00     0.332 C 
BRANCH  40  41
HETATM   41  N5  UNL     1      23.907  27.275  18.934  1.00  0.00    -0.071 N 
ATOM     42  H53 UNL     1      23.935  27.794  19.811  1.00  0.00     0.274 HD
ATOM     43  H52 UNL     1      24.176  26.357  19.288  1.00  0.00     0.274 HD
ATOM     44  H51 UNL     1      24.587  27.633  18.262  1.00  0.00     0.274 HD
ENDBRANCH  40  41
ENDBRANCH  37  40
ENDBRANCH   7  36
TORSDOF 14
ENDMDL
MODEL 5
REMARK VINA RESULT: -6.949905970      1.234      2.760
REMARK  14 active torsions:
REMARK  status: ('A' for Active; 'I' for Inactive)
REMARK    1  A    between atoms: C2_2  and  C3_3 
REMARK    2  A    between atoms: C3_3  and  C4_4 
REMARK    3  A    between atoms: C4_4  and  N1_5 
REMARK    4  A    between atoms: C6_8  and  N3_9 
REMARK    5  A    between atoms: N3_9  and  C7_10 
REMARK       I    between atoms: N3_9  and  C10_14 
REMARK    6  A    between atoms: C7_10  and  C8_11 
REMARK    7  A    between atoms: C8_11  and  O1_12 
REMARK    8  A    between atoms: C10_14  and  C11_16 
REMARK    9  A    between atoms: C17_22  and  N4_23 
REMARK       I    between atoms: N4_23  and  C18_25 
REMARK   10  A    between atoms: C18_25  and  C19_27 
REMARK   11  A    between atoms: C19_27  and  N5_28 
REMARK   12  A    between atoms: C20_32  and  C21_33 
REMARK   13  A    between atoms: C22_34  and  C23_35 
REMARK   14  A    between atoms: N6_40  and  C27_41 
ROOT
HETATM    1  C11 UNL     1      20.576  23.265  19.675  1.00  0.00     0.059 A 
HETATM    2  C12 UNL     1      20.193  22.485  20.756  1.00  0.00    -0.044 A 
HETATM    3  C13 UNL     1      21.066  22.399  21.931  1.00  0.00     0.049 C 
HETATM    4  C14 UNL     1      18.987  21.801  20.794  1.00  0.00     0.017 A 
HETATM    5  C15 UNL     1      18.115  21.873  19.752  1.00  0.00    -0.033 A 
HETATM    6  C16 UNL     1      16.801  21.139  19.768  1.00  0.00     0.050 C 
HETATM    7  C17 UNL     1      18.455  22.636  18.664  1.00  0.00     0.060 A 
HETATM    8  C20 UNL     1      19.654  23.316  18.623  1.00  0.00     0.061 A 
ENDROOT
BRANCH   1   9
HETATM    9  C10 UNL     1      21.838  23.961  19.600  1.00  0.00     0.260 C 
HETATM   10  N3  UNL     1      22.135  25.289  19.911  1.00  0.00    -0.304 N 
HETATM   11  O2  UNL     1      22.835  23.257  19.188  1.00  0.00    -0.267 OA
BRANCH  10  12
HETATM   12  C6  UNL     1      23.434  25.864  19.716  1.00  0.00     0.148 A 
HETATM   13  C5  UNL     1      24.433  25.742  20.652  1.00  0.00     0.155 A 
HETATM   14  N1  UNL     1      25.675  26.291  20.468  1.00  0.00    -0.285 N 
HETATM   15  N2  UNL     1      24.145  25.023  21.828  1.00  0.00    -0.080 NA
HETATM   16  C29 UNL     1      25.870  26.961  19.322  1.00  0.00     0.333 A 
HETATM   17  N6  UNL     1      24.907  27.097  18.382  1.00  0.00    -0.265 N 
HETATM   18  O5  UNL     1      26.990  27.489  19.108  1.00  0.00    -0.246 OA
HETATM   19  C26 UNL     1      23.686  26.554  18.568  1.00  0.00     0.282 A 
HETATM   20  O4  UNL     1      22.781  26.674  17.702  1.00  0.00    -0.265 OA
BRANCH  14  21
HETATM   21  C4  UNL     1      26.659  26.204  21.491  1.00  0.00     0.135 C 
BRANCH  21  22
HETATM   22  C3  UNL     1      27.680  25.166  21.316  1.00  0.00     0.020 C 
BRANCH  22  23
HETATM   23  C2  UNL     1      27.475  23.760  21.646  1.00  0.00    -0.003 C 
HETATM   24  C1  UNL     1      26.874  22.836  20.637  1.00  0.00     0.005 C 
ENDBRANCH  22  23
ENDBRANCH  21  22
ENDBRANCH  14  21
BRANCH  17  25
HETATM   25  C27 UNL     1      25.235  27.845  17.181  1.00  0.00     0.133 C 
HETATM   26  C28 UNL     1      25.575  26.835  16.105  1.00  0.00     0.027 C 
ENDBRANCH  17  25
ENDBRANCH  10  12
BRANCH  10  27
HETATM   27  C7  UNL     1      21.122  26.141  20.473  1.00  0.00     0.159 C 
BRANCH  27  28
HETATM   28  C8  UNL     1      21.552  27.485  20.924  1.00  0.00     0.187 C 
BRANCH  28  29
HETATM   29  O1  UNL     1      21.158  27.716  22.231  1.00  0.00    -0.394 OA
HETATM   30  C9  UNL     1      21.826  26.970  23.176  1.00  0.00     0.201 C 
ENDBRANCH  28  29
ENDBRANCH  27  28
ENDBRANCH  10  27
ENDBRANCH   1   9
BRANCH   8  31
HETATM   31  C21 UNL     1      19.915  24.096  17.460  1.00  0.00    -0.063 C 
HETATM   32  C22 UNL     1      20.116  24.771  16.476  1.00  0.00    -0.097 C 
BRANCH  32  33
HETATM   33  C23 UNL     1      20.339  25.608  15.277  1.00  0.00     0.057 C 
HETATM   34  C24 UNL     1      19.089  25.679  14.430  1.00  0.00     0.023 C 
HETATM   35  C25 UNL     1      21.461  24.954  14.499  1.00  0.00     0.023 C 
ENDBRANCH  32  33
ENDBRANCH   8  31
BRANCH   7  36
HETATM   36  N4  UNL     1      17.521  22.700  17.574  1.00  0.00    -0.324 N 
HETATM   37  C18 UNL     1      16.507  23.679  17.601  1.00  0.00     0.247 C 
HETATM   38  O3  UNL     1      16.414  24.485  18.559  1.00  0.00    -0.271 OA
ATOM     39  H4  UNL     1      17.590  22.048  16.793  1.00  0.00     0.169 HD
BRANCH  37  40
HETATM   40  C19 UNL     1      15.518  23.780  16.491  1.00  0.00     0.332 C 
BRANCH  40  41
HETATM   41  N5  UNL     1      14.206  23.422  16.945  1.00  0.00    -0.071 N 
ATOM     42  H53 UNL     1      14.221  23.071  17.902  1.00  0.00     0.274 HD
ATOM     43  H52 UNL     1      13.620  24.244  17.091  1.00  0.00     0.274 HD
ATOM     44  H51 UNL     1      13.771  22.757  16.305  1.00  0.00     0.274 HD
ENDBRANCH  40  41
ENDBRANCH  37  40
ENDBRANCH   7  36
TORSDOF 14
ENDMDL
