MODEL 1
REMARK VINA RESULT: -8.313731751      0.000      0.000
REMARK  14 active torsions:
REMARK  status: ('A' for Active; 'I' for Inactive)
REMARK    1  A    between atoms: C2_2  and  C3_3 
REMARK    2  A    between atoms: C3_3  and  N1_4 
REMARK    3  A    between atoms: N2_6  and  C5_8 
REMARK    4  A    between atoms: C11_15  and  N3_16 
REMARK    5  A    between atoms: N3_16  and  C12_18 
REMARK    6  A    between atoms: C12_18  and  O1_19 
REMARK    7  A    between atoms: C12_18  and  C13_21 
REMARK    8  A    between atoms: C15_23  and  C16_24 
REMARK       I    between atoms: C16_24  and  N4_26 
REMARK    9  A    between atoms: N4_26  and  C17_28 
REMARK   10  A    between atoms: C17_28  and  C18_29 
REMARK   11  A    between atoms: C17_28  and  C20_33 
REMARK   12  A    between atoms: C18_29  and  C19_30 
REMARK   13  A    between atoms: C22_37  and  O7_38 
REMARK   14  A    between atoms: C24_40  and  O8_41 
ROOT
HETATM    1  C13 UNL     1      19.313  24.249  19.923  1.00  0.00     0.052 A 
HETATM    2  C14 UNL     1      19.831  25.216  19.079  1.00  0.00     0.035 A 
HETATM    3  C15 UNL     1      21.159  25.551  18.963  1.00  0.00     0.035 A 
HETATM    4  C21 UNL     1      22.063  24.872  19.753  1.00  0.00     0.056 A 
HETATM    5  C22 UNL     1      21.613  23.896  20.615  1.00  0.00     0.103 A 
HETATM    6  C24 UNL     1      20.242  23.593  20.691  1.00  0.00     0.116 A 
ENDROOT
BRANCH   1   7
HETATM    7  C12 UNL     1      17.874  24.021  19.996  1.00  0.00     0.154 C 
BRANCH   7   8
HETATM    8  N3  UNL     1      16.966  23.808  19.028  1.00  0.00    -0.324 N 
ATOM      9  H3  UNL     1      16.287  24.567  18.974  1.00  0.00     0.169 HD
BRANCH   8  10
HETATM   10  C11 UNL     1      16.735  22.906  18.164  1.00  0.00     0.106 C 
HETATM   11  N1  UNL     1      15.602  21.980  18.292  1.00  0.00    -0.312 N 
HETATM   12  C4  UNL     1      14.895  21.825  17.085  1.00  0.00     0.145 C 
HETATM   13  N2  UNL     1      13.727  21.365  16.837  1.00  0.00    -0.367 N 
HETATM   14  S1  UNL     1      16.010  22.436  15.807  1.00  0.00    -0.077 SA
ATOM     15  H2  UNL     1      13.160  21.035  17.618  1.00  0.00     0.162 HD
HETATM   16  C8  UNL     1      17.479  22.542  16.936  1.00  0.00     0.067 C 
HETATM   17  C9  UNL     1      18.484  23.476  16.427  1.00  0.00     0.035 C 
HETATM   18  C10 UNL     1      17.980  21.103  17.008  1.00  0.00     0.035 C 
BRANCH  11  19
HETATM   19  C3  UNL     1      15.222  21.308  19.517  1.00  0.00     0.159 C 
BRANCH  19  20
HETATM   20  C2  UNL     1      15.685  19.893  19.474  1.00  0.00    -0.017 C 
HETATM   21  C1  UNL     1      14.978  18.966  20.087  1.00  0.00     0.008 C 
ENDBRANCH  19  20
ENDBRANCH  11  19
BRANCH  13  22
HETATM   22  C5  UNL     1      13.180  21.289  15.521  1.00  0.00     0.075 C 
HETATM   23  C6  UNL     1      11.952  20.416  15.561  1.00  0.00     0.032 C 
HETATM   24  C7  UNL     1      12.732  22.670  15.075  1.00  0.00     0.032 C 
ENDBRANCH  13  22
ENDBRANCH   8  10
ENDBRANCH   7   8
BRANCH   7  25
HETATM   25  O1  UNL     1      17.416  24.023  21.215  1.00  0.00    -0.345 OA
ATOM     26  H1  UNL     1      18.015  24.334  21.883  1.00  0.00     0.219 HD
ENDBRANCH   7  25
ENDBRANCH   1   7
BRANCH   6  27
HETATM   27  O8  UNL     1      19.899  22.606  21.569  1.00  0.00    -0.352 OA
HETATM   28  C25 UNL     1      19.672  21.303  21.019  1.00  0.00     0.210 C 
ENDBRANCH   6  27
BRANCH   3  29
HETATM   29  C16 UNL     1      21.601  26.595  18.030  1.00  0.00     0.252 C 
HETATM   30  O2  UNL     1      21.141  27.751  18.209  1.00  0.00    -0.268 OA
HETATM   31  N4  UNL     1      22.504  26.362  16.962  1.00  0.00    -0.342 N 
ATOM     32  H4  UNL     1      22.869  25.419  16.829  1.00  0.00     0.163 HD
BRANCH  31  33
HETATM   33  C17 UNL     1      22.928  27.398  16.055  1.00  0.00     0.195 C 
BRANCH  33  34
HETATM   34  C18 UNL     1      22.297  27.322  14.705  1.00  0.00     0.149 C 
BRANCH  34  35
HETATM   35  C19 UNL     1      20.830  27.466  14.697  1.00  0.00     0.175 C 
HETATM   36  O3  UNL     1      20.358  28.526  15.180  1.00  0.00    -0.648 OA
HETATM   37  O4  UNL     1      19.945  26.528  14.203  1.00  0.00    -0.648 OA
ENDBRANCH  34  35
ENDBRANCH  33  34
BRANCH  33  38
HETATM   38  C20 UNL     1      24.406  27.222  15.844  1.00  0.00     0.197 C 
HETATM   39  O5  UNL     1      24.922  26.092  15.730  1.00  0.00    -0.646 OA
HETATM   40  O6  UNL     1      25.252  28.325  15.769  1.00  0.00    -0.646 OA
ENDBRANCH  33  38
ENDBRANCH  31  33
ENDBRANCH   3  29
BRANCH   5  41
HETATM   41  O7  UNL     1      22.505  23.208  21.411  1.00  0.00    -0.353 OA
HETATM   42  C23 UNL     1      23.863  23.480  21.537  1.00  0.00     0.210 C 
ENDBRANCH   5  41
TORSDOF 14
ENDMDL
MODEL 2
REMARK VINA RESULT: -8.253587009      4.748     10.639
REMARK  14 active torsions:
REMARK  status: ('A' for Active; 'I' for Inactive)
REMARK    1  A    between atoms: C2_2  and  C3_3 
REMARK    2  A    between atoms: C3_3  and  N1_4 
REMARK    3  A    between atoms: N2_6  and  C5_8 
REMARK    4  A    between atoms: C11_15  and  N3_16 
REMARK    5  A    between atoms: N3_16  and  C12_18 
REMARK    6  A    between atoms: C12_18  and  O1_19 
REMARK    7  A    between atoms: C12_18  and  C13_21 
REMARK    8  A    between atoms: C15_23  and  C16_24 
REMARK       I    between atoms: C16_24  and  N4_26 
REMARK    9  A    between atoms: N4_26  and  C17_28 
REMARK   10  A    between atoms: C17_28  and  C18_29 
REMARK   11  A    between atoms: C17_28  and  C20_33 
REMARK   12  A    between atoms: C18_29  and  C19_30 
REMARK   13  A    between atoms: C22_37  and  O7_38 
REMARK   14  A    between atoms: C24_40  and  O8_41 
ROOT
HETATM    1  C13 UNL     1      14.302  22.115  17.653  1.00  0.00     0.052 A 
HETATM    2  C14 UNL     1      13.945  20.933  18.278  1.00  0.00     0.035 A 
HETATM    3  C15 UNL     1      13.452  19.812  17.654  1.00  0.00     0.035 A 
HETATM    4  C21 UNL     1      13.294  19.858  16.284  1.00  0.00     0.056 A 
HETATM    5  C22 UNL     1      13.632  21.006  15.600  1.00  0.00     0.103 A 
HETATM    6  C24 UNL     1      14.133  22.123  16.290  1.00  0.00     0.116 A 
ENDROOT
BRANCH   1   7
HETATM    7  C12 UNL     1      14.764  23.258  18.433  1.00  0.00     0.154 C 
BRANCH   7   8
HETATM    8  N3  UNL     1      15.945  23.500  19.025  1.00  0.00    -0.324 N 
ATOM      9  H3  UNL     1      15.834  24.028  19.890  1.00  0.00     0.169 HD
BRANCH   8  10
HETATM   10  C11 UNL     1      17.165  23.241  18.785  1.00  0.00     0.106 C 
HETATM   11  N1  UNL     1      18.117  24.286  18.384  1.00  0.00    -0.312 N 
HETATM   12  C4  UNL     1      19.338  24.198  19.079  1.00  0.00     0.145 C 
HETATM   13  N2  UNL     1      20.286  25.041  19.242  1.00  0.00    -0.367 N 
HETATM   14  S1  UNL     1      19.363  22.534  19.773  1.00  0.00    -0.077 SA
ATOM     15  H2  UNL     1      20.195  25.962  18.813  1.00  0.00     0.162 HD
HETATM   16  C8  UNL     1      17.893  21.950  18.802  1.00  0.00     0.067 C 
HETATM   17  C9  UNL     1      17.252  20.797  19.435  1.00  0.00     0.035 C 
HETATM   18  C10 UNL     1      18.473  21.634  17.427  1.00  0.00     0.035 C 
BRANCH  11  19
HETATM   19  C3  UNL     1      17.844  25.315  17.402  1.00  0.00     0.159 C 
BRANCH  19  20
HETATM   20  C2  UNL     1      18.787  25.176  16.258  1.00  0.00    -0.017 C 
HETATM   21  C1  UNL     1      18.515  25.784  15.122  1.00  0.00     0.008 C 
ENDBRANCH  19  20
ENDBRANCH  11  19
BRANCH  13  22
HETATM   22  C5  UNL     1      21.465  24.757  19.995  1.00  0.00     0.075 C 
HETATM   23  C6  UNL     1      22.631  25.450  19.340  1.00  0.00     0.032 C 
HETATM   24  C7  UNL     1      21.329  25.335  21.393  1.00  0.00     0.032 C 
ENDBRANCH  13  22
ENDBRANCH   8  10
ENDBRANCH   7   8
BRANCH   7  25
HETATM   25  O1  UNL     1      13.863  24.190  18.559  1.00  0.00    -0.345 OA
ATOM     26  H1  UNL     1      13.102  24.112  17.995  1.00  0.00     0.219 HD
ENDBRANCH   7  25
ENDBRANCH   1   7
BRANCH   6  27
HETATM   27  O8  UNL     1      14.445  23.207  15.522  1.00  0.00    -0.352 OA
HETATM   28  C25 UNL     1      15.820  23.361  15.152  1.00  0.00     0.210 C 
ENDBRANCH   6  27
BRANCH   3  29
HETATM   29  C16 UNL     1      13.107  18.605  18.417  1.00  0.00     0.252 C 
HETATM   30  O2  UNL     1      13.998  18.132  19.166  1.00  0.00    -0.268 OA
HETATM   31  N4  UNL     1      11.843  17.968  18.348  1.00  0.00    -0.342 N 
ATOM     32  H4  UNL     1      11.130  18.364  17.735  1.00  0.00     0.163 HD
BRANCH  31  33
HETATM   33  C17 UNL     1      11.521  16.784  19.104  1.00  0.00     0.195 C 
BRANCH  33  34
HETATM   34  C18 UNL     1      10.564  15.866  18.420  1.00  0.00     0.149 C 
BRANCH  34  35
HETATM   35  C19 UNL     1      10.631  15.884  16.948  1.00  0.00     0.175 C 
HETATM   36  O3  UNL     1      11.380  15.036  16.400  1.00  0.00    -0.648 OA
HETATM   37  O4  UNL     1       9.938  16.758  16.133  1.00  0.00    -0.648 OA
ENDBRANCH  34  35
ENDBRANCH  33  34
BRANCH  33  38
HETATM   38  C20 UNL     1      10.847  17.238  20.368  1.00  0.00     0.197 C 
HETATM   39  O5  UNL     1       9.990  16.537  20.943  1.00  0.00    -0.646 OA
HETATM   40  O6  UNL     1      11.161  18.467  20.942  1.00  0.00    -0.646 OA
ENDBRANCH  33  38
ENDBRANCH  31  33
ENDBRANCH   3  29
BRANCH   5  41
HETATM   41  O7  UNL     1      13.480  21.067  14.230  1.00  0.00    -0.353 OA
HETATM   42  C23 UNL     1      13.100  20.015  13.404  1.00  0.00     0.210 C 
ENDBRANCH   5  41
TORSDOF 14
ENDMDL
MODEL 3
REMARK VINA RESULT: -8.067956935      3.893      9.941
REMARK  14 active torsions:
REMARK  status: ('A' for Active; 'I' for Inactive)
REMARK    1  A    between atoms: C2_2  and  C3_3 
REMARK    2  A    between atoms: C3_3  and  N1_4 
REMARK    3  A    between atoms: N2_6  and  C5_8 
REMARK    4  A    between atoms: C11_15  and  N3_16 
REMARK    5  A    between atoms: N3_16  and  C12_18 
REMARK    6  A    between atoms: C12_18  and  O1_19 
REMARK    7  A    between atoms: C12_18  and  C13_21 
REMARK    8  A    between atoms: C15_23  and  C16_24 
REMARK       I    between atoms: C16_24  and  N4_26 
REMARK    9  A    between atoms: N4_26  and  C17_28 
REMARK   10  A    between atoms: C17_28  and  C18_29 
REMARK   11  A    between atoms: C17_28  and  C20_33 
REMARK   12  A    between atoms: C18_29  and  C19_30 
REMARK   13  A    between atoms: C22_37  and  O7_38 
REMARK   14  A    between atoms: C24_40  and  O8_41 
ROOT
HETATM    1  C13 UNL     1      16.073  23.161  17.603  1.00  0.00     0.052 A 
HETATM    2  C14 UNL     1      15.628  21.986  18.182  1.00  0.00     0.035 A 
HETATM    3  C15 UNL     1      15.169  20.881  17.505  1.00  0.00     0.035 A 
HETATM    4  C21 UNL     1      15.146  20.937  16.127  1.00  0.00     0.056 A 
HETATM    5  C22 UNL     1      15.577  22.078  15.487  1.00  0.00     0.103 A 
HETATM    6  C24 UNL     1      16.037  23.179  16.230  1.00  0.00     0.116 A 
ENDROOT
BRANCH   1   7
HETATM    7  C12 UNL     1      16.486  24.288  18.431  1.00  0.00     0.154 C 
BRANCH   7   8
HETATM    8  N3  UNL     1      17.708  24.729  18.771  1.00  0.00    -0.324 N 
ATOM      9  H3  UNL     1      17.851  25.699  18.490  1.00  0.00     0.169 HD
BRANCH   8  10
HETATM   10  C11 UNL     1      18.732  24.251  19.350  1.00  0.00     0.106 C 
HETATM   11  N1  UNL     1      20.083  24.768  19.092  1.00  0.00    -0.312 N 
HETATM   12  C4  UNL     1      20.819  24.965  20.276  1.00  0.00     0.145 C 
HETATM   13  N2  UNL     1      21.878  25.642  20.515  1.00  0.00    -0.367 N 
HETATM   14  S1  UNL     1      19.950  24.008  21.533  1.00  0.00    -0.077 SA
ATOM     15  H2  UNL     1      22.311  26.153  19.747  1.00  0.00     0.162 HD
HETATM   16  C8  UNL     1      18.854  23.135  20.317  1.00  0.00     0.067 C 
HETATM   17  C9  UNL     1      17.637  22.629  20.954  1.00  0.00     0.035 C 
HETATM   18  C10 UNL     1      19.744  22.028  19.761  1.00  0.00     0.035 C 
BRANCH  11  19
HETATM   19  C3  UNL     1      20.612  25.070  17.778  1.00  0.00     0.159 C 
BRANCH  19  20
HETATM   20  C2  UNL     1      20.422  26.518  17.485  1.00  0.00    -0.017 C 
HETATM   21  C1  UNL     1      21.478  27.274  17.267  1.00  0.00     0.008 C 
ENDBRANCH  19  20
ENDBRANCH  11  19
BRANCH  13  22
HETATM   22  C5  UNL     1      22.483  25.716  21.806  1.00  0.00     0.075 C 
HETATM   23  C6  UNL     1      23.963  25.941  21.630  1.00  0.00     0.032 C 
HETATM   24  C7  UNL     1      21.935  26.917  22.557  1.00  0.00     0.032 C 
ENDBRANCH  13  22
ENDBRANCH   8  10
ENDBRANCH   7   8
BRANCH   7  25
HETATM   25  O1  UNL     1      15.482  24.969  18.907  1.00  0.00    -0.345 OA
ATOM     26  H1  UNL     1      14.656  24.864  18.451  1.00  0.00     0.219 HD
ENDBRANCH   7  25
ENDBRANCH   1   7
BRANCH   6  27
HETATM   27  O8  UNL     1      16.449  24.258  15.503  1.00  0.00    -0.352 OA
HETATM   28  C25 UNL     1      17.862  24.475  15.415  1.00  0.00     0.210 C 
ENDBRANCH   6  27
BRANCH   3  29
HETATM   29  C16 UNL     1      14.721  19.680  18.223  1.00  0.00     0.252 C 
HETATM   30  O2  UNL     1      15.615  18.928  18.685  1.00  0.00    -0.268 OA
HETATM   31  N4  UNL     1      13.358  19.342  18.413  1.00  0.00    -0.342 N 
ATOM     32  H4  UNL     1      12.643  19.963  18.033  1.00  0.00     0.163 HD
BRANCH  31  33
HETATM   33  C17 UNL     1      12.935  18.160  19.121  1.00  0.00     0.195 C 
BRANCH  33  34
HETATM   34  C18 UNL     1      11.714  17.515  18.556  1.00  0.00     0.149 C 
BRANCH  34  35
HETATM   35  C19 UNL     1      10.951  18.353  17.613  1.00  0.00     0.175 C 
HETATM   36  O3  UNL     1      10.617  17.825  16.522  1.00  0.00    -0.648 OA
HETATM   37  O4  UNL     1      10.579  19.664  17.839  1.00  0.00    -0.648 OA
ENDBRANCH  34  35
ENDBRANCH  33  34
BRANCH  33  38
HETATM   38  C20 UNL     1      12.585  18.584  20.519  1.00  0.00     0.197 C 
HETATM   39  O5  UNL     1      11.408  18.571  20.934  1.00  0.00    -0.646 OA
HETATM   40  O6  UNL     1      13.572  19.009  21.404  1.00  0.00    -0.646 OA
ENDBRANCH  33  38
ENDBRANCH  31  33
ENDBRANCH   3  29
BRANCH   5  41
HETATM   41  O7  UNL     1      15.560  22.149  14.109  1.00  0.00    -0.353 OA
HETATM   42  C23 UNL     1      14.922  21.257  13.255  1.00  0.00     0.210 C 
ENDBRANCH   5  41
TORSDOF 14
ENDMDL
MODEL 4
REMARK VINA RESULT: -7.856025089      2.300      5.008
REMARK  14 active torsions:
REMARK  status: ('A' for Active; 'I' for Inactive)
REMARK    1  A    between atoms: C2_2  and  C3_3 
REMARK    2  A    between atoms: C3_3  and  N1_4 
REMARK    3  A    between atoms: N2_6  and  C5_8 
REMARK    4  A    between atoms: C11_15  and  N3_16 
REMARK    5  A    between atoms: N3_16  and  C12_18 
REMARK    6  A    between atoms: C12_18  and  O1_19 
REMARK    7  A    between atoms: C12_18  and  C13_21 
REMARK    8  A    between atoms: C15_23  and  C16_24 
REMARK       I    between atoms: C16_24  and  N4_26 
REMARK    9  A    between atoms: N4_26  and  C17_28 
REMARK   10  A    between atoms: C17_28  and  C18_29 
REMARK   11  A    between atoms: C17_28  and  C20_33 
REMARK   12  A    between atoms: C18_29  and  C19_30 
REMARK   13  A    between atoms: C22_37  and  O7_38 
REMARK   14  A    between atoms: C24_40  and  O8_41 
ROOT
HETATM    1  C13 UNL     1      17.937  24.687  17.658  1.00  0.00     0.052 A 
HETATM    2  C14 UNL     1      18.736  24.653  18.787  1.00  0.00     0.035 A 
HETATM    3  C15 UNL     1      20.109  24.724  18.801  1.00  0.00     0.035 A 
HETATM    4  C21 UNL     1      20.757  24.840  17.589  1.00  0.00     0.056 A 
HETATM    5  C22 UNL     1      20.020  24.882  16.426  1.00  0.00     0.103 A 
HETATM    6  C24 UNL     1      18.617  24.806  16.470  1.00  0.00     0.116 A 
ENDROOT
BRANCH   1   7
HETATM    7  C12 UNL     1      16.489  24.549  17.768  1.00  0.00     0.154 C 
BRANCH   7   8
HETATM    8  N3  UNL     1      15.604  23.913  16.982  1.00  0.00    -0.324 N 
ATOM      9  H3  UNL     1      15.073  24.566  16.406  1.00  0.00     0.169 HD
BRANCH   8  10
HETATM   10  C11 UNL     1      15.256  22.710  16.772  1.00  0.00     0.106 C 
HETATM   11  N1  UNL     1      15.839  21.590  17.524  1.00  0.00    -0.312 N 
HETATM   12  C4  UNL     1      14.866  20.675  17.968  1.00  0.00     0.145 C 
HETATM   13  N2  UNL     1      14.905  19.761  18.862  1.00  0.00    -0.367 N 
HETATM   14  S1  UNL     1      13.405  21.026  16.972  1.00  0.00    -0.077 SA
ATOM     15  H2  UNL     1      15.773  19.625  19.379  1.00  0.00     0.162 HD
HETATM   16  C8  UNL     1      14.298  22.145  15.793  1.00  0.00     0.067 C 
HETATM   17  C9  UNL     1      13.378  23.057  15.113  1.00  0.00     0.035 C 
HETATM   18  C10 UNL     1      14.998  21.180  14.841  1.00  0.00     0.035 C 
BRANCH  11  19
HETATM   19  C3  UNL     1      17.251  21.436  17.808  1.00  0.00     0.159 C 
BRANCH  19  20
HETATM   20  C2  UNL     1      17.457  21.347  19.280  1.00  0.00    -0.017 C 
HETATM   21  C1  UNL     1      18.681  21.405  19.763  1.00  0.00     0.008 C 
ENDBRANCH  19  20
ENDBRANCH  11  19
BRANCH  13  22
HETATM   22  C5  UNL     1      13.792  18.921  19.170  1.00  0.00     0.075 C 
HETATM   23  C6  UNL     1      14.109  17.519  18.718  1.00  0.00     0.032 C 
HETATM   24  C7  UNL     1      13.593  18.872  20.675  1.00  0.00     0.032 C 
ENDBRANCH  13  22
ENDBRANCH   8  10
ENDBRANCH   7   8
BRANCH   7  25
HETATM   25  O1  UNL     1      15.995  25.146  18.815  1.00  0.00    -0.345 OA
ATOM     26  H1  UNL     1      15.800  26.070  18.713  1.00  0.00     0.219 HD
ENDBRANCH   7  25
ENDBRANCH   1   7
BRANCH   6  27
HETATM   27  O8  UNL     1      17.979  24.863  15.265  1.00  0.00    -0.352 OA
HETATM   28  C25 UNL     1      17.891  26.150  14.643  1.00  0.00     0.210 C 
ENDBRANCH   6  27
BRANCH   3  29
HETATM   29  C16 UNL     1      20.860  24.681  20.062  1.00  0.00     0.252 C 
HETATM   30  O2  UNL     1      20.200  24.466  21.110  1.00  0.00    -0.268 OA
HETATM   31  N4  UNL     1      22.263  24.866  20.147  1.00  0.00    -0.342 N 
ATOM     32  H4  UNL     1      22.785  25.039  19.288  1.00  0.00     0.163 HD
BRANCH  31  33
HETATM   33  C17 UNL     1      22.985  24.820  21.394  1.00  0.00     0.195 C 
BRANCH  33  34
HETATM   34  C18 UNL     1      23.381  26.160  21.918  1.00  0.00     0.149 C 
BRANCH  34  35
HETATM   35  C19 UNL     1      22.274  26.962  22.470  1.00  0.00     0.175 C 
HETATM   36  O3  UNL     1      21.664  27.718  21.672  1.00  0.00    -0.648 OA
HETATM   37  O4  UNL     1      21.862  26.943  23.788  1.00  0.00    -0.648 OA
ENDBRANCH  34  35
ENDBRANCH  33  34
BRANCH  33  38
HETATM   38  C20 UNL     1      24.261  24.069  21.136  1.00  0.00     0.197 C 
HETATM   39  O5  UNL     1      24.448  23.436  20.077  1.00  0.00    -0.646 OA
HETATM   40  O6  UNL     1      25.285  24.058  22.080  1.00  0.00    -0.646 OA
ENDBRANCH  33  38
ENDBRANCH  31  33
ENDBRANCH   3  29
BRANCH   5  41
HETATM   41  O7  UNL     1      20.655  24.997  15.206  1.00  0.00    -0.353 OA
HETATM   42  C23 UNL     1      21.673  25.893  14.899  1.00  0.00     0.210 C 
ENDBRANCH   5  41
TORSDOF 14
ENDMDL
MODEL 5
REMARK VINA RESULT: -7.853486953      4.494     10.451
REMARK  14 active torsions:
REMARK  status: ('A' for Active; 'I' for Inactive)
REMARK    1  A    between atoms: C2_2  and  C3_3 
REMARK    2  A    between atoms: C3_3  and  N1_4 
REMARK    3  A    between atoms: N2_6  and  C5_8 
REMARK    4  A    between atoms: C11_15  and  N3_16 
REMARK    5  A    between atoms: N3_16  and  C12_18 
REMARK    6  A    between atoms: C12_18  and  O1_19 
REMARK    7  A    between atoms: C12_18  and  C13_21 
REMARK    8  A    between atoms: C15_23  and  C16_24 
REMARK       I    between atoms: C16_24  and  N4_26 
REMARK    9  A    between atoms: N4_26  and  C17_28 
REMARK   10  A    between atoms: C17_28  and  C18_29 
REMARK   11  A    between atoms: C17_28  and  C20_33 
REMARK   12  A    between atoms: C18_29  and  C19_30 
REMARK   13  A    between atoms: C22_37  and  O7_38 
REMARK   14  A    between atoms: C24_40  and  O8_41 
ROOT
HETATM    1  C13 UNL     1      15.957  21.845  18.355  1.00  0.00     0.052 A 
HETATM    2  C14 UNL     1      15.376  20.657  18.761  1.00  0.00     0.035 A 
HETATM    3  C15 UNL     1      14.320  20.029  18.144  1.00  0.00     0.035 A 
HETATM    4  C21 UNL     1      13.785  20.626  17.021  1.00  0.00     0.056 A 
HETATM    5  C22 UNL     1      14.319  21.810  16.563  1.00  0.00     0.103 A 
HETATM    6  C24 UNL     1      15.400  22.409  17.233  1.00  0.00     0.116 A 
ENDROOT
BRANCH   1   7
HETATM    7  C12 UNL     1      17.041  22.443  19.126  1.00  0.00     0.154 C 
BRANCH   7   8
HETATM    8  N3  UNL     1      18.342  22.607  18.834  1.00  0.00    -0.324 N 
ATOM      9  H3  UNL     1      18.545  22.368  17.864  1.00  0.00     0.169 HD
BRANCH   8  10
HETATM   10  C11 UNL     1      19.385  22.982  19.454  1.00  0.00     0.106 C 
HETATM   11  N1  UNL     1      20.094  24.221  19.104  1.00  0.00    -0.312 N 
HETATM   12  C4  UNL     1      20.436  24.984  20.236  1.00  0.00     0.145 C 
HETATM   13  N2  UNL     1      20.783  26.209  20.362  1.00  0.00    -0.367 N 
HETATM   14  S1  UNL     1      20.303  23.844  21.627  1.00  0.00    -0.077 SA
ATOM     15  H2  UNL     1      20.837  26.786  19.523  1.00  0.00     0.162 HD
HETATM   16  C8  UNL     1      20.128  22.335  20.561  1.00  0.00     0.067 C 
HETATM   17  C9  UNL     1      19.485  21.237  21.283  1.00  0.00     0.035 C 
HETATM   18  C10 UNL     1      21.562  22.022  20.144  1.00  0.00     0.035 C 
BRANCH  11  19
HETATM   19  C3  UNL     1      20.397  24.641  17.751  1.00  0.00     0.159 C 
BRANCH  19  20
HETATM   20  C2  UNL     1      19.361  25.603  17.284  1.00  0.00    -0.017 C 
HETATM   21  C1  UNL     1      19.439  26.089  16.062  1.00  0.00     0.008 C 
ENDBRANCH  19  20
ENDBRANCH  11  19
BRANCH  13  22
HETATM   22  C5  UNL     1      21.097  26.807  21.619  1.00  0.00     0.075 C 
HETATM   23  C6  UNL     1      22.593  26.792  21.798  1.00  0.00     0.032 C 
HETATM   24  C7  UNL     1      20.661  28.262  21.614  1.00  0.00     0.032 C 
ENDBRANCH  13  22
ENDBRANCH   8  10
ENDBRANCH   7   8
BRANCH   7  25
HETATM   25  O1  UNL     1      16.658  22.891  20.287  1.00  0.00    -0.345 OA
ATOM     26  H1  UNL     1      15.881  23.437  20.286  1.00  0.00     0.219 HD
ENDBRANCH   7  25
ENDBRANCH   1   7
BRANCH   6  27
HETATM   27  O8  UNL     1      15.861  23.576  16.696  1.00  0.00    -0.352 OA
HETATM   28  C25 UNL     1      16.867  23.467  15.682  1.00  0.00     0.210 C 
ENDBRANCH   6  27
BRANCH   3  29
HETATM   29  C16 UNL     1      13.780  18.764  18.660  1.00  0.00     0.252 C 
HETATM   30  O2  UNL     1      14.602  17.961  19.170  1.00  0.00    -0.268 OA
HETATM   31  N4  UNL     1      12.407  18.417  18.610  1.00  0.00    -0.342 N 
ATOM     32  H4  UNL     1      11.752  19.079  18.193  1.00  0.00     0.163 HD
BRANCH  31  33
HETATM   33  C17 UNL     1      11.895  17.171  19.121  1.00  0.00     0.195 C 
BRANCH  33  34
HETATM   34  C18 UNL     1      10.852  16.541  18.259  1.00  0.00     0.149 C 
BRANCH  34  35
HETATM   35  C19 UNL     1      11.073  16.691  16.809  1.00  0.00     0.175 C 
HETATM   36  O3  UNL     1      11.446  15.669  16.180  1.00  0.00    -0.648 OA
HETATM   37  O4  UNL     1      10.902  17.863  16.098  1.00  0.00    -0.648 OA
ENDBRANCH  34  35
ENDBRANCH  33  34
BRANCH  33  38
HETATM   38  C20 UNL     1      11.233  17.473  20.437  1.00  0.00     0.197 C 
HETATM   39  O5  UNL     1      11.383  18.572  21.010  1.00  0.00    -0.646 OA
HETATM   40  O6  UNL     1      10.424  16.528  21.062  1.00  0.00    -0.646 OA
ENDBRANCH  33  38
ENDBRANCH  31  33
ENDBRANCH   3  29
BRANCH   5  41
HETATM   41  O7  UNL     1      13.794  22.420  15.442  1.00  0.00    -0.353 OA
HETATM   42  C23 UNL     1      12.582  22.108  14.837  1.00  0.00     0.210 C 
ENDBRANCH   5  41
TORSDOF 14
ENDMDL
