MODEL 1
REMARK VINA RESULT: -9.711858667      0.000      0.000
REMARK  11 active torsions:
REMARK  status: ('A' for Active; 'I' for Inactive)
REMARK    1  A    between atoms: N1_1  and  N2_4 
REMARK       I    between atoms: N2_4  and  C1_6 
REMARK       I    between atoms: C1_6  and  N3_8 
REMARK    2  A    between atoms: N3_8  and  O2_10 
REMARK    3  A    between atoms: O2_10  and  C2_11 
REMARK    4  A    between atoms: C2_11  and  C3_12 
REMARK    5  A    between atoms: C3_12  and  N4_13 
REMARK    6  A    between atoms: N4_13  and  C4_15 
REMARK    7  A    between atoms: C4_15  and  O3_16 
REMARK    8  A    between atoms: C4_15  and  N5_18 
REMARK    9  A    between atoms: C4_15  and  N7_28 
REMARK   10  A    between atoms: N5_18  and  N6_20 
REMARK   11  A    between atoms: N6_20  and  C5_22 
REMARK       I    between atoms: N7_28  and  C11_30 
ROOT
HETATM    1  C4  UNL     1      15.800  81.931  26.009  1.00  0.00     0.319 C 
ENDROOT
BRANCH   1   2
HETATM    2  N4  UNL     1      16.553  80.741  25.751  1.00  0.00    -0.333 N 
ATOM      3  H4  UNL     1      17.040  80.626  24.862  1.00  0.00     0.165 HD
BRANCH   2   4
HETATM    4  C3  UNL     1      16.618  79.736  26.723  1.00  0.00     0.090 C 
BRANCH   4   5
HETATM    5  C2  UNL     1      16.342  78.375  26.160  1.00  0.00     0.245 C 
BRANCH   5   6
HETATM    6  O2  UNL     1      17.355  77.505  26.561  1.00  0.00    -0.271 OA
BRANCH   6   7
HETATM    7  N3  UNL     1      16.817  76.655  27.462  1.00  0.00    -0.215 N 
HETATM    8  C1  UNL     1      17.460  76.467  28.703  1.00  0.00     0.358 C 
HETATM    9  N2  UNL     1      16.897  75.576  29.651  1.00  0.00    -0.257 N 
HETATM   10  O1  UNL     1      18.524  77.106  28.924  1.00  0.00    -0.243 OA
ATOM     11  H2  UNL     1      16.034  75.072  29.442  1.00  0.00     0.191 HD
ATOM     12  H3  UNL     1      15.955  76.154  27.247  1.00  0.00     0.199 HD
BRANCH   9  13
HETATM   13  N1  UNL     1      17.543  75.401  30.869  1.00  0.00    -0.341 N 
ATOM     14  H12 UNL     1      18.562  75.428  30.909  1.00  0.00     0.177 HD
ATOM     15  H11 UNL     1      16.980  75.249  31.705  1.00  0.00     0.177 HD
ENDBRANCH   9  13
ENDBRANCH   6   7
ENDBRANCH   5   6
ENDBRANCH   4   5
ENDBRANCH   2   4
ENDBRANCH   1   2
BRANCH   1  16
HETATM   16  O3  UNL     1      16.423  82.765  26.927  1.00  0.00    -0.335 OA
ATOM     17  H3  UNL     1      16.078  83.650  26.907  1.00  0.00     0.216 HD
ENDBRANCH   1  16
BRANCH   1  18
HETATM   18  N5  UNL     1      15.726  82.624  24.751  1.00  0.00    -0.265 N 
ATOM     19  H5  UNL     1      14.862  83.072  24.446  1.00  0.00     0.187 HD
BRANCH  18  20
HETATM   20  N6  UNL     1      16.840  82.662  23.985  1.00  0.00    -0.300 N 
ATOM     21  H6  UNL     1      17.241  81.807  23.600  1.00  0.00     0.186 HD
BRANCH  20  22
HETATM   22  C5  UNL     1      17.443  83.944  23.730  1.00  0.00     0.048 A 
HETATM   23  C6  UNL     1      18.523  84.055  22.859  1.00  0.00     0.031 A 
HETATM   24  C7  UNL     1      19.084  85.286  22.624  1.00  0.00     0.002 A 
HETATM   25  C8  UNL     1      18.626  86.425  23.211  1.00  0.00     0.000 A 
HETATM   26  C9  UNL     1      17.543  86.345  24.090  1.00  0.00     0.002 A 
HETATM   27  C10 UNL     1      16.990  85.106  24.318  1.00  0.00     0.031 A 
ENDBRANCH  20  22
ENDBRANCH  18  20
ENDBRANCH   1  18
BRANCH   1  28
HETATM   28  N7  UNL     1      14.499  81.595  26.539  1.00  0.00    -0.276 N 
HETATM   29  C11 UNL     1      13.540  80.897  25.770  1.00  0.00     0.333 C 
HETATM   30  N8  UNL     1      12.264  80.552  26.257  1.00  0.00    -0.040 NA
HETATM   31  O4  UNL     1      13.851  80.569  24.585  1.00  0.00    -0.251 OA
ATOM     32  H7  UNL     1      14.267  81.868  27.494  1.00  0.00     0.170 HD
ENDBRANCH   1  28
TORSDOF 11
ENDMDL
MODEL 2
REMARK VINA RESULT: -9.702308557      1.181      1.676
REMARK  11 active torsions:
REMARK  status: ('A' for Active; 'I' for Inactive)
REMARK    1  A    between atoms: N1_1  and  N2_4 
REMARK       I    between atoms: N2_4  and  C1_6 
REMARK       I    between atoms: C1_6  and  N3_8 
REMARK    2  A    between atoms: N3_8  and  O2_10 
REMARK    3  A    between atoms: O2_10  and  C2_11 
REMARK    4  A    between atoms: C2_11  and  C3_12 
REMARK    5  A    between atoms: C3_12  and  N4_13 
REMARK    6  A    between atoms: N4_13  and  C4_15 
REMARK    7  A    between atoms: C4_15  and  O3_16 
REMARK    8  A    between atoms: C4_15  and  N5_18 
REMARK    9  A    between atoms: C4_15  and  N7_28 
REMARK   10  A    between atoms: N5_18  and  N6_20 
REMARK   11  A    between atoms: N6_20  and  C5_22 
REMARK       I    between atoms: N7_28  and  C11_30 
ROOT
HETATM    1  C4  UNL     1      15.808  82.023  26.030  1.00  0.00     0.319 C 
ENDROOT
BRANCH   1   2
HETATM    2  N4  UNL     1      16.569  80.829  25.815  1.00  0.00    -0.333 N 
ATOM      3  H4  UNL     1      16.933  80.615  24.887  1.00  0.00     0.165 HD
BRANCH   2   4
HETATM    4  C3  UNL     1      16.811  79.958  26.884  1.00  0.00     0.090 C 
BRANCH   4   5
HETATM    5  C2  UNL     1      16.396  78.550  26.580  1.00  0.00     0.245 C 
BRANCH   5   6
HETATM    6  O2  UNL     1      16.797  77.724  27.629  1.00  0.00    -0.271 OA
BRANCH   6   7
HETATM    7  N3  UNL     1      17.287  76.592  27.079  1.00  0.00    -0.215 N 
HETATM    8  C1  UNL     1      18.595  76.178  27.406  1.00  0.00     0.358 C 
HETATM    9  N2  UNL     1      19.112  74.989  26.832  1.00  0.00    -0.257 N 
HETATM   10  O1  UNL     1      19.262  76.888  28.206  1.00  0.00    -0.243 OA
ATOM     11  H2  UNL     1      18.548  74.435  26.188  1.00  0.00     0.191 HD
ATOM     12  H3  UNL     1      16.718  76.044  26.435  1.00  0.00     0.199 HD
BRANCH   9  13
HETATM   13  N1  UNL     1      20.403  74.594  27.164  1.00  0.00    -0.341 N 
ATOM     14  H12 UNL     1      21.170  75.261  27.091  1.00  0.00     0.177 HD
ATOM     15  H11 UNL     1      20.557  73.636  27.477  1.00  0.00     0.177 HD
ENDBRANCH   9  13
ENDBRANCH   6   7
ENDBRANCH   5   6
ENDBRANCH   4   5
ENDBRANCH   2   4
ENDBRANCH   1   2
BRANCH   1  16
HETATM   16  O3  UNL     1      16.419  82.888  26.928  1.00  0.00    -0.335 OA
ATOM     17  H3  UNL     1      17.161  82.490  27.368  1.00  0.00     0.216 HD
ENDBRANCH   1  16
BRANCH   1  18
HETATM   18  N5  UNL     1      15.742  82.677  24.751  1.00  0.00    -0.265 N 
ATOM     19  H5  UNL     1      14.880  83.116  24.427  1.00  0.00     0.187 HD
BRANCH  18  20
HETATM   20  N6  UNL     1      16.860  82.691  23.991  1.00  0.00    -0.300 N 
ATOM     21  H6  UNL     1      17.263  81.825  23.633  1.00  0.00     0.186 HD
BRANCH  20  22
HETATM   22  C5  UNL     1      17.467  83.965  23.704  1.00  0.00     0.048 A 
HETATM   23  C6  UNL     1      17.001  85.124  24.319  1.00  0.00     0.031 A 
HETATM   24  C7  UNL     1      17.595  86.329  24.037  1.00  0.00     0.002 A 
HETATM   25  C8  UNL     1      18.636  86.449  23.170  1.00  0.00     0.000 A 
HETATM   26  C9  UNL     1      19.125  85.305  22.537  1.00  0.00     0.002 A 
HETATM   27  C10 UNL     1      18.522  84.102  22.827  1.00  0.00     0.031 A 
ENDBRANCH  20  22
ENDBRANCH  18  20
ENDBRANCH   1  18
BRANCH   1  28
HETATM   28  N7  UNL     1      14.504  81.697  26.559  1.00  0.00    -0.276 N 
HETATM   29  C11 UNL     1      13.563  80.953  25.811  1.00  0.00     0.333 C 
HETATM   30  N8  UNL     1      12.284  80.617  26.298  1.00  0.00    -0.040 NA
HETATM   31  O4  UNL     1      13.893  80.573  24.647  1.00  0.00    -0.251 OA
ATOM     32  H7  UNL     1      14.256  82.012  27.497  1.00  0.00     0.170 HD
ENDBRANCH   1  28
TORSDOF 11
ENDMDL
MODEL 3
REMARK VINA RESULT: -9.317374142      2.183      2.963
REMARK  11 active torsions:
REMARK  status: ('A' for Active; 'I' for Inactive)
REMARK    1  A    between atoms: N1_1  and  N2_4 
REMARK       I    between atoms: N2_4  and  C1_6 
REMARK       I    between atoms: C1_6  and  N3_8 
REMARK    2  A    between atoms: N3_8  and  O2_10 
REMARK    3  A    between atoms: O2_10  and  C2_11 
REMARK    4  A    between atoms: C2_11  and  C3_12 
REMARK    5  A    between atoms: C3_12  and  N4_13 
REMARK    6  A    between atoms: N4_13  and  C4_15 
REMARK    7  A    between atoms: C4_15  and  O3_16 
REMARK    8  A    between atoms: C4_15  and  N5_18 
REMARK    9  A    between atoms: C4_15  and  N7_28 
REMARK   10  A    between atoms: N5_18  and  N6_20 
REMARK   11  A    between atoms: N6_20  and  C5_22 
REMARK       I    between atoms: N7_28  and  C11_30 
ROOT
HETATM    1  C4  UNL     1      15.736  81.898  25.981  1.00  0.00     0.319 C 
ENDROOT
BRANCH   1   2
HETATM    2  N4  UNL     1      16.433  80.672  25.733  1.00  0.00    -0.333 N 
ATOM      3  H4  UNL     1      16.637  80.383  24.776  1.00  0.00     0.165 HD
BRANCH   2   4
HETATM    4  C3  UNL     1      16.834  79.872  26.810  1.00  0.00     0.090 C 
BRANCH   4   5
HETATM    5  C2  UNL     1      16.542  78.419  26.583  1.00  0.00     0.245 C 
BRANCH   5   6
HETATM    6  O2  UNL     1      15.842  78.280  25.386  1.00  0.00    -0.271 OA
BRANCH   6   7
HETATM    7  N3  UNL     1      14.660  77.697  25.681  1.00  0.00    -0.215 N 
HETATM    8  C1  UNL     1      14.004  76.932  24.694  1.00  0.00     0.358 C 
HETATM    9  N2  UNL     1      12.763  76.318  25.000  1.00  0.00    -0.257 N 
HETATM   10  O1  UNL     1      14.552  76.823  23.564  1.00  0.00    -0.243 OA
ATOM     11  H2  UNL     1      12.345  76.426  25.925  1.00  0.00     0.191 HD
ATOM     12  H3  UNL     1      14.247  77.809  26.606  1.00  0.00     0.199 HD
BRANCH   9  13
HETATM   13  N1  UNL     1      12.129  75.568  24.018  1.00  0.00    -0.341 N 
ATOM     14  H12 UNL     1      12.669  75.204  23.233  1.00  0.00     0.177 HD
ATOM     15  H11 UNL     1      11.127  75.395  24.103  1.00  0.00     0.177 HD
ENDBRANCH   9  13
ENDBRANCH   6   7
ENDBRANCH   5   6
ENDBRANCH   4   5
ENDBRANCH   2   4
ENDBRANCH   1   2
BRANCH   1  16
HETATM   16  O3  UNL     1      16.408  82.720  26.875  1.00  0.00    -0.335 OA
ATOM     17  H3  UNL     1      15.956  82.798  27.707  1.00  0.00     0.216 HD
ENDBRANCH   1  16
BRANCH   1  18
HETATM   18  N5  UNL     1      15.674  82.572  24.711  1.00  0.00    -0.265 N 
ATOM     19  H5  UNL     1      14.811  83.010  24.389  1.00  0.00     0.187 HD
BRANCH  18  20
HETATM   20  N6  UNL     1      16.797  82.606  23.960  1.00  0.00    -0.300 N 
ATOM     21  H6  UNL     1      17.196  81.751  23.572  1.00  0.00     0.186 HD
BRANCH  20  22
HETATM   22  C5  UNL     1      17.415  83.884  23.723  1.00  0.00     0.048 A 
HETATM   23  C6  UNL     1      18.514  83.991  22.875  1.00  0.00     0.031 A 
HETATM   24  C7  UNL     1      19.088  85.219  22.657  1.00  0.00     0.002 A 
HETATM   25  C8  UNL     1      18.627  86.359  23.239  1.00  0.00     0.000 A 
HETATM   26  C9  UNL     1      17.526  86.283  24.095  1.00  0.00     0.002 A 
HETATM   27  C10 UNL     1      16.959  85.047  24.306  1.00  0.00     0.031 A 
ENDBRANCH  20  22
ENDBRANCH  18  20
ENDBRANCH   1  18
BRANCH   1  28
HETATM   28  N7  UNL     1      14.429  81.628  26.534  1.00  0.00    -0.276 N 
HETATM   29  C11 UNL     1      13.442  80.927  25.804  1.00  0.00     0.333 C 
HETATM   30  N8  UNL     1      12.160  80.646  26.314  1.00  0.00    -0.040 NA
HETATM   31  O4  UNL     1      13.733  80.536  24.633  1.00  0.00    -0.251 OA
ATOM     32  H7  UNL     1      14.214  81.951  27.477  1.00  0.00     0.170 HD
ENDBRANCH   1  28
TORSDOF 11
ENDMDL
MODEL 4
REMARK VINA RESULT: -9.286204623      2.554      3.051
REMARK  11 active torsions:
REMARK  status: ('A' for Active; 'I' for Inactive)
REMARK    1  A    between atoms: N1_1  and  N2_4 
REMARK       I    between atoms: N2_4  and  C1_6 
REMARK       I    between atoms: C1_6  and  N3_8 
REMARK    2  A    between atoms: N3_8  and  O2_10 
REMARK    3  A    between atoms: O2_10  and  C2_11 
REMARK    4  A    between atoms: C2_11  and  C3_12 
REMARK    5  A    between atoms: C3_12  and  N4_13 
REMARK    6  A    between atoms: N4_13  and  C4_15 
REMARK    7  A    between atoms: C4_15  and  O3_16 
REMARK    8  A    between atoms: C4_15  and  N5_18 
REMARK    9  A    between atoms: C4_15  and  N7_28 
REMARK   10  A    between atoms: N5_18  and  N6_20 
REMARK   11  A    between atoms: N6_20  and  C5_22 
REMARK       I    between atoms: N7_28  and  C11_30 
ROOT
HETATM    1  C4  UNL     1      16.148  80.200  25.802  1.00  0.00     0.319 C 
ENDROOT
BRANCH   1   2
HETATM    2  N4  UNL     1      16.091  78.976  25.060  1.00  0.00    -0.333 N 
ATOM      3  H4  UNL     1      15.995  78.996  24.045  1.00  0.00     0.165 HD
BRANCH   2   4
HETATM    4  C3  UNL     1      16.167  77.751  25.735  1.00  0.00     0.090 C 
BRANCH   4   5
HETATM    5  C2  UNL     1      15.353  76.681  25.073  1.00  0.00     0.245 C 
BRANCH   5   6
HETATM    6  O2  UNL     1      16.160  75.996  24.166  1.00  0.00    -0.271 OA
BRANCH   6   7
HETATM    7  N3  UNL     1      16.501  74.823  24.743  1.00  0.00    -0.215 N 
HETATM    8  C1  UNL     1      17.518  74.039  24.160  1.00  0.00     0.358 C 
HETATM    9  N2  UNL     1      17.880  72.808  24.764  1.00  0.00    -0.257 N 
HETATM   10  O1  UNL     1      18.073  74.467  23.112  1.00  0.00    -0.243 OA
ATOM     11  H2  UNL     1      17.412  72.488  25.612  1.00  0.00     0.191 HD
ATOM     12  H3  UNL     1      16.029  74.509  25.590  1.00  0.00     0.199 HD
BRANCH   9  13
HETATM   13  N1  UNL     1      18.883  72.046  24.177  1.00  0.00    -0.341 N 
ATOM     14  H12 UNL     1      18.892  71.914  23.166  1.00  0.00     0.177 HD
ATOM     15  H11 UNL     1      19.597  71.631  24.776  1.00  0.00     0.177 HD
ENDBRANCH   9  13
ENDBRANCH   6   7
ENDBRANCH   5   6
ENDBRANCH   4   5
ENDBRANCH   2   4
ENDBRANCH   1   2
BRANCH   1  16
HETATM   16  O3  UNL     1      17.155  80.195  26.757  1.00  0.00    -0.335 OA
ATOM     17  H3  UNL     1      17.695  80.976  26.720  1.00  0.00     0.216 HD
ENDBRANCH   1  16
BRANCH   1  18
HETATM   18  N5  UNL     1      16.449  81.224  24.837  1.00  0.00    -0.265 N 
ATOM     19  H5  UNL     1      16.832  80.989  23.922  1.00  0.00     0.187 HD
BRANCH  18  20
HETATM   20  N6  UNL     1      16.207  82.508  25.184  1.00  0.00    -0.300 N 
ATOM     21  H6  UNL     1      15.536  82.736  25.918  1.00  0.00     0.186 HD
BRANCH  20  22
HETATM   22  C5  UNL     1      16.923  83.544  24.487  1.00  0.00     0.048 A 
HETATM   23  C6  UNL     1      17.768  83.227  23.426  1.00  0.00     0.031 A 
HETATM   24  C7  UNL     1      18.439  84.228  22.769  1.00  0.00     0.002 A 
HETATM   25  C8  UNL     1      18.318  85.539  23.109  1.00  0.00     0.000 A 
HETATM   26  C9  UNL     1      17.478  85.888  24.168  1.00  0.00     0.002 A 
HETATM   27  C10 UNL     1      16.810  84.877  24.820  1.00  0.00     0.031 A 
ENDBRANCH  20  22
ENDBRANCH  18  20
ENDBRANCH   1  18
BRANCH   1  28
HETATM   28  N7  UNL     1      14.898  80.428  26.487  1.00  0.00    -0.276 N 
HETATM   29  C11 UNL     1      13.674  80.539  25.787  1.00  0.00     0.333 C 
HETATM   30  N8  UNL     1      12.438  80.760  26.425  1.00  0.00    -0.040 NA
HETATM   31  O4  UNL     1      13.699  80.432  24.523  1.00  0.00    -0.251 OA
ATOM     32  H7  UNL     1      14.898  80.512  27.504  1.00  0.00     0.170 HD
ENDBRANCH   1  28
TORSDOF 11
ENDMDL
MODEL 5
REMARK VINA RESULT: -8.973237717      2.656      3.555
REMARK  11 active torsions:
REMARK  status: ('A' for Active; 'I' for Inactive)
REMARK    1  A    between atoms: N1_1  and  N2_4 
REMARK       I    between atoms: N2_4  and  C1_6 
REMARK       I    between atoms: C1_6  and  N3_8 
REMARK    2  A    between atoms: N3_8  and  O2_10 
REMARK    3  A    between atoms: O2_10  and  C2_11 
REMARK    4  A    between atoms: C2_11  and  C3_12 
REMARK    5  A    between atoms: C3_12  and  N4_13 
REMARK    6  A    between atoms: N4_13  and  C4_15 
REMARK    7  A    between atoms: C4_15  and  O3_16 
REMARK    8  A    between atoms: C4_15  and  N5_18 
REMARK    9  A    between atoms: C4_15  and  N7_28 
REMARK   10  A    between atoms: N5_18  and  N6_20 
REMARK   11  A    between atoms: N6_20  and  C5_22 
REMARK       I    between atoms: N7_28  and  C11_30 
ROOT
HETATM    1  C4  UNL     1      13.675  77.970  26.138  1.00  0.00     0.319 C 
ENDROOT
BRANCH   1   2
HETATM    2  N4  UNL     1      13.383  76.799  25.367  1.00  0.00    -0.333 N 
ATOM      3  H4  UNL     1      12.540  76.257  25.558  1.00  0.00     0.165 HD
BRANCH   2   4
HETATM    4  C3  UNL     1      14.259  76.402  24.349  1.00  0.00     0.090 C 
BRANCH   4   5
HETATM    5  C2  UNL     1      15.437  75.638  24.874  1.00  0.00     0.245 C 
BRANCH   5   6
HETATM    6  O2  UNL     1      16.363  76.539  25.398  1.00  0.00    -0.271 OA
BRANCH   6   7
HETATM    7  N3  UNL     1      17.062  75.884  26.349  1.00  0.00    -0.215 N 
HETATM    8  C1  UNL     1      17.650  76.617  27.400  1.00  0.00     0.358 C 
HETATM    9  N2  UNL     1      18.385  75.932  28.401  1.00  0.00    -0.257 N 
HETATM   10  O1  UNL     1      17.499  77.869  27.410  1.00  0.00    -0.243 OA
ATOM     11  H2  UNL     1      18.490  74.918  28.366  1.00  0.00     0.191 HD
ATOM     12  H3  UNL     1      17.164  74.870  26.307  1.00  0.00     0.199 HD
BRANCH   9  13
HETATM   13  N1  UNL     1      18.958  76.669  29.430  1.00  0.00    -0.341 N 
ATOM     14  H12 UNL     1      18.603  76.570  30.381  1.00  0.00     0.177 HD
ATOM     15  H11 UNL     1      19.730  77.298  29.211  1.00  0.00     0.177 HD
ENDBRANCH   9  13
ENDBRANCH   6   7
ENDBRANCH   5   6
ENDBRANCH   4   5
ENDBRANCH   2   4
ENDBRANCH   1   2
BRANCH   1  16
HETATM   16  O3  UNL     1      14.354  77.676  27.313  1.00  0.00    -0.335 OA
ATOM     17  H3  UNL     1      15.131  78.212  27.428  1.00  0.00     0.216 HD
ENDBRANCH   1  16
BRANCH   1  18
HETATM   18  N5  UNL     1      14.535  78.774  25.312  1.00  0.00    -0.265 N 
ATOM     19  H5  UNL     1      14.420  78.798  24.299  1.00  0.00     0.187 HD
BRANCH  18  20
HETATM   20  N6  UNL     1      15.501  79.496  25.922  1.00  0.00    -0.300 N 
ATOM     21  H6  UNL     1      16.066  79.093  26.670  1.00  0.00     0.186 HD
BRANCH  20  22
HETATM   22  C5  UNL     1      15.709  80.853  25.487  1.00  0.00     0.048 A 
HETATM   23  C6  UNL     1      15.863  81.143  24.134  1.00  0.00     0.031 A 
HETATM   24  C7  UNL     1      16.056  82.443  23.735  1.00  0.00     0.002 A 
HETATM   25  C8  UNL     1      16.104  83.480  24.614  1.00  0.00     0.000 A 
HETATM   26  C9  UNL     1      15.953  83.220  25.978  1.00  0.00     0.002 A 
HETATM   27  C10 UNL     1      15.761  81.914  26.365  1.00  0.00     0.031 A 
ENDBRANCH  20  22
ENDBRANCH  18  20
ENDBRANCH   1  18
BRANCH   1  28
HETATM   28  N7  UNL     1      12.452  78.649  26.500  1.00  0.00    -0.276 N 
HETATM   29  C11 UNL     1      11.600  79.216  25.525  1.00  0.00     0.333 C 
HETATM   30  N8  UNL     1      10.401  79.883  25.843  1.00  0.00    -0.040 NA
HETATM   31  O4  UNL     1      11.938  79.114  24.306  1.00  0.00    -0.251 OA
ATOM     32  H7  UNL     1      12.198  78.721  27.485  1.00  0.00     0.170 HD
ENDBRANCH   1  28
TORSDOF 11
ENDMDL
