MODEL 1
REMARK VINA RESULT: -8.169076191      0.000      0.000
REMARK  14 active torsions:
REMARK  status: ('A' for Active; 'I' for Inactive)
REMARK    1  A    between atoms: N1_1  and  C1_4 
REMARK    2  A    between atoms: C3_8  and  C4_9 
REMARK    3  A    between atoms: C4_9  and  C5_10 
REMARK    4  A    between atoms: C5_10  and  N3_11 
REMARK    5  A    between atoms: C5_10  and  C6_15 
REMARK    6  A    between atoms: C6_15  and  O1_16 
REMARK    7  A    between atoms: C6_15  and  N4_18 
REMARK    8  A    between atoms: N4_18  and  C7_20 
REMARK    9  A    between atoms: C7_20  and  N5_21 
REMARK   10  A    between atoms: N5_21  and  C8_23 
REMARK   11  A    between atoms: C8_23  and  N6_24 
REMARK   12  A    between atoms: N6_24  and  O2_26 
REMARK   13  A    between atoms: O2_26  and  C9_27 
REMARK   14  A    between atoms: C12_30  and  N7_31 
ROOT
HETATM    1  C6  UNL     1      11.820  79.623  25.562  1.00  0.00     0.245 C 
ENDROOT
BRANCH   1   2
HETATM    2  C5  UNL     1      11.971  78.219  26.072  1.00  0.00     0.237 C 
BRANCH   2   3
HETATM    3  C4  UNL     1      12.194  77.229  24.951  1.00  0.00     0.096 C 
BRANCH   3   4
HETATM    4  C3  UNL     1      13.610  76.893  24.730  1.00  0.00     0.044 A 
HETATM    5  C2  UNL     1      14.629  77.679  24.273  1.00  0.00     0.131 A 
HETATM    6  N2  UNL     1      15.757  76.937  24.234  1.00  0.00    -0.200 N 
HETATM    7  C1  UNL     1      15.451  75.697  24.660  1.00  0.00     0.675 A 
ATOM      8  H2  UNL     1      16.678  77.258  23.934  1.00  0.00     0.183 HD
HETATM    9  N8  UNL     1      14.145  75.677  24.960  1.00  0.00    -0.194 N 
ATOM     10  H8  UNL     1      13.634  74.867  25.309  1.00  0.00     0.184 HD
BRANCH   7  11
HETATM   11  N1  UNL     1      16.274  74.732  24.752  1.00  0.00    -0.234 N 
ATOM     12  H12 UNL     1      17.170  74.639  24.274  1.00  0.00     0.174 HD
ATOM     13  H11 UNL     1      16.143  73.904  25.332  1.00  0.00     0.174 HD
ENDBRANCH   7  11
ENDBRANCH   3   4
ENDBRANCH   2   3
BRANCH   2  14
HETATM   14  N3  UNL     1      10.867  77.815  26.881  1.00  0.00    -0.070 N 
ATOM     15  H33 UNL     1      10.956  78.149  27.840  1.00  0.00     0.274 HD
ATOM     16  H32 UNL     1      10.010  78.308  26.628  1.00  0.00     0.274 HD
ATOM     17  H31 UNL     1      10.748  76.803  26.840  1.00  0.00     0.274 HD
ENDBRANCH   2  14
ENDBRANCH   1   2
BRANCH   1  18
HETATM   18  O1  UNL     1      10.424  79.917  25.750  1.00  0.00    -0.375 OA
ATOM     19  H1  UNL     1      10.005  79.554  24.979  1.00  0.00     0.212 HD
ENDBRANCH   1  18
BRANCH   1  20
HETATM   20  N4  UNL     1      12.505  80.582  26.306  1.00  0.00    -0.380 N 
ATOM     21  H4  UNL     1      11.965  81.231  26.877  1.00  0.00     0.157 HD
BRANCH  20  22
HETATM   22  C7  UNL     1      13.901  80.694  26.304  1.00  0.00     0.241 C 
BRANCH  22  23
HETATM   23  N5  UNL     1      14.367  81.931  25.667  1.00  0.00    -0.369 N 
ATOM     24  H5  UNL     1      13.761  82.467  25.045  1.00  0.00     0.161 HD
BRANCH  23  25
HETATM   25  C8  UNL     1      15.682  82.349  25.944  1.00  0.00     0.201 C 
BRANCH  25  26
HETATM   26  N6  UNL     1      16.072  83.519  26.242  1.00  0.00    -0.262 N 
ATOM     27  H6  UNL     1      15.735  83.880  27.134  1.00  0.00     0.195 HD
BRANCH  26  28
HETATM   28  O2  UNL     1      16.869  84.352  25.544  1.00  0.00    -0.274 OA
BRANCH  28  29
HETATM   29  C9  UNL     1      16.880  84.586  24.167  1.00  0.00     0.154 C 
HETATM   30  C10 UNL     1      17.726  83.648  23.367  1.00  0.00     0.036 C 
HETATM   31  C11 UNL     1      18.572  84.567  22.513  1.00  0.00     0.035 C 
HETATM   32  C12 UNL     1      18.851  85.688  23.519  1.00  0.00     0.186 C 
HETATM   33  C13 UNL     1      17.419  85.987  23.959  1.00  0.00     0.067 C 
BRANCH  32  34
HETATM   34  N7  UNL     1      19.486  86.822  22.908  1.00  0.00    -0.075 N 
ATOM     35  H73 UNL     1      19.920  87.422  23.609  1.00  0.00     0.274 HD
ATOM     36  H72 UNL     1      20.320  86.543  22.392  1.00  0.00     0.274 HD
ATOM     37  H71 UNL     1      18.846  87.351  22.316  1.00  0.00     0.274 HD
ENDBRANCH  32  34
ENDBRANCH  28  29
ENDBRANCH  26  28
ENDBRANCH  25  26
ENDBRANCH  23  25
ENDBRANCH  22  23
ENDBRANCH  20  22
ENDBRANCH   1  20
TORSDOF 14
ENDMDL
MODEL 2
REMARK VINA RESULT: -8.120747289      2.130      8.032
REMARK  14 active torsions:
REMARK  status: ('A' for Active; 'I' for Inactive)
REMARK    1  A    between atoms: N1_1  and  C1_4 
REMARK    2  A    between atoms: C3_8  and  C4_9 
REMARK    3  A    between atoms: C4_9  and  C5_10 
REMARK    4  A    between atoms: C5_10  and  N3_11 
REMARK    5  A    between atoms: C5_10  and  C6_15 
REMARK    6  A    between atoms: C6_15  and  O1_16 
REMARK    7  A    between atoms: C6_15  and  N4_18 
REMARK    8  A    between atoms: N4_18  and  C7_20 
REMARK    9  A    between atoms: C7_20  and  N5_21 
REMARK   10  A    between atoms: N5_21  and  C8_23 
REMARK   11  A    between atoms: C8_23  and  N6_24 
REMARK   12  A    between atoms: N6_24  and  O2_26 
REMARK   13  A    between atoms: O2_26  and  C9_27 
REMARK   14  A    between atoms: C12_30  and  N7_31 
ROOT
HETATM    1  C6  UNL     1      15.801  81.768  26.279  1.00  0.00     0.245 C 
ENDROOT
BRANCH   1   2
HETATM    2  C5  UNL     1      15.421  82.094  24.863  1.00  0.00     0.237 C 
BRANCH   2   3
HETATM    3  C4  UNL     1      15.475  83.581  24.590  1.00  0.00     0.096 C 
BRANCH   3   4
HETATM    4  C3  UNL     1      16.763  84.036  24.041  1.00  0.00     0.044 A 
HETATM    5  C2  UNL     1      17.735  83.324  23.398  1.00  0.00     0.131 A 
HETATM    6  N2  UNL     1      18.740  84.167  23.077  1.00  0.00    -0.200 N 
HETATM    7  C1  UNL     1      18.405  85.396  23.513  1.00  0.00     0.675 A 
ATOM      8  H2  UNL     1      19.601  83.917  22.590  1.00  0.00     0.183 HD
HETATM    9  N8  UNL     1      17.202  85.309  24.098  1.00  0.00    -0.194 N 
ATOM     10  H8  UNL     1      16.697  86.087  24.520  1.00  0.00     0.184 HD
BRANCH   7  11
HETATM   11  N1  UNL     1      19.121  86.438  23.381  1.00  0.00    -0.234 N 
ATOM     12  H12 UNL     1      18.983  87.342  23.834  1.00  0.00     0.174 HD
ATOM     13  H11 UNL     1      19.949  86.510  22.790  1.00  0.00     0.174 HD
ENDBRANCH   7  11
ENDBRANCH   3   4
ENDBRANCH   2   3
BRANCH   2  14
HETATM   14  N3  UNL     1      14.143  81.568  24.511  1.00  0.00    -0.070 N 
ATOM     15  H33 UNL     1      13.395  81.981  25.069  1.00  0.00     0.274 HD
ATOM     16  H32 UNL     1      13.840  81.890  23.591  1.00  0.00     0.274 HD
ATOM     17  H31 UNL     1      14.146  80.550  24.574  1.00  0.00     0.274 HD
ENDBRANCH   2  14
ENDBRANCH   1   2
BRANCH   1  18
HETATM   18  O1  UNL     1      14.618  81.161  26.829  1.00  0.00    -0.375 OA
ATOM     19  H1  UNL     1      14.121  81.893  27.174  1.00  0.00     0.212 HD
ENDBRANCH   1  18
BRANCH   1  20
HETATM   20  N4  UNL     1      16.801  80.805  26.398  1.00  0.00    -0.380 N 
ATOM     21  H4  UNL     1      17.765  81.078  26.204  1.00  0.00     0.157 HD
BRANCH  20  22
HETATM   22  C7  UNL     1      16.544  79.480  26.771  1.00  0.00     0.241 C 
BRANCH  22  23
HETATM   23  N5  UNL     1      16.255  78.615  25.621  1.00  0.00    -0.369 N 
ATOM     24  H5  UNL     1      16.894  78.558  24.828  1.00  0.00     0.161 HD
BRANCH  23  25
HETATM   25  C8  UNL     1      15.064  77.867  25.654  1.00  0.00     0.201 C 
BRANCH  25  26
HETATM   26  N6  UNL     1      13.968  78.187  26.206  1.00  0.00    -0.262 N 
ATOM     27  H6  UNL     1      13.783  77.741  27.105  1.00  0.00     0.195 HD
BRANCH  26  28
HETATM   28  O2  UNL     1      13.013  79.034  25.773  1.00  0.00    -0.274 OA
BRANCH  28  29
HETATM   29  C9  UNL     1      11.709  78.735  25.374  1.00  0.00     0.154 C 
HETATM   30  C10 UNL     1      11.094  77.546  26.040  1.00  0.00     0.036 C 
HETATM   31  C11 UNL     1      10.561  76.723  24.887  1.00  0.00     0.035 C 
HETATM   32  C12 UNL     1      11.684  76.933  23.866  1.00  0.00     0.186 C 
HETATM   33  C13 UNL     1      11.751  78.459  23.884  1.00  0.00     0.067 C 
BRANCH  32  34
HETATM   34  N7  UNL     1      11.346  76.414  22.571  1.00  0.00    -0.075 N 
ATOM     35  H73 UNL     1      11.007  75.454  22.637  1.00  0.00     0.274 HD
ATOM     36  H72 UNL     1      10.505  76.859  22.204  1.00  0.00     0.274 HD
ATOM     37  H71 UNL     1      12.119  76.487  21.911  1.00  0.00     0.274 HD
ENDBRANCH  32  34
ENDBRANCH  28  29
ENDBRANCH  26  28
ENDBRANCH  25  26
ENDBRANCH  23  25
ENDBRANCH  22  23
ENDBRANCH  20  22
ENDBRANCH   1  20
TORSDOF 14
ENDMDL
MODEL 3
REMARK VINA RESULT: -8.107795474      2.120      3.696
REMARK  14 active torsions:
REMARK  status: ('A' for Active; 'I' for Inactive)
REMARK    1  A    between atoms: N1_1  and  C1_4 
REMARK    2  A    between atoms: C3_8  and  C4_9 
REMARK    3  A    between atoms: C4_9  and  C5_10 
REMARK    4  A    between atoms: C5_10  and  N3_11 
REMARK    5  A    between atoms: C5_10  and  C6_15 
REMARK    6  A    between atoms: C6_15  and  O1_16 
REMARK    7  A    between atoms: C6_15  and  N4_18 
REMARK    8  A    between atoms: N4_18  and  C7_20 
REMARK    9  A    between atoms: C7_20  and  N5_21 
REMARK   10  A    between atoms: N5_21  and  C8_23 
REMARK   11  A    between atoms: C8_23  and  N6_24 
REMARK   12  A    between atoms: N6_24  and  O2_26 
REMARK   13  A    between atoms: O2_26  and  C9_27 
REMARK   14  A    between atoms: C12_30  and  N7_31 
ROOT
HETATM    1  C6  UNL     1      16.460  78.017  26.559  1.00  0.00     0.245 C 
ENDROOT
BRANCH   1   2
HETATM    2  C5  UNL     1      15.511  77.739  25.429  1.00  0.00     0.237 C 
BRANCH   2   3
HETATM    3  C4  UNL     1      14.171  77.241  25.925  1.00  0.00     0.096 C 
BRANCH   3   4
HETATM    4  C3  UNL     1      13.043  78.114  25.560  1.00  0.00     0.044 A 
HETATM    5  C2  UNL     1      12.447  78.304  24.347  1.00  0.00     0.131 A 
HETATM    6  N2  UNL     1      11.449  79.203  24.496  1.00  0.00    -0.200 N 
HETATM    7  C1  UNL     1      11.418  79.575  25.789  1.00  0.00     0.675 A 
ATOM      8  H2  UNL     1      10.830  79.540  23.759  1.00  0.00     0.183 HD
HETATM    9  N8  UNL     1      12.389  78.909  26.431  1.00  0.00    -0.194 N 
ATOM     10  H8  UNL     1      12.600  78.992  27.425  1.00  0.00     0.184 HD
BRANCH   7  11
HETATM   11  N1  UNL     1      10.603  80.412  26.289  1.00  0.00    -0.234 N 
ATOM     12  H12 UNL     1       9.591  80.311  26.374  1.00  0.00     0.174 HD
ATOM     13  H11 UNL     1      10.859  81.318  26.680  1.00  0.00     0.174 HD
ENDBRANCH   7  11
ENDBRANCH   3   4
ENDBRANCH   2   3
BRANCH   2  14
HETATM   14  N3  UNL     1      16.057  76.832  24.474  1.00  0.00    -0.070 N 
ATOM     15  H33 UNL     1      15.668  75.894  24.574  1.00  0.00     0.274 HD
ATOM     16  H32 UNL     1      15.729  77.032  23.529  1.00  0.00     0.274 HD
ATOM     17  H31 UNL     1      17.076  76.828  24.528  1.00  0.00     0.274 HD
ENDBRANCH   2  14
ENDBRANCH   1   2
BRANCH   1  18
HETATM   18  O1  UNL     1      17.659  77.311  26.192  1.00  0.00    -0.375 OA
ATOM     19  H1  UNL     1      18.089  77.890  25.574  1.00  0.00     0.212 HD
ENDBRANCH   1  18
BRANCH   1  20
HETATM   20  N4  UNL     1      16.838  79.353  26.676  1.00  0.00    -0.380 N 
ATOM     21  H4  UNL     1      17.807  79.567  26.911  1.00  0.00     0.157 HD
BRANCH  20  22
HETATM   22  C7  UNL     1      15.947  80.417  26.486  1.00  0.00     0.241 C 
BRANCH  22  23
HETATM   23  N5  UNL     1      16.494  81.464  25.616  1.00  0.00    -0.369 N 
ATOM     24  H5  UNL     1      17.298  81.286  25.014  1.00  0.00     0.161 HD
BRANCH  23  25
HETATM   25  C8  UNL     1      15.867  82.724  25.642  1.00  0.00     0.201 C 
BRANCH  25  26
HETATM   26  N6  UNL     1      16.374  83.829  26.002  1.00  0.00    -0.262 N 
ATOM     27  H6  UNL     1      16.169  84.115  26.960  1.00  0.00     0.195 HD
BRANCH  26  28
HETATM   28  O2  UNL     1      17.146  84.680  25.297  1.00  0.00    -0.274 OA
BRANCH  28  29
HETATM   29  C9  UNL     1      17.168  84.885  23.917  1.00  0.00     0.154 C 
HETATM   30  C10 UNL     1      18.021  83.932  23.143  1.00  0.00     0.036 C 
HETATM   31  C11 UNL     1      18.873  84.835  22.276  1.00  0.00     0.035 C 
HETATM   32  C12 UNL     1      19.142  85.978  23.261  1.00  0.00     0.186 C 
HETATM   33  C13 UNL     1      17.706  86.283  23.683  1.00  0.00     0.067 C 
BRANCH  32  34
HETATM   34  N7  UNL     1      19.780  87.099  22.632  1.00  0.00    -0.075 N 
ATOM     35  H73 UNL     1      19.247  87.420  21.823  1.00  0.00     0.274 HD
ATOM     36  H72 UNL     1      19.714  87.934  23.213  1.00  0.00     0.274 HD
ATOM     37  H71 UNL     1      20.748  86.902  22.379  1.00  0.00     0.274 HD
ENDBRANCH  32  34
ENDBRANCH  28  29
ENDBRANCH  26  28
ENDBRANCH  25  26
ENDBRANCH  23  25
ENDBRANCH  22  23
ENDBRANCH  20  22
ENDBRANCH   1  20
TORSDOF 14
ENDMDL
MODEL 4
REMARK VINA RESULT: -7.976550282      2.444      8.427
REMARK  14 active torsions:
REMARK  status: ('A' for Active; 'I' for Inactive)
REMARK    1  A    between atoms: N1_1  and  C1_4 
REMARK    2  A    between atoms: C3_8  and  C4_9 
REMARK    3  A    between atoms: C4_9  and  C5_10 
REMARK    4  A    between atoms: C5_10  and  N3_11 
REMARK    5  A    between atoms: C5_10  and  C6_15 
REMARK    6  A    between atoms: C6_15  and  O1_16 
REMARK    7  A    between atoms: C6_15  and  N4_18 
REMARK    8  A    between atoms: N4_18  and  C7_20 
REMARK    9  A    between atoms: C7_20  and  N5_21 
REMARK   10  A    between atoms: N5_21  and  C8_23 
REMARK   11  A    between atoms: C8_23  and  N6_24 
REMARK   12  A    between atoms: N6_24  and  O2_26 
REMARK   13  A    between atoms: O2_26  and  C9_27 
REMARK   14  A    between atoms: C12_30  and  N7_31 
ROOT
HETATM    1  C6  UNL     1      16.097  81.112  25.244  1.00  0.00     0.245 C 
ENDROOT
BRANCH   1   2
HETATM    2  C5  UNL     1      15.716  82.137  24.214  1.00  0.00     0.237 C 
BRANCH   2   3
HETATM    3  C4  UNL     1      16.011  83.546  24.681  1.00  0.00     0.096 C 
BRANCH   3   4
HETATM    4  C3  UNL     1      17.166  84.163  24.009  1.00  0.00     0.044 A 
HETATM    5  C2  UNL     1      18.131  83.587  23.233  1.00  0.00     0.131 A 
HETATM    6  N2  UNL     1      18.990  84.550  22.834  1.00  0.00    -0.200 N 
HETATM    7  C1  UNL     1      18.571  85.719  23.353  1.00  0.00     0.675 A 
ATOM      8  H2  UNL     1      19.812  84.415  22.244  1.00  0.00     0.183 HD
HETATM    9  N8  UNL     1      17.462  85.477  24.065  1.00  0.00    -0.194 N 
ATOM     10  H8  UNL     1      16.924  86.179  24.572  1.00  0.00     0.184 HD
BRANCH   7  11
HETATM   11  N1  UNL     1      19.144  86.841  23.183  1.00  0.00    -0.234 N 
ATOM     12  H12 UNL     1      19.769  87.104  22.420  1.00  0.00     0.174 HD
ATOM     13  H11 UNL     1      19.052  87.646  23.802  1.00  0.00     0.174 HD
ENDBRANCH   7  11
ENDBRANCH   3   4
ENDBRANCH   2   3
BRANCH   2  14
HETATM   14  N3  UNL     1      14.353  82.020  23.812  1.00  0.00    -0.070 N 
ATOM     15  H33 UNL     1      14.145  82.601  23.000  1.00  0.00     0.274 HD
ATOM     16  H32 UNL     1      14.154  81.108  23.401  1.00  0.00     0.274 HD
ATOM     17  H31 UNL     1      13.732  82.226  24.596  1.00  0.00     0.274 HD
ENDBRANCH   2  14
ENDBRANCH   1   2
BRANCH   1  18
HETATM   18  O1  UNL     1      16.129  81.850  26.479  1.00  0.00    -0.375 OA
ATOM     19  H1  UNL     1      17.048  81.866  26.716  1.00  0.00     0.212 HD
ENDBRANCH   1  18
BRANCH   1  20
HETATM   20  N4  UNL     1      15.148  80.110  25.435  1.00  0.00    -0.380 N 
ATOM     21  H4  UNL     1      14.603  79.797  24.632  1.00  0.00     0.157 HD
BRANCH  20  22
HETATM   22  C7  UNL     1      14.909  79.513  26.679  1.00  0.00     0.241 C 
BRANCH  22  23
HETATM   23  N5  UNL     1      13.669  79.989  27.304  1.00  0.00    -0.369 N 
ATOM     24  H5  UNL     1      13.487  79.843  28.297  1.00  0.00     0.161 HD
BRANCH  23  25
HETATM   25  C8  UNL     1      12.741  80.653  26.481  1.00  0.00     0.201 C 
BRANCH  25  26
HETATM   26  N6  UNL     1      11.592  80.247  26.131  1.00  0.00    -0.262 N 
ATOM     27  H6  UNL     1      10.814  80.592  26.693  1.00  0.00     0.195 HD
BRANCH  26  28
HETATM   28  O2  UNL     1      11.254  79.421  25.120  1.00  0.00    -0.274 OA
BRANCH  28  29
HETATM   29  C9  UNL     1      11.858  78.219  24.747  1.00  0.00     0.154 C 
HETATM   30  C10 UNL     1      11.636  77.806  23.328  1.00  0.00     0.036 C 
HETATM   31  C11 UNL     1      11.169  76.371  23.440  1.00  0.00     0.035 C 
HETATM   32  C12 UNL     1      10.289  76.472  24.691  1.00  0.00     0.186 C 
HETATM   33  C13 UNL     1      11.284  77.137  25.639  1.00  0.00     0.067 C 
BRANCH  32  34
HETATM   34  N7  UNL     1       9.859  75.185  25.159  1.00  0.00    -0.075 N 
ATOM     35  H73 UNL     1       9.739  74.533  24.384  1.00  0.00     0.274 HD
ATOM     36  H72 UNL     1      10.607  74.707  25.660  1.00  0.00     0.274 HD
ATOM     37  H71 UNL     1       9.013  75.242  25.726  1.00  0.00     0.274 HD
ENDBRANCH  32  34
ENDBRANCH  28  29
ENDBRANCH  26  28
ENDBRANCH  25  26
ENDBRANCH  23  25
ENDBRANCH  22  23
ENDBRANCH  20  22
ENDBRANCH   1  20
TORSDOF 14
ENDMDL
MODEL 5
REMARK VINA RESULT: -7.965608031      2.480      3.861
REMARK  14 active torsions:
REMARK  status: ('A' for Active; 'I' for Inactive)
REMARK    1  A    between atoms: N1_1  and  C1_4 
REMARK    2  A    between atoms: C3_8  and  C4_9 
REMARK    3  A    between atoms: C4_9  and  C5_10 
REMARK    4  A    between atoms: C5_10  and  N3_11 
REMARK    5  A    between atoms: C5_10  and  C6_15 
REMARK    6  A    between atoms: C6_15  and  O1_16 
REMARK    7  A    between atoms: C6_15  and  N4_18 
REMARK    8  A    between atoms: N4_18  and  C7_20 
REMARK    9  A    between atoms: C7_20  and  N5_21 
REMARK   10  A    between atoms: N5_21  and  C8_23 
REMARK   11  A    between atoms: C8_23  and  N6_24 
REMARK   12  A    between atoms: N6_24  and  O2_26 
REMARK   13  A    between atoms: O2_26  and  C9_27 
REMARK   14  A    between atoms: C12_30  and  N7_31 
ROOT
HETATM    1  C6  UNL     1      16.218  79.998  26.446  1.00  0.00     0.245 C 
ENDROOT
BRANCH   1   2
HETATM    2  C5  UNL     1      16.020  78.541  26.138  1.00  0.00     0.237 C 
BRANCH   2   3
HETATM    3  C4  UNL     1      14.777  77.987  26.800  1.00  0.00     0.096 C 
BRANCH   3   4
HETATM    4  C3  UNL     1      13.522  78.473  26.203  1.00  0.00     0.044 A 
HETATM    5  C2  UNL     1      12.937  78.141  25.015  1.00  0.00     0.131 A 
HETATM    6  N2  UNL     1      11.791  78.845  24.890  1.00  0.00    -0.200 N 
HETATM    7  C1  UNL     1      11.656  79.613  25.988  1.00  0.00     0.675 A 
ATOM      8  H2  UNL     1      11.143  78.803  24.104  1.00  0.00     0.183 HD
HETATM    9  N8  UNL     1      12.711  79.382  26.782  1.00  0.00    -0.194 N 
ATOM     10  H8  UNL     1      12.875  79.825  27.685  1.00  0.00     0.184 HD
BRANCH   7  11
HETATM   11  N1  UNL     1      10.689  80.408  26.209  1.00  0.00    -0.234 N 
ATOM     12  H12 UNL     1      10.658  81.165  26.892  1.00  0.00     0.174 HD
ATOM     13  H11 UNL     1       9.795  80.393  25.719  1.00  0.00     0.174 HD
ENDBRANCH   7  11
ENDBRANCH   3   4
ENDBRANCH   2   3
BRANCH   2  14
HETATM   14  N3  UNL     1      17.159  77.755  26.482  1.00  0.00    -0.070 N 
ATOM     15  H33 UNL     1      17.220  76.907  25.917  1.00  0.00     0.274 HD
ATOM     16  H32 UNL     1      18.029  78.197  26.186  1.00  0.00     0.274 HD
ATOM     17  H31 UNL     1      17.160  77.547  27.481  1.00  0.00     0.274 HD
ENDBRANCH   2  14
ENDBRANCH   1   2
BRANCH   1  18
HETATM   18  O1  UNL     1      17.527  80.055  27.044  1.00  0.00    -0.375 OA
ATOM     19  H1  UNL     1      17.852  80.915  26.808  1.00  0.00     0.212 HD
ENDBRANCH   1  18
BRANCH   1  20
HETATM   20  N4  UNL     1      16.288  80.818  25.322  1.00  0.00    -0.380 N 
ATOM     21  H4  UNL     1      16.857  81.663  25.371  1.00  0.00     0.157 HD
BRANCH  20  22
HETATM   22  C7  UNL     1      15.612  80.535  24.128  1.00  0.00     0.241 C 
BRANCH  22  23
HETATM   23  N5  UNL     1      14.491  81.450  23.883  1.00  0.00    -0.369 N 
ATOM     24  H5  UNL     1      13.750  81.214  23.224  1.00  0.00     0.161 HD
BRANCH  23  25
HETATM   25  C8  UNL     1      14.478  82.665  24.593  1.00  0.00     0.201 C 
BRANCH  25  26
HETATM   26  N6  UNL     1      15.249  83.659  24.433  1.00  0.00    -0.262 N 
ATOM     27  H6  UNL     1      14.930  84.534  24.849  1.00  0.00     0.195 HD
BRANCH  26  28
HETATM   28  O2  UNL     1      16.432  83.722  23.790  1.00  0.00    -0.274 OA
BRANCH  28  29
HETATM   29  C9  UNL     1      17.559  84.475  24.125  1.00  0.00     0.154 C 
HETATM   30  C10 UNL     1      17.313  85.934  24.339  1.00  0.00     0.036 C 
HETATM   31  C11 UNL     1      18.363  86.605  23.481  1.00  0.00     0.035 C 
HETATM   32  C12 UNL     1      18.355  85.670  22.266  1.00  0.00     0.186 C 
HETATM   33  C13 UNL     1      18.545  84.335  22.982  1.00  0.00     0.067 C 
BRANCH  32  34
HETATM   34  N7  UNL     1      19.423  85.959  21.351  1.00  0.00    -0.075 N 
ATOM     35  H73 UNL     1      19.263  86.842  20.865  1.00  0.00     0.274 HD
ATOM     36  H72 UNL     1      20.280  86.200  21.849  1.00  0.00     0.274 HD
ATOM     37  H71 UNL     1      19.582  85.199  20.690  1.00  0.00     0.274 HD
ENDBRANCH  32  34
ENDBRANCH  28  29
ENDBRANCH  26  28
ENDBRANCH  25  26
ENDBRANCH  23  25
ENDBRANCH  22  23
ENDBRANCH  20  22
ENDBRANCH   1  20
TORSDOF 14
ENDMDL
