MODEL 1
REMARK VINA RESULT: -8.237850686      0.000      0.000
REMARK  10 active torsions:
REMARK  status: ('A' for Active; 'I' for Inactive)
REMARK       I    between atoms: C1_4  and  N3_6 
REMARK    1  A    between atoms: N3_6  and  C2_8 
REMARK    2  A    between atoms: C2_8  and  C3_9 
REMARK    3  A    between atoms: C2_8  and  C11_24 
REMARK    4  A    between atoms: C3_9  and  O1_10 
REMARK    5  A    between atoms: O1_10  and  C4_11 
REMARK    6  A    between atoms: C8_17  and  N5_18 
REMARK    7  A    between atoms: N5_18  and  C9_20 
REMARK    8  A    between atoms: C9_20  and  C10_21 
REMARK    9  A    between atoms: C11_24  and  N6_25 
REMARK   10  A    between atoms: C11_24  and  C12_29 
ROOT
HETATM    1  C2  UNL     1      15.962  77.263  26.573  1.00  0.00     0.149 C 
ENDROOT
BRANCH   1   2
HETATM    2  N3  UNL     1      16.924  76.208  26.859  1.00  0.00    -0.356 N 
HETATM    3  C1  UNL     1      17.678  76.127  28.048  1.00  0.00     0.182 C 
HETATM    4  N1  UNL     1      18.946  76.296  28.026  1.00  0.00    -0.374 N 
HETATM    5  N2  UNL     1      17.030  75.858  29.273  1.00  0.00    -0.064 NA
ATOM      6  H12 UNL     1      19.491  76.238  28.886  1.00  0.00     0.158 HD
ATOM      7  H11 UNL     1      19.414  76.491  27.141  1.00  0.00     0.158 HD
ATOM      8  H3  UNL     1      17.061  75.483  26.155  1.00  0.00     0.162 HD
ENDBRANCH   1   2
BRANCH   1   9
HETATM    9  C3  UNL     1      16.619  78.599  26.451  1.00  0.00     0.203 C 
BRANCH   9  10
HETATM   10  O1  UNL     1      15.801  79.634  27.018  1.00  0.00    -0.345 OA
BRANCH  10  11
HETATM   11  C4  UNL     1      15.414  80.694  26.209  1.00  0.00     0.112 A 
HETATM   12  C5  UNL     1      16.345  81.497  25.589  1.00  0.00     0.042 A 
HETATM   13  C6  UNL     1      15.882  82.529  24.802  1.00  0.00     0.020 A 
HETATM   14  C7  UNL     1      14.517  82.727  24.660  1.00  0.00     0.090 A 
HETATM   15  N4  UNL     1      13.654  81.916  25.286  1.00  0.00    -0.350 N 
HETATM   16  C8  UNL     1      14.041  80.896  26.063  1.00  0.00     0.135 A 
ATOM     17  H4  UNL     1      12.655  82.083  25.165  1.00  0.00     0.166 HD
BRANCH  16  18
HETATM   18  N5  UNL     1      13.092  80.067  26.717  1.00  0.00    -0.364 N 
ATOM     19  H5  UNL     1      12.858  80.235  27.695  1.00  0.00     0.161 HD
BRANCH  18  20
HETATM   20  C9  UNL     1      12.465  79.000  26.008  1.00  0.00     0.234 C 
BRANCH  20  21
HETATM   21  C10 UNL     1      11.281  79.359  25.225  1.00  0.00     0.191 C 
HETATM   22  O2  UNL     1      10.364  80.024  25.758  1.00  0.00    -0.647 OA
HETATM   23  O3  UNL     1      11.099  79.005  23.896  1.00  0.00    -0.647 OA
ENDBRANCH  20  21
ENDBRANCH  18  20
ENDBRANCH  16  18
ENDBRANCH  10  11
ENDBRANCH   9  10
ENDBRANCH   1   9
BRANCH   1  24
HETATM   24  C11 UNL     1      15.276  76.919  25.265  1.00  0.00     0.307 C 
BRANCH  24  25
HETATM   25  N6  UNL     1      15.714  77.921  24.261  1.00  0.00    -0.063 N 
ATOM     26  H63 UNL     1      16.455  78.532  24.604  1.00  0.00     0.275 HD
ATOM     27  H62 UNL     1      16.231  77.509  23.486  1.00  0.00     0.275 HD
ATOM     28  H61 UNL     1      14.883  78.432  23.961  1.00  0.00     0.275 HD
ENDBRANCH  24  25
BRANCH  24  29
HETATM   29  C12 UNL     1      15.631  75.607  24.724  1.00  0.00     0.206 C 
HETATM   30  O4  UNL     1      16.487  75.508  23.819  1.00  0.00    -0.646 OA
HETATM   31  O5  UNL     1      15.010  74.478  25.215  1.00  0.00    -0.646 OA
ENDBRANCH  24  29
ENDBRANCH   1  24
TORSDOF 10
ENDMDL
MODEL 2
REMARK VINA RESULT: -7.824114103      1.797      3.128
REMARK  10 active torsions:
REMARK  status: ('A' for Active; 'I' for Inactive)
REMARK       I    between atoms: C1_4  and  N3_6 
REMARK    1  A    between atoms: N3_6  and  C2_8 
REMARK    2  A    between atoms: C2_8  and  C3_9 
REMARK    3  A    between atoms: C2_8  and  C11_24 
REMARK    4  A    between atoms: C3_9  and  O1_10 
REMARK    5  A    between atoms: O1_10  and  C4_11 
REMARK    6  A    between atoms: C8_17  and  N5_18 
REMARK    7  A    between atoms: N5_18  and  C9_20 
REMARK    8  A    between atoms: C9_20  and  C10_21 
REMARK    9  A    between atoms: C11_24  and  N6_25 
REMARK   10  A    between atoms: C11_24  and  C12_29 
ROOT
HETATM    1  C2  UNL     1      17.046  77.136  26.678  1.00  0.00     0.149 C 
ENDROOT
BRANCH   1   2
HETATM    2  N3  UNL     1      15.836  76.551  26.120  1.00  0.00    -0.356 N 
HETATM    3  C1  UNL     1      15.649  76.280  24.748  1.00  0.00     0.182 C 
HETATM    4  N1  UNL     1      14.789  76.939  24.068  1.00  0.00    -0.374 N 
HETATM    5  N2  UNL     1      16.417  75.276  24.120  1.00  0.00    -0.064 NA
ATOM      6  H12 UNL     1      14.654  76.743  23.076  1.00  0.00     0.158 HD
ATOM      7  H11 UNL     1      14.235  77.665  24.521  1.00  0.00     0.158 HD
ATOM      8  H3  UNL     1      15.076  76.322  26.760  1.00  0.00     0.162 HD
ENDBRANCH   1   2
BRANCH   1   9
HETATM    9  C3  UNL     1      16.768  78.421  27.387  1.00  0.00     0.203 C 
BRANCH   9  10
HETATM   10  O1  UNL     1      15.412  78.847  27.179  1.00  0.00    -0.345 OA
BRANCH  10  11
HETATM   11  C4  UNL     1      15.184  80.005  26.450  1.00  0.00     0.112 A 
HETATM   12  C5  UNL     1      16.226  80.754  25.952  1.00  0.00     0.042 A 
HETATM   13  C6  UNL     1      15.918  81.892  25.239  1.00  0.00     0.020 A 
HETATM   14  C7  UNL     1      14.590  82.245  25.045  1.00  0.00     0.090 A 
HETATM   15  N4  UNL     1      13.614  81.480  25.552  1.00  0.00    -0.350 N 
HETATM   16  C8  UNL     1      13.849  80.363  26.253  1.00  0.00     0.135 A 
ATOM     17  H4  UNL     1      12.646  81.762  25.396  1.00  0.00     0.166 HD
BRANCH  16  18
HETATM   18  N5  UNL     1      12.784  79.588  26.781  1.00  0.00    -0.364 N 
ATOM     19  H5  UNL     1      12.887  79.131  27.687  1.00  0.00     0.161 HD
BRANCH  18  20
HETATM   20  C9  UNL     1      11.570  79.446  26.048  1.00  0.00     0.234 C 
BRANCH  20  21
HETATM   21  C10 UNL     1      11.620  78.548  24.892  1.00  0.00     0.191 C 
HETATM   22  O2  UNL     1      12.020  77.371  25.039  1.00  0.00    -0.647 OA
HETATM   23  O3  UNL     1      11.244  78.920  23.609  1.00  0.00    -0.647 OA
ENDBRANCH  20  21
ENDBRANCH  18  20
ENDBRANCH  16  18
ENDBRANCH  10  11
ENDBRANCH   9  10
ENDBRANCH   1   9
BRANCH   1  24
HETATM   24  C11 UNL     1      17.631  76.138  27.659  1.00  0.00     0.307 C 
BRANCH  24  25
HETATM   25  N6  UNL     1      18.405  75.147  26.870  1.00  0.00    -0.063 N 
ATOM     26  H63 UNL     1      18.609  74.294  27.391  1.00  0.00     0.275 HD
ATOM     27  H62 UNL     1      17.859  74.717  26.123  1.00  0.00     0.275 HD
ATOM     28  H61 UNL     1      19.244  75.618  26.531  1.00  0.00     0.275 HD
ENDBRANCH  24  25
BRANCH  24  29
HETATM   29  C12 UNL     1      18.564  76.717  28.626  1.00  0.00     0.206 C 
HETATM   30  O4  UNL     1      19.607  77.285  28.236  1.00  0.00    -0.646 OA
HETATM   31  O5  UNL     1      18.287  76.629  29.974  1.00  0.00    -0.646 OA
ENDBRANCH  24  29
ENDBRANCH   1  24
TORSDOF 10
ENDMDL
MODEL 3
REMARK VINA RESULT: -7.640647329      2.313      3.534
REMARK  10 active torsions:
REMARK  status: ('A' for Active; 'I' for Inactive)
REMARK       I    between atoms: C1_4  and  N3_6 
REMARK    1  A    between atoms: N3_6  and  C2_8 
REMARK    2  A    between atoms: C2_8  and  C3_9 
REMARK    3  A    between atoms: C2_8  and  C11_24 
REMARK    4  A    between atoms: C3_9  and  O1_10 
REMARK    5  A    between atoms: O1_10  and  C4_11 
REMARK    6  A    between atoms: C8_17  and  N5_18 
REMARK    7  A    between atoms: N5_18  and  C9_20 
REMARK    8  A    between atoms: C9_20  and  C10_21 
REMARK    9  A    between atoms: C11_24  and  N6_25 
REMARK   10  A    between atoms: C11_24  and  C12_29 
ROOT
HETATM    1  C2  UNL     1      17.720  76.045  27.124  1.00  0.00     0.149 C 
ENDROOT
BRANCH   1   2
HETATM    2  N3  UNL     1      17.939  74.609  27.031  1.00  0.00    -0.356 N 
HETATM    3  C1  UNL     1      18.174  73.923  25.821  1.00  0.00     0.182 C 
HETATM    4  N1  UNL     1      17.309  73.099  25.363  1.00  0.00    -0.374 N 
HETATM    5  N2  UNL     1      19.373  74.145  25.110  1.00  0.00    -0.064 NA
ATOM      6  H12 UNL     1      17.479  72.603  24.488  1.00  0.00     0.158 HD
ATOM      7  H11 UNL     1      16.443  72.939  25.877  1.00  0.00     0.158 HD
ATOM      8  H3  UNL     1      17.922  74.065  27.893  1.00  0.00     0.162 HD
ENDBRANCH   1   2
BRANCH   1   9
HETATM    9  C3  UNL     1      16.535  76.481  26.325  1.00  0.00     0.203 C 
BRANCH   9  10
HETATM   10  O1  UNL     1      15.627  77.256  27.124  1.00  0.00    -0.345 OA
BRANCH  10  11
HETATM   11  C4  UNL     1      15.407  78.583  26.781  1.00  0.00     0.112 A 
HETATM   12  C5  UNL     1      16.442  79.488  26.725  1.00  0.00     0.042 A 
HETATM   13  C6  UNL     1      16.142  80.787  26.377  1.00  0.00     0.020 A 
HETATM   14  C7  UNL     1      14.830  81.141  26.100  1.00  0.00     0.090 A 
HETATM   15  N4  UNL     1      13.860  80.220  26.170  1.00  0.00    -0.350 N 
HETATM   16  C8  UNL     1      14.087  78.941  26.501  1.00  0.00     0.135 A 
ATOM     17  H4  UNL     1      12.903  80.505  25.961  1.00  0.00     0.166 HD
BRANCH  16  18
HETATM   18  N5  UNL     1      13.027  78.000  26.574  1.00  0.00    -0.364 N 
ATOM     19  H5  UNL     1      12.774  77.587  27.471  1.00  0.00     0.161 HD
BRANCH  18  20
HETATM   20  C9  UNL     1      12.316  77.631  25.395  1.00  0.00     0.234 C 
BRANCH  20  21
HETATM   21  C10 UNL     1      11.411  78.645  24.848  1.00  0.00     0.191 C 
HETATM   22  O2  UNL     1      11.176  78.667  23.618  1.00  0.00    -0.647 OA
HETATM   23  O3  UNL     1      10.777  79.609  25.618  1.00  0.00    -0.647 OA
ENDBRANCH  20  21
ENDBRANCH  18  20
ENDBRANCH  16  18
ENDBRANCH  10  11
ENDBRANCH   9  10
ENDBRANCH   1   9
BRANCH   1  24
HETATM   24  C11 UNL     1      17.493  76.382  28.585  1.00  0.00     0.307 C 
BRANCH  24  25
HETATM   25  N6  UNL     1      16.862  75.197  29.218  1.00  0.00    -0.063 N 
ATOM     26  H63 UNL     1      16.773  75.285  30.230  1.00  0.00     0.275 HD
ATOM     27  H62 UNL     1      15.869  75.111  29.006  1.00  0.00     0.275 HD
ATOM     28  H61 UNL     1      17.403  74.379  28.935  1.00  0.00     0.275 HD
ENDBRANCH  24  25
BRANCH  24  29
HETATM   29  C12 UNL     1      18.716  76.654  29.340  1.00  0.00     0.206 C 
HETATM   30  O4  UNL     1      19.771  76.963  28.745  1.00  0.00    -0.646 OA
HETATM   31  O5  UNL     1      18.701  76.561  30.716  1.00  0.00    -0.646 OA
ENDBRANCH  24  29
ENDBRANCH   1  24
TORSDOF 10
ENDMDL
MODEL 4
REMARK VINA RESULT: -7.542979148      2.304      4.835
REMARK  10 active torsions:
REMARK  status: ('A' for Active; 'I' for Inactive)
REMARK       I    between atoms: C1_4  and  N3_6 
REMARK    1  A    between atoms: N3_6  and  C2_8 
REMARK    2  A    between atoms: C2_8  and  C3_9 
REMARK    3  A    between atoms: C2_8  and  C11_24 
REMARK    4  A    between atoms: C3_9  and  O1_10 
REMARK    5  A    between atoms: O1_10  and  C4_11 
REMARK    6  A    between atoms: C8_17  and  N5_18 
REMARK    7  A    between atoms: N5_18  and  C9_20 
REMARK    8  A    between atoms: C9_20  and  C10_21 
REMARK    9  A    between atoms: C11_24  and  N6_25 
REMARK   10  A    between atoms: C11_24  and  C12_29 
ROOT
HETATM    1  C2  UNL     1      13.283  78.130  25.575  1.00  0.00     0.149 C 
ENDROOT
BRANCH   1   2
HETATM    2  N3  UNL     1      12.882  76.746  25.376  1.00  0.00    -0.356 N 
HETATM    3  C1  UNL     1      13.070  76.034  24.173  1.00  0.00     0.182 C 
HETATM    4  N1  UNL     1      12.066  75.679  23.464  1.00  0.00    -0.374 N 
HETATM    5  N2  UNL     1      14.376  75.710  23.746  1.00  0.00    -0.064 NA
ATOM      6  H12 UNL     1      12.202  75.165  22.594  1.00  0.00     0.158 HD
ATOM      7  H11 UNL     1      11.123  75.914  23.772  1.00  0.00     0.158 HD
ATOM      8  H3  UNL     1      12.438  76.259  26.154  1.00  0.00     0.162 HD
ENDBRANCH   1   2
BRANCH   1   9
HETATM    9  C3  UNL     1      13.447  78.856  24.280  1.00  0.00     0.203 C 
BRANCH   9  10
HETATM   10  O1  UNL     1      14.791  79.337  24.120  1.00  0.00    -0.345 OA
BRANCH  10  11
HETATM   11  C4  UNL     1      15.090  80.626  24.541  1.00  0.00     0.112 A 
HETATM   12  C5  UNL     1      14.432  81.718  24.023  1.00  0.00     0.042 A 
HETATM   13  C6  UNL     1      14.785  82.964  24.492  1.00  0.00     0.020 A 
HETATM   14  C7  UNL     1      15.777  83.082  25.455  1.00  0.00     0.090 A 
HETATM   15  N4  UNL     1      16.386  81.985  25.926  1.00  0.00    -0.350 N 
HETATM   16  C8  UNL     1      16.087  80.747  25.511  1.00  0.00     0.135 A 
ATOM     17  H4  UNL     1      17.111  82.099  26.634  1.00  0.00     0.166 HD
BRANCH  16  18
HETATM   18  N5  UNL     1      16.764  79.613  26.029  1.00  0.00    -0.364 N 
ATOM     19  H5  UNL     1      17.638  79.304  25.604  1.00  0.00     0.161 HD
BRANCH  18  20
HETATM   20  C9  UNL     1      16.226  78.905  27.143  1.00  0.00     0.234 C 
BRANCH  20  21
HETATM   21  C10 UNL     1      16.365  77.447  27.104  1.00  0.00     0.191 C 
HETATM   22  O2  UNL     1      16.058  76.768  28.111  1.00  0.00    -0.647 OA
HETATM   23  O3  UNL     1      16.824  76.745  25.999  1.00  0.00    -0.647 OA
ENDBRANCH  20  21
ENDBRANCH  18  20
ENDBRANCH  16  18
ENDBRANCH  10  11
ENDBRANCH   9  10
ENDBRANCH   1   9
BRANCH   1  24
HETATM   24  C11 UNL     1      12.205  78.809  26.398  1.00  0.00     0.307 C 
BRANCH  24  25
HETATM   25  N6  UNL     1      12.693  80.173  26.724  1.00  0.00    -0.063 N 
ATOM     26  H63 UNL     1      12.674  80.374  27.724  1.00  0.00     0.275 HD
ATOM     27  H62 UNL     1      13.697  80.281  26.587  1.00  0.00     0.275 HD
ATOM     28  H61 UNL     1      12.141  80.832  26.174  1.00  0.00     0.275 HD
ENDBRANCH  24  25
BRANCH  24  29
HETATM   29  C12 UNL     1      10.931  78.981  25.698  1.00  0.00     0.206 C 
HETATM   30  O4  UNL     1      10.368  80.097  25.676  1.00  0.00    -0.646 OA
HETATM   31  O5  UNL     1      10.351  77.900  25.067  1.00  0.00    -0.646 OA
ENDBRANCH  24  29
ENDBRANCH   1  24
TORSDOF 10
ENDMDL
MODEL 5
REMARK VINA RESULT: -7.518407103      2.663      4.778
REMARK  10 active torsions:
REMARK  status: ('A' for Active; 'I' for Inactive)
REMARK       I    between atoms: C1_4  and  N3_6 
REMARK    1  A    between atoms: N3_6  and  C2_8 
REMARK    2  A    between atoms: C2_8  and  C3_9 
REMARK    3  A    between atoms: C2_8  and  C11_24 
REMARK    4  A    between atoms: C3_9  and  O1_10 
REMARK    5  A    between atoms: O1_10  and  C4_11 
REMARK    6  A    between atoms: C8_17  and  N5_18 
REMARK    7  A    between atoms: N5_18  and  C9_20 
REMARK    8  A    between atoms: C9_20  and  C10_21 
REMARK    9  A    between atoms: C11_24  and  N6_25 
REMARK   10  A    between atoms: C11_24  and  C12_29 
ROOT
HETATM    1  C2  UNL     1      11.890  77.963  24.009  1.00  0.00     0.149 C 
ENDROOT
BRANCH   1   2
HETATM    2  N3  UNL     1      11.688  78.118  25.442  1.00  0.00    -0.356 N 
HETATM    3  C1  UNL     1      11.474  79.357  26.081  1.00  0.00     0.182 C 
HETATM    4  N1  UNL     1      12.353  79.839  26.875  1.00  0.00    -0.374 N 
HETATM    5  N2  UNL     1      10.279  80.071  25.843  1.00  0.00    -0.064 NA
ATOM      6  H12 UNL     1      12.198  80.735  27.337  1.00  0.00     0.158 HD
ATOM      7  H11 UNL     1      13.215  79.323  27.047  1.00  0.00     0.158 HD
ATOM      8  H3  UNL     1      11.703  77.278  26.021  1.00  0.00     0.162 HD
ENDBRANCH   1   2
BRANCH   1   9
HETATM    9  C3  UNL     1      12.792  79.018  23.456  1.00  0.00     0.203 C 
BRANCH   9  10
HETATM   10  O1  UNL     1      14.079  78.988  24.094  1.00  0.00    -0.345 OA
BRANCH  10  11
HETATM   11  C4  UNL     1      14.695  80.192  24.404  1.00  0.00     0.112 A 
HETATM   12  C5  UNL     1      14.143  81.396  24.028  1.00  0.00     0.042 A 
HETATM   13  C6  UNL     1      14.815  82.548  24.373  1.00  0.00     0.020 A 
HETATM   14  C7  UNL     1      16.008  82.465  25.076  1.00  0.00     0.090 A 
HETATM   15  N4  UNL     1      16.501  81.268  25.417  1.00  0.00    -0.350 N 
HETATM   16  C8  UNL     1      15.895  80.112  25.112  1.00  0.00     0.135 A 
ATOM     17  H4  UNL     1      17.380  81.234  25.934  1.00  0.00     0.166 HD
BRANCH  16  18
HETATM   18  N5  UNL     1      16.459  78.864  25.484  1.00  0.00    -0.364 N 
ATOM     19  H5  UNL     1      16.720  78.189  24.766  1.00  0.00     0.161 HD
BRANCH  18  20
HETATM   20  C9  UNL     1      16.661  78.552  26.861  1.00  0.00     0.234 C 
BRANCH  20  21
HETATM   21  C10 UNL     1      15.681  77.646  27.464  1.00  0.00     0.191 C 
HETATM   22  O2  UNL     1      14.465  77.785  27.200  1.00  0.00    -0.647 OA
HETATM   23  O3  UNL     1      16.015  76.615  28.330  1.00  0.00    -0.647 OA
ENDBRANCH  20  21
ENDBRANCH  18  20
ENDBRANCH  16  18
ENDBRANCH  10  11
ENDBRANCH   9  10
ENDBRANCH   1   9
BRANCH   1  24
HETATM   24  C11 UNL     1      12.510  76.599  23.775  1.00  0.00     0.307 C 
BRANCH  24  25
HETATM   25  N6  UNL     1      13.254  76.236  25.008  1.00  0.00    -0.063 N 
ATOM     26  H63 UNL     1      14.121  75.735  24.817  1.00  0.00     0.275 HD
ATOM     27  H62 UNL     1      13.669  77.042  25.475  1.00  0.00     0.275 HD
ATOM     28  H61 UNL     1      12.614  75.713  25.606  1.00  0.00     0.275 HD
ENDBRANCH  24  25
BRANCH  24  29
HETATM   29  C12 UNL     1      11.541  75.527  23.546  1.00  0.00     0.206 C 
HETATM   30  O4  UNL     1      11.764  74.647  22.688  1.00  0.00    -0.646 OA
HETATM   31  O5  UNL     1      10.374  75.497  24.282  1.00  0.00    -0.646 OA
ENDBRANCH  24  29
ENDBRANCH   1  24
TORSDOF 10
ENDMDL
