MODEL 1
REMARK VINA RESULT: -7.856181916      0.000      0.000
REMARK  6 active torsions:
REMARK  status: ('A' for Active; 'I' for Inactive)
REMARK       I    between atoms: N1_1  and  C1_4 
REMARK       I    between atoms: C1_4  and  N2_5 
REMARK       I    between atoms: C1_4  and  N9_25 
REMARK    1  A    between atoms: N2_5  and  N3_7 
REMARK    2  A    between atoms: N3_7  and  C2_9 
REMARK    3  A    between atoms: C2_9  and  C3_10 
REMARK    4  A    between atoms: N6_16  and  N7_18 
REMARK    5  A    between atoms: C5_21  and  N8_22 
REMARK    6  A    between atoms: N9_25  and  N10_27 
ROOT
HETATM    1  C3  UNL     1      17.880  75.349  26.768  1.00  0.00     0.102 A 
HETATM    2  N4  UNL     1      19.013  74.892  27.316  1.00  0.00    -0.295 N 
ATOM      3  H4  UNL     1      19.525  75.370  28.058  1.00  0.00     0.187 HD
HETATM    4  N5  UNL     1      19.384  73.744  26.777  1.00  0.00    -0.282 N 
ATOM      5  H5  UNL     1      20.213  73.204  27.027  1.00  0.00     0.188 HD
HETATM    6  C4  UNL     1      18.476  73.415  25.836  1.00  0.00     0.170 A 
HETATM    7  N6  UNL     1      18.562  72.348  25.137  1.00  0.00    -0.289 N 
ATOM      8  H6  UNL     1      19.362  71.742  25.320  1.00  0.00     0.188 HD
HETATM    9  C5  UNL     1      17.520  74.413  25.815  1.00  0.00     0.178 A 
ENDROOT
BRANCH   1  10
HETATM   10  C2  UNL     1      17.147  76.579  27.082  1.00  0.00     0.141 C 
BRANCH  10  11
HETATM   11  N3  UNL     1      15.921  76.573  27.456  1.00  0.00    -0.295 N 
ATOM     12  H3  UNL     1      15.651  76.084  28.310  1.00  0.00     0.186 HD
BRANCH  11  13
HETATM   13  N2  UNL     1      14.960  77.232  26.701  1.00  0.00    -0.131 N 
HETATM   14  C1  UNL     1      15.393  77.959  25.568  1.00  0.00     0.709 C 
HETATM   15  N1  UNL     1      15.373  77.467  24.366  1.00  0.00    -0.232 N 
HETATM   16  N9  UNL     1      15.872  79.282  25.769  1.00  0.00    -0.071 N 
ATOM     17  H12 UNL     1      15.030  76.518  24.221  1.00  0.00     0.174 HD
ATOM     18  H11 UNL     1      15.686  77.992  23.549  1.00  0.00     0.174 HD
ATOM     19  H9  UNL     1      16.645  79.466  26.408  1.00  0.00     0.212 HD
ATOM     20  H2  UNL     1      13.973  77.193  26.955  1.00  0.00     0.205 HD
BRANCH  16  21
HETATM   21  N10 UNL     1      15.260  80.313  25.077  1.00  0.00    -0.024 N 
HETATM   22  O3  UNL     1      15.923  81.292  24.722  1.00  0.00    -0.516 OA
HETATM   23  O4  UNL     1      13.928  80.246  24.791  1.00  0.00    -0.516 OA
ENDBRANCH  16  21
ENDBRANCH  11  13
ENDBRANCH  10  11
ENDBRANCH   1  10
BRANCH   9  24
HETATM   24  N8  UNL     1      16.392  74.460  24.973  1.00  0.00    -0.109 N 
HETATM   25  O1  UNL     1      15.264  74.348  25.463  1.00  0.00    -0.532 OA
HETATM   26  O2  UNL     1      16.563  74.623  23.631  1.00  0.00    -0.532 OA
ENDBRANCH   9  24
BRANCH   7  27
HETATM   27  N7  UNL     1      17.678  71.932  24.155  1.00  0.00    -0.344 N 
ATOM     28  H72 UNL     1      16.946  72.598  23.911  1.00  0.00     0.176 HD
ATOM     29  H71 UNL     1      17.693  71.038  23.665  1.00  0.00     0.176 HD
ENDBRANCH   7  27
TORSDOF 6
ENDMDL
MODEL 2
REMARK VINA RESULT: -7.794461959      1.142      1.602
REMARK  6 active torsions:
REMARK  status: ('A' for Active; 'I' for Inactive)
REMARK       I    between atoms: N1_1  and  C1_4 
REMARK       I    between atoms: C1_4  and  N2_5 
REMARK       I    between atoms: C1_4  and  N9_25 
REMARK    1  A    between atoms: N2_5  and  N3_7 
REMARK    2  A    between atoms: N3_7  and  C2_9 
REMARK    3  A    between atoms: C2_9  and  C3_10 
REMARK    4  A    between atoms: N6_16  and  N7_18 
REMARK    5  A    between atoms: C5_21  and  N8_22 
REMARK    6  A    between atoms: N9_25  and  N10_27 
ROOT
HETATM    1  C3  UNL     1      18.047  73.995  26.480  1.00  0.00     0.102 A 
HETATM    2  N4  UNL     1      18.985  73.052  26.631  1.00  0.00    -0.295 N 
ATOM      3  H4  UNL     1      19.555  72.939  27.470  1.00  0.00     0.187 HD
HETATM    4  N5  UNL     1      19.081  72.286  25.559  1.00  0.00    -0.282 N 
ATOM      5  H5  UNL     1      19.723  71.503  25.436  1.00  0.00     0.188 HD
HETATM    6  C4  UNL     1      18.180  72.723  24.655  1.00  0.00     0.170 A 
HETATM    7  N6  UNL     1      18.032  72.177  23.509  1.00  0.00    -0.289 N 
ATOM      8  H6  UNL     1      18.635  71.382  23.298  1.00  0.00     0.188 HD
HETATM    9  C5  UNL     1      17.519  73.799  25.216  1.00  0.00     0.178 A 
ENDROOT
BRANCH   1  10
HETATM   10  C2  UNL     1      17.638  75.035  27.428  1.00  0.00     0.141 C 
BRANCH  10  11
HETATM   11  N3  UNL     1      17.520  76.266  27.091  1.00  0.00    -0.295 N 
ATOM     12  H3  UNL     1      18.348  76.808  26.842  1.00  0.00     0.186 HD
BRANCH  11  13
HETATM   13  N2  UNL     1      16.267  76.863  27.065  1.00  0.00    -0.131 N 
HETATM   14  C1  UNL     1      16.057  77.920  26.149  1.00  0.00     0.709 C 
HETATM   15  N1  UNL     1      15.516  77.743  24.981  1.00  0.00    -0.232 N 
HETATM   16  N9  UNL     1      16.464  79.225  26.535  1.00  0.00    -0.071 N 
ATOM     17  H12 UNL     1      15.224  76.805  24.704  1.00  0.00     0.174 HD
ATOM     18  H11 UNL     1      15.365  78.505  24.321  1.00  0.00     0.174 HD
ATOM     19  H9  UNL     1      17.428  79.414  26.808  1.00  0.00     0.212 HD
ATOM     20  H2  UNL     1      15.521  76.549  27.686  1.00  0.00     0.205 HD
BRANCH  16  21
HETATM   21  N10 UNL     1      15.517  80.235  26.532  1.00  0.00    -0.024 N 
HETATM   22  O3  UNL     1      15.722  81.268  25.887  1.00  0.00    -0.516 OA
HETATM   23  O4  UNL     1      14.360  80.087  27.241  1.00  0.00    -0.516 OA
ENDBRANCH  16  21
ENDBRANCH  11  13
ENDBRANCH  10  11
ENDBRANCH   1  10
BRANCH   9  24
HETATM   24  N8  UNL     1      16.498  74.553  24.604  1.00  0.00    -0.109 N 
HETATM   25  O1  UNL     1      16.732  75.143  23.544  1.00  0.00    -0.532 OA
HETATM   26  O2  UNL     1      15.271  74.623  25.193  1.00  0.00    -0.532 OA
ENDBRANCH   9  24
BRANCH   7  27
HETATM   27  N7  UNL     1      17.136  72.558  22.524  1.00  0.00    -0.344 N 
ATOM     28  H72 UNL     1      17.475  72.482  21.566  1.00  0.00     0.176 HD
ATOM     29  H71 UNL     1      16.186  72.902  22.668  1.00  0.00     0.176 HD
ENDBRANCH   7  27
TORSDOF 6
ENDMDL
MODEL 3
REMARK VINA RESULT: -7.781050267      4.406      6.601
REMARK  6 active torsions:
REMARK  status: ('A' for Active; 'I' for Inactive)
REMARK       I    between atoms: N1_1  and  C1_4 
REMARK       I    between atoms: C1_4  and  N2_5 
REMARK       I    between atoms: C1_4  and  N9_25 
REMARK    1  A    between atoms: N2_5  and  N3_7 
REMARK    2  A    between atoms: N3_7  and  C2_9 
REMARK    3  A    between atoms: C2_9  and  C3_10 
REMARK    4  A    between atoms: N6_16  and  N7_18 
REMARK    5  A    between atoms: C5_21  and  N8_22 
REMARK    6  A    between atoms: N9_25  and  N10_27 
ROOT
HETATM    1  C3  UNL     1      12.726  78.824  26.269  1.00  0.00     0.102 A 
HETATM    2  N4  UNL     1      12.320  80.088  26.097  1.00  0.00    -0.295 N 
ATOM      3  H4  UNL     1      11.360  80.358  25.884  1.00  0.00     0.187 HD
HETATM    4  N5  UNL     1      13.318  80.942  26.236  1.00  0.00    -0.282 N 
ATOM      5  H5  UNL     1      13.257  81.956  26.149  1.00  0.00     0.188 HD
HETATM    6  C4  UNL     1      14.433  80.235  26.512  1.00  0.00     0.170 A 
HETATM    7  N6  UNL     1      15.571  80.786  26.703  1.00  0.00    -0.289 N 
ATOM      8  H6  UNL     1      15.605  81.803  26.637  1.00  0.00     0.188 HD
HETATM    9  C5  UNL     1      14.081  78.898  26.536  1.00  0.00     0.178 A 
ENDROOT
BRANCH   1  10
HETATM   10  C2  UNL     1      11.933  77.593  26.195  1.00  0.00     0.141 C 
BRANCH  10  11
HETATM   11  N3  UNL     1      12.264  76.605  25.449  1.00  0.00    -0.295 N 
ATOM     12  H3  UNL     1      12.366  75.673  25.853  1.00  0.00     0.186 HD
BRANCH  11  13
HETATM   13  N2  UNL     1      12.484  76.800  24.092  1.00  0.00    -0.131 N 
HETATM   14  C1  UNL     1      11.392  77.222  23.299  1.00  0.00     0.709 C 
HETATM   15  N1  UNL     1      11.179  78.467  22.999  1.00  0.00    -0.232 N 
HETATM   16  N9  UNL     1      10.496  76.229  22.820  1.00  0.00    -0.071 N 
ATOM     17  H12 UNL     1      11.822  79.180  23.343  1.00  0.00     0.174 HD
ATOM     18  H11 UNL     1      10.391  78.771  22.427  1.00  0.00     0.174 HD
ATOM     19  H9  UNL     1      10.017  75.601  23.465  1.00  0.00     0.212 HD
ATOM     20  H2  UNL     1      13.404  76.644  23.680  1.00  0.00     0.205 HD
BRANCH  16  21
HETATM   21  N10 UNL     1      10.290  76.135  21.454  1.00  0.00    -0.024 N 
HETATM   22  O3  UNL     1      11.004  75.391  20.774  1.00  0.00    -0.516 OA
HETATM   23  O4  UNL     1       9.301  76.865  20.862  1.00  0.00    -0.516 OA
ENDBRANCH  16  21
ENDBRANCH  11  13
ENDBRANCH  10  11
ENDBRANCH   1  10
BRANCH   9  24
HETATM   24  N8  UNL     1      14.951  77.819  26.787  1.00  0.00    -0.109 N 
HETATM   25  O1  UNL     1      15.394  77.649  27.928  1.00  0.00    -0.532 OA
HETATM   26  O2  UNL     1      15.294  76.982  25.767  1.00  0.00    -0.532 OA
ENDBRANCH   9  24
BRANCH   7  27
HETATM   27  N7  UNL     1      16.762  80.141  26.991  1.00  0.00    -0.344 N 
ATOM     28  H72 UNL     1      16.686  79.327  27.601  1.00  0.00     0.176 HD
ATOM     29  H71 UNL     1      17.689  80.400  26.655  1.00  0.00     0.176 HD
ENDBRANCH   7  27
TORSDOF 6
ENDMDL
MODEL 4
REMARK VINA RESULT: -7.767498610      0.942      1.444
REMARK  6 active torsions:
REMARK  status: ('A' for Active; 'I' for Inactive)
REMARK       I    between atoms: N1_1  and  C1_4 
REMARK       I    between atoms: C1_4  and  N2_5 
REMARK       I    between atoms: C1_4  and  N9_25 
REMARK    1  A    between atoms: N2_5  and  N3_7 
REMARK    2  A    between atoms: N3_7  and  C2_9 
REMARK    3  A    between atoms: C2_9  and  C3_10 
REMARK    4  A    between atoms: N6_16  and  N7_18 
REMARK    5  A    between atoms: C5_21  and  N8_22 
REMARK    6  A    between atoms: N9_25  and  N10_27 
ROOT
HETATM    1  C3  UNL     1      17.884  75.404  27.075  1.00  0.00     0.102 A 
HETATM    2  N4  UNL     1      19.144  75.193  27.474  1.00  0.00    -0.295 N 
ATOM      3  H4  UNL     1      19.582  75.665  28.265  1.00  0.00     0.187 HD
HETATM    4  N5  UNL     1      19.749  74.297  26.715  1.00  0.00    -0.282 N 
ATOM      5  H5  UNL     1      20.711  73.972  26.820  1.00  0.00     0.188 HD
HETATM    6  C4  UNL     1      18.872  73.889  25.775  1.00  0.00     0.170 A 
HETATM    7  N6  UNL     1      19.167  73.017  24.888  1.00  0.00    -0.289 N 
ATOM      8  H6  UNL     1      20.112  72.633  24.918  1.00  0.00     0.188 HD
HETATM    9  C5  UNL     1      17.691  74.575  25.985  1.00  0.00     0.178 A 
ENDROOT
BRANCH   1  10
HETATM   10  C2  UNL     1      16.888  76.316  27.646  1.00  0.00     0.141 C 
BRANCH  10  11
HETATM   11  N3  UNL     1      16.056  76.968  26.921  1.00  0.00    -0.295 N 
ATOM     12  H3  UNL     1      15.059  76.756  26.972  1.00  0.00     0.186 HD
BRANCH  11  13
HETATM   13  N2  UNL     1      16.510  77.963  26.065  1.00  0.00    -0.131 N 
HETATM   14  C1  UNL     1      16.045  79.282  26.279  1.00  0.00     0.709 C 
HETATM   15  N1  UNL     1      16.715  80.164  26.956  1.00  0.00    -0.232 N 
HETATM   16  N9  UNL     1      14.786  79.641  25.726  1.00  0.00    -0.071 N 
ATOM     17  H12 UNL     1      17.619  79.906  27.353  1.00  0.00     0.174 HD
ATOM     18  H11 UNL     1      16.380  81.115  27.110  1.00  0.00     0.174 HD
ATOM     19  H9  UNL     1      13.944  79.114  25.956  1.00  0.00     0.212 HD
ATOM     20  H2  UNL     1      17.158  77.751  25.307  1.00  0.00     0.205 HD
BRANCH  16  21
HETATM   21  N10 UNL     1      14.733  80.724  24.865  1.00  0.00    -0.024 N 
HETATM   22  O3  UNL     1      13.640  81.141  24.468  1.00  0.00    -0.516 OA
HETATM   23  O4  UNL     1      15.886  81.327  24.457  1.00  0.00    -0.516 OA
ENDBRANCH  16  21
ENDBRANCH  11  13
ENDBRANCH  10  11
ENDBRANCH   1  10
BRANCH   9  24
HETATM   24  N8  UNL     1      16.514  74.447  25.222  1.00  0.00    -0.109 N 
HETATM   25  O1  UNL     1      15.707  73.553  25.496  1.00  0.00    -0.532 OA
HETATM   26  O2  UNL     1      16.286  75.309  24.191  1.00  0.00    -0.532 OA
ENDBRANCH   9  24
BRANCH   7  27
HETATM   27  N7  UNL     1      18.332  72.541  23.891  1.00  0.00    -0.344 N 
ATOM     28  H72 UNL     1      17.388  72.925  23.886  1.00  0.00     0.176 HD
ATOM     29  H71 UNL     1      18.572  71.854  23.176  1.00  0.00     0.176 HD
ENDBRANCH   7  27
TORSDOF 6
ENDMDL
MODEL 5
REMARK VINA RESULT: -7.759760942      1.569      1.731
REMARK  6 active torsions:
REMARK  status: ('A' for Active; 'I' for Inactive)
REMARK       I    between atoms: N1_1  and  C1_4 
REMARK       I    between atoms: C1_4  and  N2_5 
REMARK       I    between atoms: C1_4  and  N9_25 
REMARK    1  A    between atoms: N2_5  and  N3_7 
REMARK    2  A    between atoms: N3_7  and  C2_9 
REMARK    3  A    between atoms: C2_9  and  C3_10 
REMARK    4  A    between atoms: N6_16  and  N7_18 
REMARK    5  A    between atoms: C5_21  and  N8_22 
REMARK    6  A    between atoms: N9_25  and  N10_27 
ROOT
HETATM    1  C3  UNL     1      17.862  75.354  26.839  1.00  0.00     0.102 A 
HETATM    2  N4  UNL     1      19.073  75.043  27.317  1.00  0.00    -0.295 N 
ATOM      3  H4  UNL     1      19.511  75.505  28.113  1.00  0.00     0.187 HD
HETATM    4  N5  UNL     1      19.630  74.064  26.627  1.00  0.00    -0.282 N 
ATOM      5  H5  UNL     1      20.548  73.654  26.799  1.00  0.00     0.188 HD
HETATM    6  C4  UNL     1      18.769  73.700  25.654  1.00  0.00     0.170 A 
HETATM    7  N6  UNL     1      19.026  72.768  24.818  1.00  0.00    -0.289 N 
ATOM      8  H6  UNL     1      19.927  72.299  24.915  1.00  0.00     0.188 HD
HETATM    9  C5  UNL     1      17.649  74.502  25.770  1.00  0.00     0.178 A 
ENDROOT
BRANCH   1  10
HETATM   10  C2  UNL     1      16.928  76.379  27.317  1.00  0.00     0.141 C 
BRANCH  10  11
HETATM   11  N3  UNL     1      16.112  76.984  26.537  1.00  0.00    -0.295 N 
ATOM     12  H3  UNL     1      16.449  77.394  25.666  1.00  0.00     0.186 HD
BRANCH  11  13
HETATM   13  N2  UNL     1      14.769  77.083  26.877  1.00  0.00    -0.131 N 
HETATM   14  C1  UNL     1      13.834  77.267  25.832  1.00  0.00     0.709 C 
HETATM   15  N1  UNL     1      13.176  76.284  25.295  1.00  0.00    -0.232 N 
HETATM   16  N9  UNL     1      13.618  78.589  25.357  1.00  0.00    -0.071 N 
ATOM     17  H12 UNL     1      13.331  75.335  25.636  1.00  0.00     0.174 HD
ATOM     18  H11 UNL     1      12.502  76.417  24.541  1.00  0.00     0.174 HD
ATOM     19  H9  UNL     1      14.393  79.151  25.005  1.00  0.00     0.212 HD
ATOM     20  H2  UNL     1      14.466  77.026  27.849  1.00  0.00     0.205 HD
BRANCH  16  21
HETATM   21  N10 UNL     1      12.330  79.093  25.384  1.00  0.00    -0.024 N 
HETATM   22  O3  UNL     1      12.047  80.017  26.154  1.00  0.00    -0.516 OA
HETATM   23  O4  UNL     1      11.375  78.569  24.563  1.00  0.00    -0.516 OA
ENDBRANCH  16  21
ENDBRANCH  11  13
ENDBRANCH  10  11
ENDBRANCH   1  10
BRANCH   9  24
HETATM   24  N8  UNL     1      16.508  74.453  24.946  1.00  0.00    -0.109 N 
HETATM   25  O1  UNL     1      15.413  74.166  25.442  1.00  0.00    -0.532 OA
HETATM   26  O2  UNL     1      16.630  74.718  23.615  1.00  0.00    -0.532 OA
ENDBRANCH   9  24
BRANCH   7  27
HETATM   27  N7  UNL     1      18.204  72.331  23.793  1.00  0.00    -0.344 N 
ATOM     28  H72 UNL     1      18.109  71.320  23.705  1.00  0.00     0.176 HD
ATOM     29  H71 UNL     1      17.696  72.917  23.130  1.00  0.00     0.176 HD
ENDBRANCH   7  27
TORSDOF 6
ENDMDL
