MODEL 1
REMARK VINA RESULT: -7.315631874      0.000      0.000
REMARK  9 active torsions:
REMARK  status: ('A' for Active; 'I' for Inactive)
REMARK    1  A    between atoms: C1_4  and  N2_5 
REMARK    2  A    between atoms: C1_4  and  O3_26 
REMARK    3  A    between atoms: N2_5  and  C2_7 
REMARK    4  A    between atoms: C2_7  and  C3_8 
REMARK    5  A    between atoms: C2_7  and  C4_15 
REMARK       I    between atoms: C3_8  and  N3_10 
REMARK    6  A    between atoms: N3_10  and  N4_12 
REMARK    7  A    between atoms: C4_15  and  C5_17 
REMARK    8  A    between atoms: C7_20  and  N5_21 
REMARK    9  A    between atoms: O3_26  and  N7_27 
ROOT
HETATM    1  C2  UNL     1      17.593  75.903  27.857  1.00  0.00     0.255 C 
ENDROOT
BRANCH   1   2
HETATM    2  N2  UNL     1      19.043  75.788  27.734  1.00  0.00    -0.335 N 
ATOM      3  H2  UNL     1      19.611  76.533  28.137  1.00  0.00     0.164 HD
BRANCH   2   4
HETATM    4  C1  UNL     1      19.710  74.730  27.102  1.00  0.00     0.237 C 
HETATM    5  N1  UNL     1      20.845  74.304  27.508  1.00  0.00    -0.364 N 
ATOM      6  H12 UNL     1      21.246  74.755  28.330  1.00  0.00     0.159 HD
ATOM      7  H11 UNL     1      21.331  73.534  27.048  1.00  0.00     0.159 HD
BRANCH   4   8
HETATM    8  O3  UNL     1      19.164  74.116  25.982  1.00  0.00    -0.208 OA
BRANCH   8   9
HETATM    9  N7  UNL     1      18.767  72.803  25.957  1.00  0.00    -0.302 N 
ATOM     10  H72 UNL     1      19.493  72.099  25.821  1.00  0.00     0.184 HD
ATOM     11  H71 UNL     1      17.798  72.506  26.067  1.00  0.00     0.184 HD
ENDBRANCH   8   9
ENDBRANCH   4   8
ENDBRANCH   2   4
ENDBRANCH   1   2
BRANCH   1  12
HETATM   12  C3  UNL     1      17.276  75.670  29.277  1.00  0.00     0.266 C 
HETATM   13  O1  UNL     1      16.084  75.502  29.577  1.00  0.00    -0.269 OA
HETATM   14  N3  UNL     1      18.211  75.630  30.323  1.00  0.00    -0.275 N 
ATOM     15  H3  UNL     1      19.206  75.754  30.134  1.00  0.00     0.189 HD
BRANCH  14  16
HETATM   16  N4  UNL     1      17.747  75.413  31.662  1.00  0.00    -0.343 N 
ATOM     17  H42 UNL     1      18.346  75.662  32.449  1.00  0.00     0.176 HD
ATOM     18  H41 UNL     1      16.820  75.011  31.804  1.00  0.00     0.176 HD
ENDBRANCH  14  16
ENDBRANCH   1  12
BRANCH   1  19
HETATM   19  C4  UNL     1      17.352  77.391  27.631  1.00  0.00     0.208 C 
HETATM   20  O2  UNL     1      17.997  78.218  28.278  1.00  0.00    -0.288 OA
BRANCH  19  21
HETATM   21  C5  UNL     1      16.364  77.803  26.602  1.00  0.00     0.089 A 
HETATM   22  C6  UNL     1      15.709  76.865  25.853  1.00  0.00     0.086 A 
HETATM   23  S1  UNL     1      14.882  77.814  24.709  1.00  0.00    -0.064 SA
HETATM   24  C7  UNL     1      15.407  79.351  25.227  1.00  0.00     0.142 A 
HETATM   25  N6  UNL     1      16.179  79.083  26.252  1.00  0.00    -0.334 N 
ATOM     26  H6  UNL     1      16.631  79.834  26.773  1.00  0.00     0.168 HD
BRANCH  24  27
HETATM   27  N5  UNL     1      15.153  80.528  24.729  1.00  0.00    -0.380 N 
ATOM     28  H52 UNL     1      14.295  80.821  24.262  1.00  0.00     0.158 HD
ATOM     29  H51 UNL     1      15.725  81.373  24.730  1.00  0.00     0.158 HD
ENDBRANCH  24  27
ENDBRANCH  19  21
ENDBRANCH   1  19
TORSDOF 9
ENDMDL
MODEL 2
REMARK VINA RESULT: -7.286034757      1.342      1.530
REMARK  9 active torsions:
REMARK  status: ('A' for Active; 'I' for Inactive)
REMARK    1  A    between atoms: C1_4  and  N2_5 
REMARK    2  A    between atoms: C1_4  and  O3_26 
REMARK    3  A    between atoms: N2_5  and  C2_7 
REMARK    4  A    between atoms: C2_7  and  C3_8 
REMARK    5  A    between atoms: C2_7  and  C4_15 
REMARK       I    between atoms: C3_8  and  N3_10 
REMARK    6  A    between atoms: N3_10  and  N4_12 
REMARK    7  A    between atoms: C4_15  and  C5_17 
REMARK    8  A    between atoms: C7_20  and  N5_21 
REMARK    9  A    between atoms: O3_26  and  N7_27 
ROOT
HETATM    1  C2  UNL     1      17.541  75.988  27.931  1.00  0.00     0.255 C 
ENDROOT
BRANCH   1   2
HETATM    2  N2  UNL     1      18.990  75.899  27.782  1.00  0.00    -0.335 N 
ATOM      3  H2  UNL     1      19.551  76.666  28.152  1.00  0.00     0.164 HD
BRANCH   2   4
HETATM    4  C1  UNL     1      19.667  74.837  27.167  1.00  0.00     0.237 C 
HETATM    5  N1  UNL     1      20.860  74.511  27.493  1.00  0.00    -0.364 N 
ATOM      6  H12 UNL     1      21.303  75.048  28.238  1.00  0.00     0.159 HD
ATOM      7  H11 UNL     1      21.352  73.738  27.045  1.00  0.00     0.159 HD
BRANCH   4   8
HETATM    8  O3  UNL     1      19.063  74.106  26.151  1.00  0.00    -0.208 OA
BRANCH   8   9
HETATM    9  N7  UNL     1      18.739  72.777  26.265  1.00  0.00    -0.302 N 
ATOM     10  H72 UNL     1      19.487  72.100  26.114  1.00  0.00     0.184 HD
ATOM     11  H71 UNL     1      17.802  72.444  26.489  1.00  0.00     0.184 HD
ENDBRANCH   8   9
ENDBRANCH   4   8
ENDBRANCH   2   4
ENDBRANCH   1   2
BRANCH   1  12
HETATM   12  C3  UNL     1      17.247  75.670  29.339  1.00  0.00     0.266 C 
HETATM   13  O1  UNL     1      16.064  75.445  29.639  1.00  0.00    -0.269 OA
HETATM   14  N3  UNL     1      18.193  75.610  30.374  1.00  0.00    -0.275 N 
ATOM     15  H3  UNL     1      19.181  75.779  30.183  1.00  0.00     0.189 HD
BRANCH  14  16
HETATM   16  N4  UNL     1      17.750  75.307  31.703  1.00  0.00    -0.343 N 
ATOM     17  H42 UNL     1      17.250  74.436  31.881  1.00  0.00     0.176 HD
ATOM     18  H41 UNL     1      17.944  75.972  32.452  1.00  0.00     0.176 HD
ENDBRANCH  14  16
ENDBRANCH   1  12
BRANCH   1  19
HETATM   19  C4  UNL     1      17.280  77.484  27.794  1.00  0.00     0.208 C 
HETATM   20  O2  UNL     1      18.082  78.289  28.271  1.00  0.00    -0.288 OA
BRANCH  19  21
HETATM   21  C5  UNL     1      16.073  77.930  27.052  1.00  0.00     0.089 A 
HETATM   22  C6  UNL     1      16.054  79.143  26.421  1.00  0.00     0.086 A 
HETATM   23  S1  UNL     1      14.433  79.278  25.923  1.00  0.00    -0.064 SA
HETATM   24  C7  UNL     1      13.854  77.798  26.540  1.00  0.00     0.142 A 
HETATM   25  N6  UNL     1      14.915  77.258  27.089  1.00  0.00    -0.334 N 
ATOM     26  H6  UNL     1      14.860  76.343  27.537  1.00  0.00     0.168 HD
BRANCH  24  27
HETATM   27  N5  UNL     1      12.649  77.303  26.521  1.00  0.00    -0.380 N 
ATOM     28  H52 UNL     1      12.373  76.379  26.188  1.00  0.00     0.158 HD
ATOM     29  H51 UNL     1      11.773  77.711  26.848  1.00  0.00     0.158 HD
ENDBRANCH  24  27
ENDBRANCH  19  21
ENDBRANCH   1  19
TORSDOF 9
ENDMDL
MODEL 3
REMARK VINA RESULT: -7.209680248      2.440      3.551
REMARK  9 active torsions:
REMARK  status: ('A' for Active; 'I' for Inactive)
REMARK    1  A    between atoms: C1_4  and  N2_5 
REMARK    2  A    between atoms: C1_4  and  O3_26 
REMARK    3  A    between atoms: N2_5  and  C2_7 
REMARK    4  A    between atoms: C2_7  and  C3_8 
REMARK    5  A    between atoms: C2_7  and  C4_15 
REMARK       I    between atoms: C3_8  and  N3_10 
REMARK    6  A    between atoms: N3_10  and  N4_12 
REMARK    7  A    between atoms: C4_15  and  C5_17 
REMARK    8  A    between atoms: C7_20  and  N5_21 
REMARK    9  A    between atoms: O3_26  and  N7_27 
ROOT
HETATM    1  C2  UNL     1      15.811  76.941  27.174  1.00  0.00     0.255 C 
ENDROOT
BRANCH   1   2
HETATM    2  N2  UNL     1      15.928  76.529  25.778  1.00  0.00    -0.335 N 
ATOM      3  H2  UNL     1      16.808  76.720  25.301  1.00  0.00     0.164 HD
BRANCH   2   4
HETATM    4  C1  UNL     1      14.917  75.890  25.046  1.00  0.00     0.237 C 
HETATM    5  N1  UNL     1      13.681  76.000  25.354  1.00  0.00    -0.364 N 
ATOM      6  H12 UNL     1      13.450  76.592  26.152  1.00  0.00     0.159 HD
ATOM      7  H11 UNL     1      12.946  75.536  24.821  1.00  0.00     0.159 HD
BRANCH   4   8
HETATM    8  O3  UNL     1      15.232  75.084  23.958  1.00  0.00    -0.208 OA
BRANCH   8   9
HETATM    9  N7  UNL     1      16.364  74.312  23.892  1.00  0.00    -0.302 N 
ATOM     10  H72 UNL     1      17.065  74.449  24.620  1.00  0.00     0.184 HD
ATOM     11  H71 UNL     1      16.531  73.621  23.161  1.00  0.00     0.184 HD
ENDBRANCH   8   9
ENDBRANCH   4   8
ENDBRANCH   2   4
ENDBRANCH   1   2
BRANCH   1  12
HETATM   12  C3  UNL     1      16.980  76.379  27.872  1.00  0.00     0.266 C 
HETATM   13  O1  UNL     1      16.805  75.943  29.021  1.00  0.00    -0.269 OA
HETATM   14  N3  UNL     1      18.280  76.302  27.350  1.00  0.00    -0.275 N 
ATOM     15  H3  UNL     1      18.481  76.638  26.408  1.00  0.00     0.189 HD
BRANCH  14  16
HETATM   16  N4  UNL     1      19.323  75.745  28.161  1.00  0.00    -0.343 N 
ATOM     17  H42 UNL     1      19.813  76.340  28.830  1.00  0.00     0.176 HD
ATOM     18  H41 UNL     1      19.558  74.758  28.055  1.00  0.00     0.176 HD
ENDBRANCH  14  16
ENDBRANCH   1  12
BRANCH   1  19
HETATM   19  C4  UNL     1      16.069  78.442  27.104  1.00  0.00     0.208 C 
HETATM   20  O2  UNL     1      17.093  78.908  27.605  1.00  0.00    -0.288 OA
BRANCH  19  21
HETATM   21  C5  UNL     1      15.084  79.299  26.396  1.00  0.00     0.089 A 
HETATM   22  C6  UNL     1      15.503  80.348  25.625  1.00  0.00     0.086 A 
HETATM   23  S1  UNL     1      14.042  81.122  25.226  1.00  0.00    -0.064 SA
HETATM   24  C7  UNL     1      12.971  80.088  26.055  1.00  0.00     0.142 A 
HETATM   25  N6  UNL     1      13.763  79.193  26.593  1.00  0.00    -0.334 N 
ATOM     26  H6  UNL     1      13.381  78.429  27.151  1.00  0.00     0.168 HD
BRANCH  24  27
HETATM   27  N5  UNL     1      11.675  80.158  26.178  1.00  0.00    -0.380 N 
ATOM     28  H52 UNL     1      11.001  80.350  25.437  1.00  0.00     0.158 HD
ATOM     29  H51 UNL     1      11.091  80.012  27.001  1.00  0.00     0.158 HD
ENDBRANCH  24  27
ENDBRANCH  19  21
ENDBRANCH   1  19
TORSDOF 9
ENDMDL
MODEL 4
REMARK VINA RESULT: -7.172588593      2.295      3.414
REMARK  9 active torsions:
REMARK  status: ('A' for Active; 'I' for Inactive)
REMARK    1  A    between atoms: C1_4  and  N2_5 
REMARK    2  A    between atoms: C1_4  and  O3_26 
REMARK    3  A    between atoms: N2_5  and  C2_7 
REMARK    4  A    between atoms: C2_7  and  C3_8 
REMARK    5  A    between atoms: C2_7  and  C4_15 
REMARK       I    between atoms: C3_8  and  N3_10 
REMARK    6  A    between atoms: N3_10  and  N4_12 
REMARK    7  A    between atoms: C4_15  and  C5_17 
REMARK    8  A    between atoms: C7_20  and  N5_21 
REMARK    9  A    between atoms: O3_26  and  N7_27 
ROOT
HETATM    1  C2  UNL     1      15.842  77.296  27.130  1.00  0.00     0.255 C 
ENDROOT
BRANCH   1   2
HETATM    2  N2  UNL     1      15.931  76.936  25.719  1.00  0.00    -0.335 N 
ATOM      3  H2  UNL     1      16.737  77.276  25.194  1.00  0.00     0.164 HD
BRANCH   2   4
HETATM    4  C1  UNL     1      14.991  76.156  25.032  1.00  0.00     0.237 C 
HETATM    5  N1  UNL     1      13.767  76.092  25.394  1.00  0.00    -0.364 N 
ATOM      6  H12 UNL     1      13.489  76.649  26.201  1.00  0.00     0.159 HD
ATOM      7  H11 UNL     1      13.083  75.524  24.893  1.00  0.00     0.159 HD
BRANCH   4   8
HETATM    8  O3  UNL     1      15.370  75.396  23.931  1.00  0.00    -0.208 OA
BRANCH   8   9
HETATM    9  N7  UNL     1      16.313  74.402  23.987  1.00  0.00    -0.302 N 
ATOM     10  H72 UNL     1      17.289  74.679  23.886  1.00  0.00     0.184 HD
ATOM     11  H71 UNL     1      16.084  73.417  24.124  1.00  0.00     0.184 HD
ENDBRANCH   8   9
ENDBRANCH   4   8
ENDBRANCH   2   4
ENDBRANCH   1   2
BRANCH   1  12
HETATM   12  C3  UNL     1      16.896  76.534  27.822  1.00  0.00     0.266 C 
HETATM   13  O1  UNL     1      16.605  76.013  28.910  1.00  0.00    -0.269 OA
HETATM   14  N3  UNL     1      18.208  76.354  27.357  1.00  0.00    -0.275 N 
ATOM     15  H3  UNL     1      18.501  76.752  26.465  1.00  0.00     0.189 HD
BRANCH  14  16
HETATM   16  N4  UNL     1      19.130  75.600  28.155  1.00  0.00    -0.343 N 
ATOM     17  H42 UNL     1      19.278  74.611  27.954  1.00  0.00     0.176 HD
ATOM     18  H41 UNL     1      19.625  76.070  28.913  1.00  0.00     0.176 HD
ENDBRANCH  14  16
ENDBRANCH   1  12
BRANCH   1  19
HETATM   19  C4  UNL     1      16.322  78.743  27.139  1.00  0.00     0.208 C 
HETATM   20  O2  UNL     1      17.351  79.041  27.748  1.00  0.00    -0.288 OA
BRANCH  19  21
HETATM   21  C5  UNL     1      15.546  79.754  26.376  1.00  0.00     0.089 A 
HETATM   22  C6  UNL     1      14.198  79.881  26.563  1.00  0.00     0.086 A 
HETATM   23  S1  UNL     1      13.755  80.980  25.343  1.00  0.00    -0.064 SA
HETATM   24  C7  UNL     1      15.293  81.222  24.649  1.00  0.00     0.142 A 
HETATM   25  N6  UNL     1      16.081  80.469  25.377  1.00  0.00    -0.334 N 
ATOM     26  H6  UNL     1      17.082  80.427  25.187  1.00  0.00     0.168 HD
BRANCH  24  27
HETATM   27  N5  UNL     1      15.637  81.946  23.622  1.00  0.00    -0.380 N 
ATOM     28  H52 UNL     1      16.080  81.617  22.763  1.00  0.00     0.158 HD
ATOM     29  H51 UNL     1      15.515  82.946  23.460  1.00  0.00     0.158 HD
ENDBRANCH  24  27
ENDBRANCH  19  21
ENDBRANCH   1  19
TORSDOF 9
ENDMDL
MODEL 5
REMARK VINA RESULT: -7.047003695      2.549      4.417
REMARK  9 active torsions:
REMARK  status: ('A' for Active; 'I' for Inactive)
REMARK    1  A    between atoms: C1_4  and  N2_5 
REMARK    2  A    between atoms: C1_4  and  O3_26 
REMARK    3  A    between atoms: N2_5  and  C2_7 
REMARK    4  A    between atoms: C2_7  and  C3_8 
REMARK    5  A    between atoms: C2_7  and  C4_15 
REMARK       I    between atoms: C3_8  and  N3_10 
REMARK    6  A    between atoms: N3_10  and  N4_12 
REMARK    7  A    between atoms: C4_15  and  C5_17 
REMARK    8  A    between atoms: C7_20  and  N5_21 
REMARK    9  A    between atoms: O3_26  and  N7_27 
ROOT
HETATM    1  C2  UNL     1      15.835  77.438  27.069  1.00  0.00     0.255 C 
ENDROOT
BRANCH   1   2
HETATM    2  N2  UNL     1      17.102  76.729  27.215  1.00  0.00    -0.335 N 
ATOM      3  H2  UNL     1      17.713  76.682  26.400  1.00  0.00     0.164 HD
BRANCH   2   4
HETATM    4  C1  UNL     1      17.540  76.108  28.392  1.00  0.00     0.237 C 
HETATM    5  N1  UNL     1      18.776  75.864  28.613  1.00  0.00    -0.364 N 
ATOM      6  H12 UNL     1      19.444  76.157  27.901  1.00  0.00     0.159 HD
ATOM      7  H11 UNL     1      19.094  75.413  29.470  1.00  0.00     0.159 HD
BRANCH   4   8
HETATM    8  O3  UNL     1      16.630  75.708  29.363  1.00  0.00    -0.208 OA
BRANCH   8   9
HETATM    9  N7  UNL     1      16.998  75.278  30.613  1.00  0.00    -0.302 N 
ATOM     10  H72 UNL     1      17.651  74.497  30.664  1.00  0.00     0.184 HD
ATOM     11  H71 UNL     1      16.653  75.698  31.476  1.00  0.00     0.184 HD
ENDBRANCH   8   9
ENDBRANCH   4   8
ENDBRANCH   2   4
ENDBRANCH   1   2
BRANCH   1  12
HETATM   12  C3  UNL     1      16.173  78.828  26.721  1.00  0.00     0.266 C 
HETATM   13  O1  UNL     1      16.960  79.430  27.469  1.00  0.00    -0.269 OA
HETATM   14  N3  UNL     1      15.671  79.536  25.618  1.00  0.00    -0.275 N 
ATOM     15  H3  UNL     1      15.026  79.090  24.965  1.00  0.00     0.189 HD
BRANCH  14  16
HETATM   16  N4  UNL     1      16.079  80.897  25.422  1.00  0.00    -0.343 N 
ATOM     17  H42 UNL     1      16.026  81.555  26.200  1.00  0.00     0.176 HD
ATOM     18  H41 UNL     1      16.416  81.184  24.503  1.00  0.00     0.176 HD
ENDBRANCH  14  16
ENDBRANCH   1  12
BRANCH   1  19
HETATM   19  C4  UNL     1      15.257  76.834  25.794  1.00  0.00     0.208 C 
HETATM   20  O2  UNL     1      16.013  76.343  24.955  1.00  0.00    -0.288 OA
BRANCH  19  21
HETATM   21  C5  UNL     1      13.782  76.826  25.617  1.00  0.00     0.089 A 
HETATM   22  C6  UNL     1      13.226  76.413  24.438  1.00  0.00     0.086 A 
HETATM   23  S1  UNL     1      11.580  76.786  24.652  1.00  0.00    -0.064 SA
HETATM   24  C7  UNL     1      11.673  77.452  26.219  1.00  0.00     0.142 A 
HETATM   25  N6  UNL     1      12.945  77.355  26.519  1.00  0.00    -0.334 N 
ATOM     26  H6  UNL     1      13.292  77.676  27.423  1.00  0.00     0.168 HD
BRANCH  24  27
HETATM   27  N5  UNL     1      10.735  77.974  26.957  1.00  0.00    -0.380 N 
ATOM     28  H52 UNL     1       9.893  78.449  26.630  1.00  0.00     0.158 HD
ATOM     29  H51 UNL     1      10.638  77.988  27.973  1.00  0.00     0.158 HD
ENDBRANCH  24  27
ENDBRANCH  19  21
ENDBRANCH   1  19
TORSDOF 9
ENDMDL
