MODEL 1
REMARK VINA RESULT: -7.667727327      0.000      0.000
REMARK  10 active torsions:
REMARK  status: ('A' for Active; 'I' for Inactive)
REMARK    1  A    between atoms: O1_2  and  C2_3 
REMARK       I    between atoms: C2_3  and  N1_5 
REMARK    2  A    between atoms: N1_5  and  C3_7 
REMARK    3  A    between atoms: C4_10  and  N3_11 
REMARK    4  A    between atoms: C5_16  and  C6_17 
REMARK    5  A    between atoms: C6_17  and  O3_18 
REMARK    6  A    between atoms: C6_17  and  N5_20 
REMARK    7  A    between atoms: N5_20  and  N6_21 
REMARK    8  A    between atoms: C7_24  and  N7_25 
REMARK    9  A    between atoms: N7_25  and  N8_27 
REMARK   10  A    between atoms: N8_27  and  O4_29 
ROOT
HETATM    1  C3  UNL     1      12.915  79.440  26.404  1.00  0.00     0.155 A 
HETATM    2  N2  UNL     1      13.115  80.723  26.108  1.00  0.00    -0.174 N 
ATOM      3  H2  UNL     1      12.333  81.375  26.049  1.00  0.00     0.186 HD
HETATM    4  C4  UNL     1      14.374  81.135  25.889  1.00  0.00     0.677 A 
HETATM    5  N4  UNL     1      15.406  80.299  25.962  1.00  0.00    -0.189 N 
ATOM      6  H4  UNL     1      16.348  80.650  25.790  1.00  0.00     0.184 HD
HETATM    7  C5  UNL     1      15.221  78.965  26.268  1.00  0.00     0.104 A 
HETATM    8  C7  UNL     1      13.966  78.505  26.495  1.00  0.00     0.121 A 
ENDROOT
BRANCH   7   9
HETATM    9  C6  UNL     1      16.473  78.225  26.344  1.00  0.00     0.284 C 
BRANCH   9  10
HETATM   10  O3  UNL     1      16.440  77.157  25.425  1.00  0.00    -0.372 OA
ATOM     11  H3  UNL     1      17.167  77.241  24.819  1.00  0.00     0.212 HD
ENDBRANCH   9  10
BRANCH   9  12
HETATM   12  N5  UNL     1      17.056  77.865  27.562  1.00  0.00    -0.110 NA
BRANCH  12  13
HETATM   13  N6  UNL     1      17.185  76.441  27.555  1.00  0.00    -0.346 N 
ATOM     14  H62 UNL     1      17.071  75.835  26.741  1.00  0.00     0.172 HD
ATOM     15  H61 UNL     1      17.408  76.160  28.510  1.00  0.00     0.172 HD
ENDBRANCH  12  13
ENDBRANCH   9  12
ENDBRANCH   7   9
BRANCH   8  16
HETATM   16  N7  UNL     1      13.658  77.180  26.795  1.00  0.00    -0.276 N 
ATOM     17  H7  UNL     1      13.539  76.871  27.760  1.00  0.00     0.189 HD
BRANCH  16  18
HETATM   18  N8  UNL     1      13.514  76.272  25.708  1.00  0.00    -0.210 N 
ATOM     19  H8  UNL     1      12.752  76.400  25.041  1.00  0.00     0.215 HD
BRANCH  18  20
HETATM   20  O4  UNL     1      14.312  75.317  25.560  1.00  0.00    -0.274 OA
ATOM     21  H4  UNL     1      14.187  74.682  24.864  1.00  0.00     0.246 HD
ENDBRANCH  18  20
ENDBRANCH  16  18
ENDBRANCH   8  16
BRANCH   4  22
HETATM   22  N3  UNL     1      14.569  82.401  25.593  1.00  0.00    -0.234 N 
ATOM     23  H32 UNL     1      15.010  83.023  26.270  1.00  0.00     0.174 HD
ATOM     24  H31 UNL     1      14.269  82.733  24.676  1.00  0.00     0.174 HD
ENDBRANCH   4  22
BRANCH   1  25
HETATM   25  N1  UNL     1      11.702  79.038  26.617  1.00  0.00    -0.286 N 
HETATM   26  C2  UNL     1      10.729  78.888  25.625  1.00  0.00     0.365 C 
HETATM   27  O2  UNL     1       9.810  79.759  25.451  1.00  0.00    -0.238 OA
ATOM     28  H1  UNL     1      11.439  78.815  27.577  1.00  0.00     0.172 HD
BRANCH  26  29
HETATM   29  O1  UNL     1      10.685  77.784  24.753  1.00  0.00    -0.309 OA
HETATM   30  C1  UNL     1      11.223  77.867  23.435  1.00  0.00     0.215 C 
ENDBRANCH  26  29
ENDBRANCH   1  25
TORSDOF 10
ENDMDL
MODEL 2
REMARK VINA RESULT: -7.497772769      1.227      1.361
REMARK  10 active torsions:
REMARK  status: ('A' for Active; 'I' for Inactive)
REMARK    1  A    between atoms: O1_2  and  C2_3 
REMARK       I    between atoms: C2_3  and  N1_5 
REMARK    2  A    between atoms: N1_5  and  C3_7 
REMARK    3  A    between atoms: C4_10  and  N3_11 
REMARK    4  A    between atoms: C5_16  and  C6_17 
REMARK    5  A    between atoms: C6_17  and  O3_18 
REMARK    6  A    between atoms: C6_17  and  N5_20 
REMARK    7  A    between atoms: N5_20  and  N6_21 
REMARK    8  A    between atoms: C7_24  and  N7_25 
REMARK    9  A    between atoms: N7_25  and  N8_27 
REMARK   10  A    between atoms: N8_27  and  O4_29 
ROOT
HETATM    1  C3  UNL     1      12.950  79.293  25.569  1.00  0.00     0.155 A 
HETATM    2  N2  UNL     1      13.084  80.572  25.224  1.00  0.00    -0.174 N 
ATOM      3  H2  UNL     1      12.311  81.082  24.796  1.00  0.00     0.186 HD
HETATM    4  C4  UNL     1      14.262  81.171  25.454  1.00  0.00     0.677 A 
HETATM    5  N4  UNL     1      15.280  80.522  26.012  1.00  0.00    -0.189 N 
ATOM      6  H4  UNL     1      16.160  81.011  26.171  1.00  0.00     0.184 HD
HETATM    7  C5  UNL     1      15.162  79.195  26.378  1.00  0.00     0.104 A 
HETATM    8  C7  UNL     1      13.990  78.550  26.162  1.00  0.00     0.121 A 
ENDROOT
BRANCH   7   9
HETATM    9  C6  UNL     1      16.367  78.675  27.010  1.00  0.00     0.284 C 
BRANCH   9  10
HETATM   10  O3  UNL     1      17.282  79.729  27.207  1.00  0.00    -0.372 OA
ATOM     11  H3  UNL     1      18.079  79.384  27.591  1.00  0.00     0.212 HD
ENDBRANCH   9  10
BRANCH   9  12
HETATM   12  N5  UNL     1      16.988  77.499  26.582  1.00  0.00    -0.110 NA
BRANCH  12  13
HETATM   13  N6  UNL     1      17.111  76.655  27.731  1.00  0.00    -0.346 N 
ATOM     14  H62 UNL     1      17.065  76.960  28.704  1.00  0.00     0.172 HD
ATOM     15  H61 UNL     1      17.250  75.705  27.385  1.00  0.00     0.172 HD
ENDBRANCH  12  13
ENDBRANCH   9  12
ENDBRANCH   7   9
BRANCH   8  16
HETATM   16  N7  UNL     1      13.761  77.212  26.474  1.00  0.00    -0.276 N 
ATOM     17  H7  UNL     1      13.293  76.945  27.341  1.00  0.00     0.189 HD
BRANCH  16  18
HETATM   18  N8  UNL     1      14.203  76.230  25.543  1.00  0.00    -0.210 N 
ATOM     19  H8  UNL     1      13.788  76.197  24.611  1.00  0.00     0.215 HD
BRANCH  18  20
HETATM   20  O4  UNL     1      15.094  75.405  25.854  1.00  0.00    -0.274 OA
ATOM     21  H4  UNL     1      14.946  74.763  26.538  1.00  0.00     0.246 HD
ENDBRANCH  18  20
ENDBRANCH  16  18
ENDBRANCH   8  16
BRANCH   4  22
HETATM   22  N3  UNL     1      14.394  82.433  25.109  1.00  0.00    -0.234 N 
ATOM     23  H32 UNL     1      13.629  82.919  24.641  1.00  0.00     0.174 HD
ATOM     24  H31 UNL     1      15.274  82.902  25.325  1.00  0.00     0.174 HD
ENDBRANCH   4  22
BRANCH   1  25
HETATM   25  N1  UNL     1      11.813  78.711  25.350  1.00  0.00    -0.286 N 
HETATM   26  C2  UNL     1      11.464  78.074  24.155  1.00  0.00     0.365 C 
HETATM   27  O2  UNL     1      10.703  78.634  23.295  1.00  0.00    -0.238 OA
ATOM     28  H1  UNL     1      11.125  78.717  26.102  1.00  0.00     0.172 HD
BRANCH  26  29
HETATM   29  O1  UNL     1      11.916  76.787  23.811  1.00  0.00    -0.309 OA
HETATM   30  C1  UNL     1      11.076  75.879  23.100  1.00  0.00     0.215 C 
ENDBRANCH  26  29
ENDBRANCH   1  25
TORSDOF 10
ENDMDL
MODEL 3
REMARK VINA RESULT: -7.397328378      1.924      3.522
REMARK  10 active torsions:
REMARK  status: ('A' for Active; 'I' for Inactive)
REMARK    1  A    between atoms: O1_2  and  C2_3 
REMARK       I    between atoms: C2_3  and  N1_5 
REMARK    2  A    between atoms: N1_5  and  C3_7 
REMARK    3  A    between atoms: C4_10  and  N3_11 
REMARK    4  A    between atoms: C5_16  and  C6_17 
REMARK    5  A    between atoms: C6_17  and  O3_18 
REMARK    6  A    between atoms: C6_17  and  N5_20 
REMARK    7  A    between atoms: N5_20  and  N6_21 
REMARK    8  A    between atoms: C7_24  and  N7_25 
REMARK    9  A    between atoms: N7_25  and  N8_27 
REMARK   10  A    between atoms: N8_27  and  O4_29 
ROOT
HETATM    1  C3  UNL     1      13.138  77.352  26.041  1.00  0.00     0.155 A 
HETATM    2  N2  UNL     1      13.638  76.260  25.467  1.00  0.00    -0.174 N 
ATOM      3  H2  UNL     1      13.041  75.461  25.254  1.00  0.00     0.186 HD
HETATM    4  C4  UNL     1      14.947  76.239  25.176  1.00  0.00     0.677 A 
HETATM    5  N4  UNL     1      15.740  77.272  25.445  1.00  0.00    -0.189 N 
ATOM      6  H4  UNL     1      16.731  77.219  25.208  1.00  0.00     0.184 HD
HETATM    7  C5  UNL     1      15.243  78.415  26.040  1.00  0.00     0.104 A 
HETATM    8  C7  UNL     1      13.925  78.479  26.353  1.00  0.00     0.121 A 
ENDROOT
BRANCH   7   9
HETATM    9  C6  UNL     1      16.255  79.448  26.212  1.00  0.00     0.284 C 
BRANCH   9  10
HETATM   10  O3  UNL     1      16.982  79.197  27.393  1.00  0.00    -0.372 OA
ATOM     11  H3  UNL     1      16.438  78.709  27.999  1.00  0.00     0.212 HD
ENDBRANCH   9  10
BRANCH   9  12
HETATM   12  N5  UNL     1      15.975  80.806  26.035  1.00  0.00    -0.110 NA
BRANCH  12  13
HETATM   13  N6  UNL     1      15.921  81.036  24.624  1.00  0.00    -0.346 N 
ATOM     14  H62 UNL     1      15.310  80.556  23.963  1.00  0.00     0.172 HD
ATOM     15  H61 UNL     1      16.606  81.764  24.418  1.00  0.00     0.172 HD
ENDBRANCH  12  13
ENDBRANCH   9  12
ENDBRANCH   7   9
BRANCH   8  16
HETATM   16  N7  UNL     1      13.316  79.570  26.968  1.00  0.00    -0.276 N 
ATOM     17  H7  UNL     1      13.172  79.594  27.978  1.00  0.00     0.189 HD
BRANCH  16  18
HETATM   18  N8  UNL     1      12.902  80.651  26.139  1.00  0.00    -0.210 N 
ATOM     19  H8  UNL     1      12.463  81.470  26.561  1.00  0.00     0.215 HD
BRANCH  18  20
HETATM   20  O4  UNL     1      13.069  80.609  24.898  1.00  0.00    -0.274 OA
ATOM     21  H4  UNL     1      12.479  80.111  24.344  1.00  0.00     0.246 HD
ENDBRANCH  18  20
ENDBRANCH  16  18
ENDBRANCH   8  16
BRANCH   4  22
HETATM   22  N3  UNL     1      15.440  75.158  24.612  1.00  0.00    -0.234 N 
ATOM     23  H32 UNL     1      16.195  74.643  25.064  1.00  0.00     0.174 HD
ATOM     24  H31 UNL     1      15.044  74.857  23.721  1.00  0.00     0.174 HD
ENDBRANCH   4  22
BRANCH   1  25
HETATM   25  N1  UNL     1      11.874  77.378  26.324  1.00  0.00    -0.286 N 
HETATM   26  C2  UNL     1      10.878  77.852  25.465  1.00  0.00     0.365 C 
HETATM   27  O2  UNL     1      10.359  79.010  25.616  1.00  0.00    -0.238 OA
ATOM     28  H1  UNL     1      11.585  77.027  27.237  1.00  0.00     0.172 HD
BRANCH  26  29
HETATM   29  O1  UNL     1      10.375  77.104  24.385  1.00  0.00    -0.309 OA
HETATM   30  C1  UNL     1      10.088  75.713  24.524  1.00  0.00     0.215 C 
ENDBRANCH  26  29
ENDBRANCH   1  25
TORSDOF 10
ENDMDL
MODEL 4
REMARK VINA RESULT: -7.393155162      1.695      4.930
REMARK  10 active torsions:
REMARK  status: ('A' for Active; 'I' for Inactive)
REMARK    1  A    between atoms: O1_2  and  C2_3 
REMARK       I    between atoms: C2_3  and  N1_5 
REMARK    2  A    between atoms: N1_5  and  C3_7 
REMARK    3  A    between atoms: C4_10  and  N3_11 
REMARK    4  A    between atoms: C5_16  and  C6_17 
REMARK    5  A    between atoms: C6_17  and  O3_18 
REMARK    6  A    between atoms: C6_17  and  N5_20 
REMARK    7  A    between atoms: N5_20  and  N6_21 
REMARK    8  A    between atoms: C7_24  and  N7_25 
REMARK    9  A    between atoms: N7_25  and  N8_27 
REMARK   10  A    between atoms: N8_27  and  O4_29 
ROOT
HETATM    1  C3  UNL     1      14.622  78.319  27.053  1.00  0.00     0.155 A 
HETATM    2  N2  UNL     1      15.254  79.487  27.140  1.00  0.00    -0.174 N 
ATOM      3  H2  UNL     1      16.180  79.551  27.563  1.00  0.00     0.186 HD
HETATM    4  C4  UNL     1      14.641  80.578  26.655  1.00  0.00     0.677 A 
HETATM    5  N4  UNL     1      13.435  80.514  26.099  1.00  0.00    -0.189 N 
ATOM      6  H4  UNL     1      13.001  81.365  25.741  1.00  0.00     0.184 HD
HETATM    7  C5  UNL     1      12.761  79.312  25.999  1.00  0.00     0.104 A 
HETATM    8  C7  UNL     1      13.343  78.185  26.477  1.00  0.00     0.121 A 
ENDROOT
BRANCH   7   9
HETATM    9  C6  UNL     1      11.478  79.440  25.322  1.00  0.00     0.284 C 
BRANCH   9  10
HETATM   10  O3  UNL     1      10.543  80.022  26.201  1.00  0.00    -0.372 OA
ATOM     11  H3  UNL     1      10.085  80.723  25.752  1.00  0.00     0.212 HD
ENDBRANCH   9  10
BRANCH   9  12
HETATM   12  N5  UNL     1      10.927  78.403  24.563  1.00  0.00    -0.110 NA
BRANCH  12  13
HETATM   13  N6  UNL     1      11.400  78.574  23.224  1.00  0.00    -0.346 N 
ATOM     14  H62 UNL     1      12.277  79.019  22.954  1.00  0.00     0.172 HD
ATOM     15  H61 UNL     1      10.696  78.167  22.609  1.00  0.00     0.172 HD
ENDBRANCH  12  13
ENDBRANCH   9  12
ENDBRANCH   7   9
BRANCH   8  16
HETATM   16  N7  UNL     1      12.753  76.923  26.445  1.00  0.00    -0.276 N 
ATOM     17  H7  UNL     1      12.169  76.594  27.214  1.00  0.00     0.189 HD
BRANCH  16  18
HETATM   18  N8  UNL     1      12.994  76.108  25.303  1.00  0.00    -0.210 N 
ATOM     19  H8  UNL     1      12.327  76.113  24.531  1.00  0.00     0.215 HD
BRANCH  18  20
HETATM   20  O4  UNL     1      14.016  75.386  25.234  1.00  0.00    -0.274 OA
ATOM     21  H4  UNL     1      14.187  74.721  25.890  1.00  0.00     0.246 HD
ENDBRANCH  18  20
ENDBRANCH  16  18
ENDBRANCH   8  16
BRANCH   4  22
HETATM   22  N3  UNL     1      15.266  81.732  26.745  1.00  0.00    -0.234 N 
ATOM     23  H32 UNL     1      14.758  82.603  26.594  1.00  0.00     0.174 HD
ATOM     24  H31 UNL     1      16.261  81.724  26.970  1.00  0.00     0.174 HD
ENDBRANCH   4  22
BRANCH   1  25
HETATM   25  N1  UNL     1      15.210  77.263  27.519  1.00  0.00    -0.286 N 
HETATM   26  C2  UNL     1      16.522  76.886  27.218  1.00  0.00     0.365 C 
HETATM   27  O2  UNL     1      16.777  75.966  26.369  1.00  0.00    -0.238 OA
ATOM     28  H1  UNL     1      14.678  76.663  28.150  1.00  0.00     0.172 HD
BRANCH  26  29
HETATM   29  O1  UNL     1      17.648  77.482  27.815  1.00  0.00    -0.309 OA
HETATM   30  C1  UNL     1      18.596  76.699  28.539  1.00  0.00     0.215 C 
ENDBRANCH  26  29
ENDBRANCH   1  25
TORSDOF 10
ENDMDL
MODEL 5
REMARK VINA RESULT: -7.305058910      2.620      5.226
REMARK  10 active torsions:
REMARK  status: ('A' for Active; 'I' for Inactive)
REMARK    1  A    between atoms: O1_2  and  C2_3 
REMARK       I    between atoms: C2_3  and  N1_5 
REMARK    2  A    between atoms: N1_5  and  C3_7 
REMARK    3  A    between atoms: C4_10  and  N3_11 
REMARK    4  A    between atoms: C5_16  and  C6_17 
REMARK    5  A    between atoms: C6_17  and  O3_18 
REMARK    6  A    between atoms: C6_17  and  N5_20 
REMARK    7  A    between atoms: N5_20  and  N6_21 
REMARK    8  A    between atoms: C7_24  and  N7_25 
REMARK    9  A    between atoms: N7_25  and  N8_27 
REMARK   10  A    between atoms: N8_27  and  O4_29 
ROOT
HETATM    1  C3  UNL     1      14.852  76.650  25.396  1.00  0.00     0.155 A 
HETATM    2  N2  UNL     1      13.684  76.040  25.209  1.00  0.00    -0.174 N 
ATOM      3  H2  UNL     1      13.640  75.036  25.033  1.00  0.00     0.186 HD
HETATM    4  C4  UNL     1      12.566  76.781  25.258  1.00  0.00     0.677 A 
HETATM    5  N4  UNL     1      12.605  78.090  25.487  1.00  0.00    -0.189 N 
ATOM      6  H4  UNL     1      11.734  78.620  25.518  1.00  0.00     0.184 HD
HETATM    7  C5  UNL     1      13.806  78.743  25.684  1.00  0.00     0.104 A 
HETATM    8  C7  UNL     1      14.960  78.033  25.642  1.00  0.00     0.121 A 
ENDROOT
BRANCH   7   9
HETATM    9  C6  UNL     1      13.638  80.163  25.964  1.00  0.00     0.284 C 
BRANCH   9  10
HETATM   10  O3  UNL     1      13.677  80.884  24.754  1.00  0.00    -0.372 OA
ATOM     11  H3  UNL     1      13.081  80.486  24.130  1.00  0.00     0.212 HD
ENDBRANCH   9  10
BRANCH   9  12
HETATM   12  N5  UNL     1      14.326  80.809  26.995  1.00  0.00    -0.110 NA
BRANCH  12  13
HETATM   13  N6  UNL     1      15.096  81.850  26.388  1.00  0.00    -0.346 N 
ATOM     14  H62 UNL     1      15.461  81.846  25.436  1.00  0.00     0.172 HD
ATOM     15  H61 UNL     1      15.203  82.584  27.089  1.00  0.00     0.172 HD
ENDBRANCH  12  13
ENDBRANCH   9  12
ENDBRANCH   7   9
BRANCH   8  16
HETATM   16  N7  UNL     1      16.228  78.586  25.810  1.00  0.00    -0.276 N 
ATOM     17  H7  UNL     1      16.815  78.813  25.007  1.00  0.00     0.189 HD
BRANCH  16  18
HETATM   18  N8  UNL     1      16.676  78.821  27.140  1.00  0.00    -0.210 N 
ATOM     19  H8  UNL     1      16.481  78.132  27.867  1.00  0.00     0.215 HD
BRANCH  18  20
HETATM   20  O4  UNL     1      17.307  79.865  27.430  1.00  0.00    -0.274 OA
ATOM     21  H4  UNL     1      18.248  79.843  27.564  1.00  0.00     0.246 HD
ENDBRANCH  18  20
ENDBRANCH  16  18
ENDBRANCH   8  16
BRANCH   4  22
HETATM   22  N3  UNL     1      11.413  76.178  25.069  1.00  0.00    -0.234 N 
ATOM     23  H32 UNL     1      10.857  76.385  24.240  1.00  0.00     0.174 HD
ATOM     24  H31 UNL     1      11.102  75.504  25.769  1.00  0.00     0.174 HD
ENDBRANCH   4  22
BRANCH   1  25
HETATM   25  N1  UNL     1      15.934  75.939  25.351  1.00  0.00    -0.286 N 
HETATM   26  C2  UNL     1      16.018  74.654  24.806  1.00  0.00     0.365 C 
HETATM   27  O2  UNL     1      16.036  73.612  25.546  1.00  0.00    -0.238 OA
ATOM     28  H1  UNL     1      16.785  76.345  25.740  1.00  0.00     0.172 HD
BRANCH  26  29
HETATM   29  O1  UNL     1      16.087  74.410  23.423  1.00  0.00    -0.309 OA
HETATM   30  C1  UNL     1      17.091  73.557  22.876  1.00  0.00     0.215 C 
ENDBRANCH  26  29
ENDBRANCH   1  25
TORSDOF 10
ENDMDL
