MODEL 1
REMARK VINA RESULT: -7.637418290      0.000      0.000
REMARK  18 active torsions:
REMARK  status: ('A' for Active; 'I' for Inactive)
REMARK    1  A    between atoms: N1_2  and  N2_5 
REMARK    2  A    between atoms: N2_5  and  C4_6 
REMARK    3  A    between atoms: N2_5  and  C11_17 
REMARK    4  A    between atoms: N2_5  and  C20_34 
REMARK    5  A    between atoms: C4_6  and  C5_7 
REMARK    6  A    between atoms: C5_7  and  C6_8 
REMARK    7  A    between atoms: C6_8  and  C7_9 
REMARK    8  A    between atoms: C7_9  and  C8_10 
REMARK    9  A    between atoms: C8_10  and  C9_11 
REMARK   10  A    between atoms: C9_11  and  C10_12 
REMARK   11  A    between atoms: C10_12  and  O1_13 
REMARK   12  A    between atoms: O1_13  and  N3_14 
REMARK   13  A    between atoms: C11_17  and  C12_18 
REMARK   14  A    between atoms: C12_18  and  C13_19 
REMARK   15  A    between atoms: C13_19  and  N4_20 
REMARK   16  A    between atoms: N4_20  and  C14_22 
REMARK   17  A    between atoms: C14_22  and  N5_24 
REMARK   18  A    between atoms: N5_24  and  C15_26 
ROOT
HETATM    1  N2  UNL     1       5.661   2.551  48.995  1.00  0.00     0.133 N 
ENDROOT
BRANCH   1   2
HETATM    2  N1  UNL     1       5.363   3.858  49.386  1.00  0.00     0.082 N 
HETATM    3  C1  UNL     1       5.916   4.315  50.627  1.00  0.00     0.309 C 
HETATM    4  C2  UNL     1       5.758   4.865  48.423  1.00  0.00     0.309 C 
HETATM    5  C3  UNL     1       3.912   4.023  49.550  1.00  0.00     0.309 C 
ENDBRANCH   1   2
BRANCH   1   6
HETATM    6  C4  UNL     1       5.247   2.309  47.597  1.00  0.00     0.281 C 
BRANCH   6   7
HETATM    7  C5  UNL     1       4.243   1.262  47.396  1.00  0.00     0.031 C 
BRANCH   7   8
HETATM    8  C6  UNL     1       4.625   0.460  46.169  1.00  0.00     0.002 C 
BRANCH   8   9
HETATM    9  C7  UNL     1       5.682   1.054  45.320  1.00  0.00     0.000 C 
BRANCH   9  10
HETATM   10  C8  UNL     1       5.523   0.458  43.911  1.00  0.00     0.002 C 
BRANCH  10  11
HETATM   11  C9  UNL     1       6.013   1.435  42.871  1.00  0.00     0.029 C 
BRANCH  11  12
HETATM   12  C10 UNL     1       4.835   1.810  41.999  1.00  0.00     0.208 C 
BRANCH  12  13
HETATM   13  O1  UNL     1       4.551   3.186  42.182  1.00  0.00    -0.221 OA
BRANCH  13  14
HETATM   14  N3  UNL     1       3.363   3.737  41.765  1.00  0.00     0.004 N 
HETATM   15  O2  UNL     1       2.331   3.070  41.951  1.00  0.00    -0.511 OA
HETATM   16  O3  UNL     1       3.270   4.964  41.167  1.00  0.00    -0.511 OA
ENDBRANCH  13  14
ENDBRANCH  12  13
ENDBRANCH  11  12
ENDBRANCH  10  11
ENDBRANCH   9  10
ENDBRANCH   8   9
ENDBRANCH   7   8
ENDBRANCH   6   7
ENDBRANCH   1   6
BRANCH   1  17
HETATM   17  C11 UNL     1       4.905   1.542  49.700  1.00  0.00     0.282 C 
BRANCH  17  18
HETATM   18  C12 UNL     1       5.388   0.834  50.852  1.00  0.00     0.050 C 
BRANCH  18  19
HETATM   19  C13 UNL     1       4.306  -0.225  51.184  1.00  0.00     0.123 C 
BRANCH  19  20
HETATM   20  N4  UNL     1       4.816  -1.521  51.421  1.00  0.00    -0.367 N 
ATOM     21  H4  UNL     1       4.804  -1.883  52.374  1.00  0.00     0.161 HD
BRANCH  20  22
HETATM   22  C14 UNL     1       5.339  -2.332  50.404  1.00  0.00     0.173 C 
HETATM   23  S1  UNL     1       4.687  -2.296  48.918  1.00  0.00    -0.041 SA
BRANCH  22  24
HETATM   24  N5  UNL     1       6.433  -3.192  50.651  1.00  0.00    -0.320 N 
ATOM     25  H5  UNL     1       6.392  -3.830  51.446  1.00  0.00     0.169 HD
BRANCH  24  26
HETATM   26  C15 UNL     1       7.490  -3.194  49.897  1.00  0.00     0.107 A 
HETATM   27  C16 UNL     1       7.699  -4.156  48.934  1.00  0.00     0.050 A 
HETATM   28  C17 UNL     1       8.819  -4.156  48.136  1.00  0.00     0.024 A 
HETATM   29  C18 UNL     1       9.724  -3.134  48.356  1.00  0.00     0.026 A 
HETATM   30 BR1  UNL     1      11.327  -3.022  47.306  1.00  0.00    -0.050 Br
HETATM   31  C19 UNL     1       9.512  -2.181  49.315  1.00  0.00     0.108 A 
HETATM   32  N6  UNL     1       8.387  -2.216  50.086  1.00  0.00    -0.351 N 
ATOM     33  H6  UNL     1       8.230  -1.505  50.800  1.00  0.00     0.166 HD
ENDBRANCH  24  26
ENDBRANCH  22  24
ENDBRANCH  20  22
ENDBRANCH  19  20
ENDBRANCH  18  19
ENDBRANCH  17  18
ENDBRANCH   1  17
BRANCH   1  34
HETATM   34  C20 UNL     1       7.051   2.202  49.133  1.00  0.00     0.239 A 
HETATM   35  C21 UNL     1       7.860   1.525  48.224  1.00  0.00     0.060 A 
HETATM   36  C22 UNL     1       9.136   1.376  48.718  1.00  0.00     0.021 A 
HETATM   37  C23 UNL     1       9.121   1.960  49.939  1.00  0.00     0.090 A 
HETATM   38  N7  UNL     1       7.888   2.437  50.158  1.00  0.00    -0.344 N 
ATOM     39  H7  UNL     1       7.614   2.924  51.011  1.00  0.00     0.166 HD
ENDBRANCH   1  34
TORSDOF 18
ENDMDL
MODEL 2
REMARK VINA RESULT: -7.125754413      4.785      7.710
REMARK  18 active torsions:
REMARK  status: ('A' for Active; 'I' for Inactive)
REMARK    1  A    between atoms: N1_2  and  N2_5 
REMARK    2  A    between atoms: N2_5  and  C4_6 
REMARK    3  A    between atoms: N2_5  and  C11_17 
REMARK    4  A    between atoms: N2_5  and  C20_34 
REMARK    5  A    between atoms: C4_6  and  C5_7 
REMARK    6  A    between atoms: C5_7  and  C6_8 
REMARK    7  A    between atoms: C6_8  and  C7_9 
REMARK    8  A    between atoms: C7_9  and  C8_10 
REMARK    9  A    between atoms: C8_10  and  C9_11 
REMARK   10  A    between atoms: C9_11  and  C10_12 
REMARK   11  A    between atoms: C10_12  and  O1_13 
REMARK   12  A    between atoms: O1_13  and  N3_14 
REMARK   13  A    between atoms: C11_17  and  C12_18 
REMARK   14  A    between atoms: C12_18  and  C13_19 
REMARK   15  A    between atoms: C13_19  and  N4_20 
REMARK   16  A    between atoms: N4_20  and  C14_22 
REMARK   17  A    between atoms: C14_22  and  N5_24 
REMARK   18  A    between atoms: N5_24  and  C15_26 
ROOT
HETATM    1  N2  UNL     1       6.202  -0.899  49.365  1.00  0.00     0.133 N 
ENDROOT
BRANCH   1   2
HETATM    2  N1  UNL     1       5.328  -0.263  50.250  1.00  0.00     0.082 N 
HETATM    3  C1  UNL     1       4.600   0.869  49.757  1.00  0.00     0.309 C 
HETATM    4  C2  UNL     1       4.310  -1.134  50.800  1.00  0.00     0.309 C 
HETATM    5  C3  UNL     1       6.066   0.255  51.411  1.00  0.00     0.309 C 
ENDBRANCH   1   2
BRANCH   1   6
HETATM    6  C4  UNL     1       6.195  -2.361  49.573  1.00  0.00     0.281 C 
BRANCH   6   7
HETATM    7  C5  UNL     1       7.494  -2.977  49.855  1.00  0.00     0.031 C 
BRANCH   7   8
HETATM    8  C6  UNL     1       7.698  -4.128  48.893  1.00  0.00     0.002 C 
BRANCH   8   9
HETATM    9  C7  UNL     1       8.728  -3.917  47.851  1.00  0.00     0.000 C 
BRANCH   9  10
HETATM   10  C8  UNL     1       9.870  -3.112  48.495  1.00  0.00     0.002 C 
BRANCH  10  11
HETATM   11  C9  UNL     1      11.109  -3.182  47.637  1.00  0.00     0.029 C 
BRANCH  11  12
HETATM   12  C10 UNL     1      12.309  -3.118  48.555  1.00  0.00     0.208 C 
BRANCH  12  13
HETATM   13  O1  UNL     1      13.400  -2.559  47.842  1.00  0.00    -0.221 OA
BRANCH  13  14
HETATM   14  N3  UNL     1      13.849  -1.287  48.097  1.00  0.00     0.004 N 
HETATM   15  O2  UNL     1      15.079  -1.123  48.172  1.00  0.00    -0.511 OA
HETATM   16  O3  UNL     1      13.018  -0.213  48.269  1.00  0.00    -0.511 OA
ENDBRANCH  13  14
ENDBRANCH  12  13
ENDBRANCH  11  12
ENDBRANCH  10  11
ENDBRANCH   9  10
ENDBRANCH   8   9
ENDBRANCH   7   8
ENDBRANCH   6   7
ENDBRANCH   1   6
BRANCH   1  17
HETATM   17  C11 UNL     1       7.593  -0.581  49.586  1.00  0.00     0.282 C 
BRANCH  17  18
HETATM   18  C12 UNL     1       8.343   0.347  48.785  1.00  0.00     0.050 C 
BRANCH  18  19
HETATM   19  C13 UNL     1       9.774   0.362  49.381  1.00  0.00     0.123 C 
BRANCH  19  20
HETATM   20  N4  UNL     1      10.524   1.514  49.058  1.00  0.00    -0.367 N 
ATOM     21  H4  UNL     1      11.132   1.485  48.240  1.00  0.00     0.161 HD
BRANCH  20  22
HETATM   22  C14 UNL     1      10.471   2.695  49.811  1.00  0.00     0.173 C 
HETATM   23  S1  UNL     1      11.102   2.736  51.306  1.00  0.00    -0.041 SA
BRANCH  22  24
HETATM   24  N5  UNL     1       9.870   3.863  49.289  1.00  0.00    -0.320 N 
ATOM     25  H5  UNL     1      10.466   4.594  48.900  1.00  0.00     0.169 HD
BRANCH  24  26
HETATM   26  C15 UNL     1       8.583   4.034  49.290  1.00  0.00     0.107 A 
HETATM   27  C16 UNL     1       7.830   3.923  48.143  1.00  0.00     0.050 A 
HETATM   28  C17 UNL     1       6.467   4.104  48.147  1.00  0.00     0.024 A 
HETATM   29  C18 UNL     1       5.895   4.404  49.369  1.00  0.00     0.026 A 
HETATM   30 BR1  UNL     1       4.000   4.679  49.508  1.00  0.00    -0.050 Br
HETATM   31  C19 UNL     1       6.648   4.514  50.507  1.00  0.00     0.108 A 
HETATM   32  N6  UNL     1       8.000   4.327  50.461  1.00  0.00    -0.351 N 
ATOM     33  H6  UNL     1       8.560   4.408  51.310  1.00  0.00     0.166 HD
ENDBRANCH  24  26
ENDBRANCH  22  24
ENDBRANCH  20  22
ENDBRANCH  19  20
ENDBRANCH  18  19
ENDBRANCH  17  18
ENDBRANCH   1  17
BRANCH   1  34
HETATM   34  C20 UNL     1       5.927  -0.627  47.978  1.00  0.00     0.239 A 
HETATM   35  C21 UNL     1       5.379  -1.485  47.027  1.00  0.00     0.060 A 
HETATM   36  C22 UNL     1       5.274  -0.862  45.806  1.00  0.00     0.021 A 
HETATM   37  C23 UNL     1       5.761   0.388  45.993  1.00  0.00     0.090 A 
HETATM   38  N7  UNL     1       6.137   0.500  47.275  1.00  0.00    -0.344 N 
ATOM     39  H7  UNL     1       6.539   1.348  47.673  1.00  0.00     0.166 HD
ENDBRANCH   1  34
TORSDOF 18
ENDMDL
MODEL 3
REMARK VINA RESULT: -7.053214687      2.863      4.748
REMARK  18 active torsions:
REMARK  status: ('A' for Active; 'I' for Inactive)
REMARK    1  A    between atoms: N1_2  and  N2_5 
REMARK    2  A    between atoms: N2_5  and  C4_6 
REMARK    3  A    between atoms: N2_5  and  C11_17 
REMARK    4  A    between atoms: N2_5  and  C20_34 
REMARK    5  A    between atoms: C4_6  and  C5_7 
REMARK    6  A    between atoms: C5_7  and  C6_8 
REMARK    7  A    between atoms: C6_8  and  C7_9 
REMARK    8  A    between atoms: C7_9  and  C8_10 
REMARK    9  A    between atoms: C8_10  and  C9_11 
REMARK   10  A    between atoms: C9_11  and  C10_12 
REMARK   11  A    between atoms: C10_12  and  O1_13 
REMARK   12  A    between atoms: O1_13  and  N3_14 
REMARK   13  A    between atoms: C11_17  and  C12_18 
REMARK   14  A    between atoms: C12_18  and  C13_19 
REMARK   15  A    between atoms: C13_19  and  N4_20 
REMARK   16  A    between atoms: N4_20  and  C14_22 
REMARK   17  A    between atoms: C14_22  and  N5_24 
REMARK   18  A    between atoms: N5_24  and  C15_26 
ROOT
HETATM    1  N2  UNL     1       5.951  -1.343  49.009  1.00  0.00     0.133 N 
ENDROOT
BRANCH   1   2
HETATM    2  N1  UNL     1       6.108  -2.721  49.182  1.00  0.00     0.082 N 
HETATM    3  C1  UNL     1       5.193  -3.579  48.488  1.00  0.00     0.309 C 
HETATM    4  C2  UNL     1       7.418  -3.215  48.813  1.00  0.00     0.309 C 
HETATM    5  C3  UNL     1       5.941  -3.079  50.598  1.00  0.00     0.309 C 
ENDBRANCH   1   2
BRANCH   1   6
HETATM    6  C4  UNL     1       4.987  -1.050  47.930  1.00  0.00     0.281 C 
BRANCH   6   7
HETATM    7  C5  UNL     1       5.541  -0.966  46.577  1.00  0.00     0.031 C 
BRANCH   7   8
HETATM    8  C6  UNL     1       4.793   0.111  45.819  1.00  0.00     0.002 C 
BRANCH   8   9
HETATM    9  C7  UNL     1       5.631   1.022  45.006  1.00  0.00     0.000 C 
BRANCH   9  10
HETATM   10  C8  UNL     1       5.550   0.536  43.549  1.00  0.00     0.002 C 
BRANCH  10  11
HETATM   11  C9  UNL     1       6.033   1.613  42.610  1.00  0.00     0.029 C 
BRANCH  11  12
HETATM   12  C10 UNL     1       4.874   2.003  41.720  1.00  0.00     0.208 C 
BRANCH  12  13
HETATM   13  O1  UNL     1       4.236   3.142  42.273  1.00  0.00    -0.221 OA
BRANCH  13  14
HETATM   14  N3  UNL     1       3.109   3.681  41.704  1.00  0.00     0.004 N 
HETATM   15  O2  UNL     1       2.055   3.028  41.800  1.00  0.00    -0.511 OA
HETATM   16  O3  UNL     1       3.095   4.883  41.049  1.00  0.00    -0.511 OA
ENDBRANCH  13  14
ENDBRANCH  12  13
ENDBRANCH  11  12
ENDBRANCH  10  11
ENDBRANCH   9  10
ENDBRANCH   8   9
ENDBRANCH   7   8
ENDBRANCH   6   7
ENDBRANCH   1   6
BRANCH   1  17
HETATM   17  C11 UNL     1       7.138  -0.675  48.527  1.00  0.00     0.282 C 
BRANCH  17  18
HETATM   18  C12 UNL     1       7.403   0.724  48.711  1.00  0.00     0.050 C 
BRANCH  18  19
HETATM   19  C13 UNL     1       8.906   0.827  49.078  1.00  0.00     0.123 C 
BRANCH  19  20
HETATM   20  N4  UNL     1       9.761   0.090  48.229  1.00  0.00    -0.367 N 
ATOM     21  H4  UNL     1       9.838   0.371  47.252  1.00  0.00     0.161 HD
BRANCH  20  22
HETATM   22  C14 UNL     1      10.510  -1.010  48.669  1.00  0.00     0.173 C 
HETATM   23  S1  UNL     1      10.460  -1.456  50.229  1.00  0.00    -0.041 SA
BRANCH  22  24
HETATM   24  N5  UNL     1      11.318  -1.745  47.772  1.00  0.00    -0.320 N 
ATOM     25  H5  UNL     1      10.871  -2.281  47.029  1.00  0.00     0.169 HD
BRANCH  24  26
HETATM   26  C15 UNL     1      12.613  -1.758  47.865  1.00  0.00     0.107 A 
HETATM   27  C16 UNL     1      13.328  -2.932  47.956  1.00  0.00     0.050 A 
HETATM   28  C17 UNL     1      14.699  -2.942  48.053  1.00  0.00     0.024 A 
HETATM   29  C18 UNL     1      15.320  -1.708  48.056  1.00  0.00     0.026 A 
HETATM   30 BR1  UNL     1      17.232  -1.588  48.186  1.00  0.00    -0.050 Br
HETATM   31  C19 UNL     1      14.606  -0.543  47.966  1.00  0.00     0.108 A 
HETATM   32  N6  UNL     1      13.245  -0.575  47.870  1.00  0.00    -0.351 N 
ATOM     33  H6  UNL     1      12.713   0.293  47.803  1.00  0.00     0.166 HD
ENDBRANCH  24  26
ENDBRANCH  22  24
ENDBRANCH  20  22
ENDBRANCH  19  20
ENDBRANCH  18  19
ENDBRANCH  17  18
ENDBRANCH   1  17
BRANCH   1  34
HETATM   34  C20 UNL     1       5.537  -0.649  50.201  1.00  0.00     0.239 A 
HETATM   35  C21 UNL     1       4.325  -0.008  50.444  1.00  0.00     0.060 A 
HETATM   36  C22 UNL     1       4.306   0.546  51.703  1.00  0.00     0.021 A 
HETATM   37  C23 UNL     1       5.510   0.251  52.246  1.00  0.00     0.090 A 
HETATM   38  N7  UNL     1       6.213  -0.449  51.346  1.00  0.00    -0.344 N 
ATOM     39  H7  UNL     1       7.159  -0.794  51.512  1.00  0.00     0.166 HD
ENDBRANCH   1  34
TORSDOF 18
ENDMDL
MODEL 4
REMARK VINA RESULT: -7.036374679      4.893      7.080
REMARK  18 active torsions:
REMARK  status: ('A' for Active; 'I' for Inactive)
REMARK    1  A    between atoms: N1_2  and  N2_5 
REMARK    2  A    between atoms: N2_5  and  C4_6 
REMARK    3  A    between atoms: N2_5  and  C11_17 
REMARK    4  A    between atoms: N2_5  and  C20_34 
REMARK    5  A    between atoms: C4_6  and  C5_7 
REMARK    6  A    between atoms: C5_7  and  C6_8 
REMARK    7  A    between atoms: C6_8  and  C7_9 
REMARK    8  A    between atoms: C7_9  and  C8_10 
REMARK    9  A    between atoms: C8_10  and  C9_11 
REMARK   10  A    between atoms: C9_11  and  C10_12 
REMARK   11  A    between atoms: C10_12  and  O1_13 
REMARK   12  A    between atoms: O1_13  and  N3_14 
REMARK   13  A    between atoms: C11_17  and  C12_18 
REMARK   14  A    between atoms: C12_18  and  C13_19 
REMARK   15  A    between atoms: C13_19  and  N4_20 
REMARK   16  A    between atoms: N4_20  and  C14_22 
REMARK   17  A    between atoms: C14_22  and  N5_24 
REMARK   18  A    between atoms: N5_24  and  C15_26 
ROOT
HETATM    1  N2  UNL     1       6.132   0.412  49.287  1.00  0.00     0.133 N 
ENDROOT
BRANCH   1   2
HETATM    2  N1  UNL     1       5.532   1.519  49.893  1.00  0.00     0.082 N 
HETATM    3  C1  UNL     1       5.073   2.571  49.034  1.00  0.00     0.309 C 
HETATM    4  C2  UNL     1       4.381   1.191  50.708  1.00  0.00     0.309 C 
HETATM    5  C3  UNL     1       6.480   2.177  50.803  1.00  0.00     0.309 C 
ENDBRANCH   1   2
BRANCH   1   6
HETATM    6  C4  UNL     1       5.987  -0.795  50.126  1.00  0.00     0.281 C 
BRANCH   6   7
HETATM    7  C5  UNL     1       5.015  -1.788  49.663  1.00  0.00     0.031 C 
BRANCH   7   8
HETATM    8  C6  UNL     1       5.716  -3.125  49.542  1.00  0.00     0.002 C 
BRANCH   8   9
HETATM    9  C7  UNL     1       5.708  -3.733  48.193  1.00  0.00     0.000 C 
BRANCH   9  10
HETATM   10  C8  UNL     1       7.095  -3.492  47.575  1.00  0.00     0.002 C 
BRANCH  10  11
HETATM   11  C9  UNL     1       8.175  -4.000  48.498  1.00  0.00     0.029 C 
BRANCH  11  12
HETATM   12  C10 UNL     1       9.500  -3.847  47.786  1.00  0.00     0.208 C 
BRANCH  12  13
HETATM   13  O1  UNL     1      10.301  -2.924  48.504  1.00  0.00    -0.221 OA
BRANCH  13  14
HETATM   14  N3  UNL     1      11.673  -2.995  48.483  1.00  0.00     0.004 N 
HETATM   15  O2  UNL     1      12.197  -3.593  47.528  1.00  0.00    -0.511 OA
HETATM   16  O3  UNL     1      12.471  -2.445  49.450  1.00  0.00    -0.511 OA
ENDBRANCH  13  14
ENDBRANCH  12  13
ENDBRANCH  11  12
ENDBRANCH  10  11
ENDBRANCH   9  10
ENDBRANCH   8   9
ENDBRANCH   7   8
ENDBRANCH   6   7
ENDBRANCH   1   6
BRANCH   1  17
HETATM   17  C11 UNL     1       7.568   0.514  49.172  1.00  0.00     0.282 C 
BRANCH  17  18
HETATM   18  C12 UNL     1       8.472  -0.579  49.398  1.00  0.00     0.050 C 
BRANCH  18  19
HETATM   19  C13 UNL     1       9.719   0.037  50.084  1.00  0.00     0.123 C 
BRANCH  19  20
HETATM   20  N4  UNL     1      10.815   0.242  49.218  1.00  0.00    -0.367 N 
ATOM     21  H4  UNL     1      11.042  -0.485  48.539  1.00  0.00     0.161 HD
BRANCH  20  22
HETATM   22  C14 UNL     1      11.606   1.398  49.248  1.00  0.00     0.173 C 
HETATM   23  S1  UNL     1      11.393   2.499  50.422  1.00  0.00    -0.041 SA
BRANCH  22  24
HETATM   24  N5  UNL     1      12.595   1.629  48.265  1.00  0.00    -0.320 N 
ATOM     25  H5  UNL     1      12.420   2.324  47.540  1.00  0.00     0.169 HD
BRANCH  24  26
HETATM   26  C15 UNL     1      13.721   0.981  48.257  1.00  0.00     0.107 A 
HETATM   27  C16 UNL     1      14.868   1.501  48.814  1.00  0.00     0.050 A 
HETATM   28  C17 UNL     1      16.058   0.813  48.804  1.00  0.00     0.024 A 
HETATM   29  C18 UNL     1      16.038  -0.431  48.203  1.00  0.00     0.026 A 
HETATM   30 BR1  UNL     1      17.636  -1.493  48.125  1.00  0.00    -0.050 Br
HETATM   31  C19 UNL     1      14.896  -0.944  47.649  1.00  0.00     0.108 A 
HETATM   32  N6  UNL     1      13.733  -0.229  47.680  1.00  0.00    -0.351 N 
ATOM     33  H6  UNL     1      12.882  -0.612  47.268  1.00  0.00     0.166 HD
ENDBRANCH  24  26
ENDBRANCH  22  24
ENDBRANCH  20  22
ENDBRANCH  19  20
ENDBRANCH  18  19
ENDBRANCH  17  18
ENDBRANCH   1  17
BRANCH   1  34
HETATM   34  C20 UNL     1       5.627   0.123  47.969  1.00  0.00     0.239 A 
HETATM   35  C21 UNL     1       4.334  -0.247  47.608  1.00  0.00     0.060 A 
HETATM   36  C22 UNL     1       4.241  -0.442  46.249  1.00  0.00     0.021 A 
HETATM   37  C23 UNL     1       5.480  -0.195  45.762  1.00  0.00     0.090 A 
HETATM   38  N7  UNL     1       6.273   0.134  46.791  1.00  0.00    -0.344 N 
ATOM     39  H7  UNL     1       7.261   0.367  46.690  1.00  0.00     0.166 HD
ENDBRANCH   1  34
TORSDOF 18
ENDMDL
MODEL 5
REMARK VINA RESULT: -7.033166843      4.837      7.876
REMARK  18 active torsions:
REMARK  status: ('A' for Active; 'I' for Inactive)
REMARK    1  A    between atoms: N1_2  and  N2_5 
REMARK    2  A    between atoms: N2_5  and  C4_6 
REMARK    3  A    between atoms: N2_5  and  C11_17 
REMARK    4  A    between atoms: N2_5  and  C20_34 
REMARK    5  A    between atoms: C4_6  and  C5_7 
REMARK    6  A    between atoms: C5_7  and  C6_8 
REMARK    7  A    between atoms: C6_8  and  C7_9 
REMARK    8  A    between atoms: C7_9  and  C8_10 
REMARK    9  A    between atoms: C8_10  and  C9_11 
REMARK   10  A    between atoms: C9_11  and  C10_12 
REMARK   11  A    between atoms: C10_12  and  O1_13 
REMARK   12  A    between atoms: O1_13  and  N3_14 
REMARK   13  A    between atoms: C11_17  and  C12_18 
REMARK   14  A    between atoms: C12_18  and  C13_19 
REMARK   15  A    between atoms: C13_19  and  N4_20 
REMARK   16  A    between atoms: N4_20  and  C14_22 
REMARK   17  A    between atoms: C14_22  and  N5_24 
REMARK   18  A    between atoms: N5_24  and  C15_26 
ROOT
HETATM    1  N2  UNL     1       6.272  -0.932  49.339  1.00  0.00     0.133 N 
ENDROOT
BRANCH   1   2
HETATM    2  N1  UNL     1       5.434  -0.237  50.215  1.00  0.00     0.082 N 
HETATM    3  C1  UNL     1       6.023   0.295  51.408  1.00  0.00     0.309 C 
HETATM    4  C2  UNL     1       4.759   0.893  49.611  1.00  0.00     0.309 C 
HETATM    5  C3  UNL     1       4.361  -1.118  50.699  1.00  0.00     0.309 C 
ENDBRANCH   1   2
BRANCH   1   6
HETATM    6  C4  UNL     1       6.279  -2.376  49.646  1.00  0.00     0.281 C 
BRANCH   6   7
HETATM    7  C5  UNL     1       7.593  -2.976  49.892  1.00  0.00     0.031 C 
BRANCH   7   8
HETATM    8  C6  UNL     1       7.793  -4.112  48.911  1.00  0.00     0.002 C 
BRANCH   8   9
HETATM    9  C7  UNL     1       8.772  -3.859  47.830  1.00  0.00     0.000 C 
BRANCH   9  10
HETATM   10  C8  UNL     1       9.947  -3.085  48.451  1.00  0.00     0.002 C 
BRANCH  10  11
HETATM   11  C9  UNL     1      11.131  -3.091  47.516  1.00  0.00     0.029 C 
BRANCH  11  12
HETATM   12  C10 UNL     1      12.316  -2.528  48.269  1.00  0.00     0.208 C 
BRANCH  12  13
HETATM   13  O1  UNL     1      12.294  -1.115  48.164  1.00  0.00    -0.221 OA
BRANCH  13  14
HETATM   14  N3  UNL     1      13.453  -0.378  48.149  1.00  0.00     0.004 N 
HETATM   15  O2  UNL     1      13.339   0.860  48.123  1.00  0.00    -0.511 OA
HETATM   16  O3  UNL     1      14.703  -0.936  48.161  1.00  0.00    -0.511 OA
ENDBRANCH  13  14
ENDBRANCH  12  13
ENDBRANCH  11  12
ENDBRANCH  10  11
ENDBRANCH   9  10
ENDBRANCH   8   9
ENDBRANCH   7   8
ENDBRANCH   6   7
ENDBRANCH   1   6
BRANCH   1  17
HETATM   17  C11 UNL     1       7.671  -0.599  49.480  1.00  0.00     0.282 C 
BRANCH  17  18
HETATM   18  C12 UNL     1       8.367   0.324  48.628  1.00  0.00     0.050 C 
BRANCH  18  19
HETATM   19  C13 UNL     1       9.374   1.069  49.542  1.00  0.00     0.123 C 
BRANCH  19  20
HETATM   20  N4  UNL     1       8.862   2.248  50.127  1.00  0.00    -0.367 N 
ATOM     21  H4  UNL     1       8.300   2.167  50.974  1.00  0.00     0.161 HD
BRANCH  20  22
HETATM   22  C14 UNL     1       9.093   3.525  49.597  1.00  0.00     0.173 C 
HETATM   23  S1  UNL     1      10.019   4.586  50.405  1.00  0.00    -0.041 SA
BRANCH  22  24
HETATM   24  N5  UNL     1       8.527   3.912  48.361  1.00  0.00    -0.320 N 
ATOM     25  H5  UNL     1       9.001   3.649  47.496  1.00  0.00     0.169 HD
BRANCH  24  26
HETATM   26  C15 UNL     1       7.423   4.592  48.292  1.00  0.00     0.107 A 
HETATM   27  C16 UNL     1       7.416   5.965  48.183  1.00  0.00     0.050 A 
HETATM   28  C17 UNL     1       6.246   6.682  48.109  1.00  0.00     0.024 A 
HETATM   29  C18 UNL     1       5.076   5.947  48.152  1.00  0.00     0.026 A 
HETATM   30 BR1  UNL     1       3.375   6.832  48.056  1.00  0.00    -0.050 Br
HETATM   31  C19 UNL     1       5.088   4.583  48.261  1.00  0.00     0.108 A 
HETATM   32  N6  UNL     1       6.272   3.907  48.331  1.00  0.00    -0.351 N 
ATOM     33  H6  UNL     1       6.280   2.890  48.412  1.00  0.00     0.166 HD
ENDBRANCH  24  26
ENDBRANCH  22  24
ENDBRANCH  20  22
ENDBRANCH  19  20
ENDBRANCH  18  19
ENDBRANCH  17  18
ENDBRANCH   1  17
BRANCH   1  34
HETATM   34  C20 UNL     1       5.939  -0.755  47.949  1.00  0.00     0.239 A 
HETATM   35  C21 UNL     1       5.449  -1.705  47.057  1.00  0.00     0.060 A 
HETATM   36  C22 UNL     1       5.258  -1.154  45.811  1.00  0.00     0.021 A 
HETATM   37  C23 UNL     1       5.632   0.142  45.925  1.00  0.00     0.090 A 
HETATM   38  N7  UNL     1       6.027   0.350  47.189  1.00  0.00    -0.344 N 
ATOM     39  H7  UNL     1       6.359   1.251  47.535  1.00  0.00     0.166 HD
ENDBRANCH   1  34
TORSDOF 18
ENDMDL
