MODEL 1
REMARK VINA RESULT: -7.969973791      0.000      0.000
REMARK  14 active torsions:
REMARK  status: ('A' for Active; 'I' for Inactive)
REMARK    1  A    between atoms: C2_2  and  N1_3 
REMARK    2  A    between atoms: N1_3  and  C3_4 
REMARK    3  A    between atoms: N1_3  and  C5_6 
REMARK    4  A    between atoms: N1_3  and  C7_8 
REMARK    5  A    between atoms: C7_8  and  C8_9 
REMARK    6  A    between atoms: C8_9  and  N2_10 
REMARK    7  A    between atoms: N2_10  and  C10_13 
REMARK    8  A    between atoms: C10_13  and  C11_14 
REMARK       I    between atoms: C11_14  and  N3_16 
REMARK    9  A    between atoms: N3_16  and  C12_18 
REMARK   10  A    between atoms: C12_18  and  C13_19 
REMARK   11  A    between atoms: C13_19  and  C14_20 
REMARK   12  A    between atoms: C20_30  and  C21_31 
REMARK   13  A    between atoms: C21_31  and  C22_32 
REMARK   14  A    between atoms: C22_32  and  C23_33 
ROOT
HETATM    1  C14 UNL     1       7.749  -2.580  49.346  1.00  0.00    -0.029 A 
HETATM    2  C15 UNL     1       7.286  -1.516  50.083  1.00  0.00     0.096 A 
HETATM    3  N4  UNL     1       8.255  -0.587  50.202  1.00  0.00    -0.364 N 
ATOM      4  H4  UNL     1       8.176   0.299  50.699  1.00  0.00     0.165 HD
HETATM    5  C16 UNL     1       9.344  -1.033  49.551  1.00  0.00     0.062 A 
HETATM    6  C17 UNL     1      10.600  -0.508  49.353  1.00  0.00     0.059 A 
HETATM    7 BR1  UNL     1      11.033   1.202  50.087  1.00  0.00    -0.047 Br
HETATM    8  C18 UNL     1      11.567  -1.213  48.619  1.00  0.00     0.070 A 
HETATM    9  C19 UNL     1      12.834  -0.554  48.376  1.00  0.00     0.101 C 
HETATM   10  N5  UNL     1      13.826  -0.024  48.162  1.00  0.00    -0.191 NA
HETATM   11  C20 UNL     1      11.323  -2.435  48.072  1.00  0.00    -0.035 A 
HETATM   12  C26 UNL     1      10.023  -2.941  48.295  1.00  0.00     0.023 A 
HETATM   13  C27 UNL     1       9.068  -2.266  49.007  1.00  0.00     0.000 A 
ENDROOT
BRANCH  11  14
HETATM   14  C21 UNL     1      12.300  -3.292  47.372  1.00  0.00     0.040 C 
BRANCH  14  15
HETATM   15  C22 UNL     1      12.992  -4.280  48.216  1.00  0.00     0.008 C 
BRANCH  15  16
HETATM   16  C23 UNL     1      14.100  -3.947  49.115  1.00  0.00    -0.023 C 
HETATM   17  C24 UNL     1      15.320  -3.335  48.493  1.00  0.00     0.009 C 
HETATM   18  C25 UNL     1      14.524  -5.204  49.926  1.00  0.00     0.009 C 
ENDBRANCH  15  16
ENDBRANCH  14  15
ENDBRANCH  11  14
BRANCH   1  19
HETATM   19  C13 UNL     1       7.129  -3.843  48.952  1.00  0.00     0.060 C 
BRANCH  19  20
HETATM   20  C12 UNL     1       6.109  -3.779  47.876  1.00  0.00     0.127 C 
BRANCH  20  21
HETATM   21  N3  UNL     1       6.330  -2.757  46.874  1.00  0.00    -0.359 N 
HETATM   22  C11 UNL     1       5.339  -1.785  46.676  1.00  0.00     0.251 C 
HETATM   23  O2  UNL     1       4.296  -1.864  47.427  1.00  0.00    -0.271 OA
ATOM     24  H3  UNL     1       7.189  -2.745  46.324  1.00  0.00     0.162 HD
BRANCH  22  25
HETATM   25  C10 UNL     1       5.322  -0.674  45.722  1.00  0.00     0.413 C 
BRANCH  25  26
HETATM   26  N2  UNL     1       5.487   0.638  46.236  1.00  0.00     0.019 N 
HETATM   27  C9  UNL     1       4.134   1.150  46.525  1.00  0.00     0.357 C 
HETATM   28  O1  UNL     1       6.009   1.457  45.318  1.00  0.00    -0.064 OA
BRANCH  26  29
HETATM   29  C8  UNL     1       6.243   0.726  47.447  1.00  0.00     0.340 C 
BRANCH  29  30
HETATM   30  C7  UNL     1       5.597   1.470  48.564  1.00  0.00     0.273 C 
BRANCH  30  31
HETATM   31  N1  UNL     1       6.329   2.672  48.967  1.00  0.00    -0.066 N 
BRANCH  31  32
HETATM   32  C2  UNL     1       6.419   2.788  50.399  1.00  0.00     0.233 C 
HETATM   33  C1  UNL     1       5.662   1.714  51.133  1.00  0.00     0.035 C 
ENDBRANCH  31  32
BRANCH  31  34
HETATM   34  C3  UNL     1       5.813   3.811  48.294  1.00  0.00     0.233 C 
HETATM   35  C4  UNL     1       4.631   4.464  48.921  1.00  0.00     0.035 C 
ENDBRANCH  31  34
BRANCH  31  36
HETATM   36  C5  UNL     1       7.683   2.455  48.462  1.00  0.00     0.233 C 
HETATM   37  C6  UNL     1       8.501   3.692  48.340  1.00  0.00     0.035 C 
ENDBRANCH  31  36
ENDBRANCH  30  31
ENDBRANCH  29  30
ENDBRANCH  26  29
ENDBRANCH  25  26
ENDBRANCH  22  25
ENDBRANCH  20  21
ENDBRANCH  19  20
ENDBRANCH   1  19
TORSDOF 14
ENDMDL
MODEL 2
REMARK VINA RESULT: -7.953657862      3.253      5.935
REMARK  14 active torsions:
REMARK  status: ('A' for Active; 'I' for Inactive)
REMARK    1  A    between atoms: C2_2  and  N1_3 
REMARK    2  A    between atoms: N1_3  and  C3_4 
REMARK    3  A    between atoms: N1_3  and  C5_6 
REMARK    4  A    between atoms: N1_3  and  C7_8 
REMARK    5  A    between atoms: C7_8  and  C8_9 
REMARK    6  A    between atoms: C8_9  and  N2_10 
REMARK    7  A    between atoms: N2_10  and  C10_13 
REMARK    8  A    between atoms: C10_13  and  C11_14 
REMARK       I    between atoms: C11_14  and  N3_16 
REMARK    9  A    between atoms: N3_16  and  C12_18 
REMARK   10  A    between atoms: C12_18  and  C13_19 
REMARK   11  A    between atoms: C13_19  and  C14_20 
REMARK   12  A    between atoms: C20_30  and  C21_31 
REMARK   13  A    between atoms: C21_31  and  C22_32 
REMARK   14  A    between atoms: C22_32  and  C23_33 
ROOT
HETATM    1  C14 UNL     1      13.635  -2.944  47.870  1.00  0.00    -0.029 A 
HETATM    2  C15 UNL     1      14.371  -1.784  47.874  1.00  0.00     0.096 A 
HETATM    3  N4  UNL     1      15.413  -1.907  48.719  1.00  0.00    -0.364 N 
ATOM      4  H4  UNL     1      16.115  -1.193  48.911  1.00  0.00     0.165 HD
HETATM    5  C16 UNL     1      15.366  -3.135  49.265  1.00  0.00     0.062 A 
HETATM    6  C17 UNL     1      16.161  -3.788  50.179  1.00  0.00     0.059 A 
HETATM    7 BR1  UNL     1      17.686  -2.897  50.907  1.00  0.00    -0.047 Br
HETATM    8  C18 UNL     1      15.864  -5.099  50.583  1.00  0.00     0.070 A 
HETATM    9  C19 UNL     1      16.799  -5.750  51.478  1.00  0.00     0.101 C 
HETATM   10  N5  UNL     1      17.550  -6.274  52.165  1.00  0.00    -0.191 NA
HETATM   11  C20 UNL     1      14.792  -5.788  50.104  1.00  0.00    -0.035 A 
HETATM   12  C26 UNL     1      14.001  -5.087  49.168  1.00  0.00     0.023 A 
HETATM   13  C27 UNL     1      14.277  -3.808  48.762  1.00  0.00     0.000 A 
ENDROOT
BRANCH  11  14
HETATM   14  C21 UNL     1      14.346  -7.126  50.540  1.00  0.00     0.040 C 
BRANCH  14  15
HETATM   15  C22 UNL     1      14.115  -8.097  49.458  1.00  0.00     0.008 C 
BRANCH  15  16
HETATM   16  C23 UNL     1      14.845  -9.359  49.328  1.00  0.00    -0.023 C 
HETATM   17  C24 UNL     1      14.054 -10.565  48.917  1.00  0.00     0.009 C 
HETATM   18  C25 UNL     1      15.597  -9.677  50.652  1.00  0.00     0.009 C 
ENDBRANCH  15  16
ENDBRANCH  14  15
ENDBRANCH  11  14
BRANCH   1  19
HETATM   19  C13 UNL     1      12.412  -3.328  47.166  1.00  0.00     0.060 C 
BRANCH  19  20
HETATM   20  C12 UNL     1      11.129  -3.048  47.858  1.00  0.00     0.127 C 
BRANCH  20  21
HETATM   21  N3  UNL     1      10.712  -1.661  47.849  1.00  0.00    -0.359 N 
HETATM   22  C11 UNL     1      10.718  -0.951  49.058  1.00  0.00     0.251 C 
HETATM   23  O2  UNL     1      11.119  -1.591  50.101  1.00  0.00    -0.271 OA
ATOM     24  H3  UNL     1      10.420  -1.211  46.982  1.00  0.00     0.162 HD
BRANCH  22  25
HETATM   25  C10 UNL     1      10.327   0.438  49.307  1.00  0.00     0.413 C 
BRANCH  25  26
HETATM   26  N2  UNL     1       8.949   0.710  49.508  1.00  0.00     0.019 N 
HETATM   27  C9  UNL     1       8.416   1.168  48.211  1.00  0.00     0.357 C 
HETATM   28  O1  UNL     1       8.773   1.720  50.365  1.00  0.00    -0.064 OA
BRANCH  26  29
HETATM   29  C8  UNL     1       8.162  -0.413  49.919  1.00  0.00     0.340 C 
BRANCH  29  30
HETATM   30  C7  UNL     1       6.966  -0.709  49.082  1.00  0.00     0.273 C 
BRANCH  30  31
HETATM   31  N1  UNL     1       6.483  -2.084  49.219  1.00  0.00    -0.066 N 
BRANCH  31  32
HETATM   32  C2  UNL     1       6.088  -2.641  47.950  1.00  0.00     0.233 C 
HETATM   33  C1  UNL     1       5.582  -1.609  46.978  1.00  0.00     0.035 C 
ENDBRANCH  31  32
BRANCH  31  34
HETATM   34  C3  UNL     1       5.509  -2.164  50.249  1.00  0.00     0.233 C 
HETATM   35  C4  UNL     1       4.616  -0.981  50.401  1.00  0.00     0.035 C 
ENDBRANCH  31  34
BRANCH  31  36
HETATM   36  C5  UNL     1       7.651  -2.833  49.677  1.00  0.00     0.233 C 
HETATM   37  C6  UNL     1       7.817  -4.167  49.043  1.00  0.00     0.035 C 
ENDBRANCH  31  36
ENDBRANCH  30  31
ENDBRANCH  29  30
ENDBRANCH  26  29
ENDBRANCH  25  26
ENDBRANCH  22  25
ENDBRANCH  20  21
ENDBRANCH  19  20
ENDBRANCH   1  19
TORSDOF 14
ENDMDL
MODEL 3
REMARK VINA RESULT: -7.912427413      0.120      1.377
REMARK  14 active torsions:
REMARK  status: ('A' for Active; 'I' for Inactive)
REMARK    1  A    between atoms: C2_2  and  N1_3 
REMARK    2  A    between atoms: N1_3  and  C3_4 
REMARK    3  A    between atoms: N1_3  and  C5_6 
REMARK    4  A    between atoms: N1_3  and  C7_8 
REMARK    5  A    between atoms: C7_8  and  C8_9 
REMARK    6  A    between atoms: C8_9  and  N2_10 
REMARK    7  A    between atoms: N2_10  and  C10_13 
REMARK    8  A    between atoms: C10_13  and  C11_14 
REMARK       I    between atoms: C11_14  and  N3_16 
REMARK    9  A    between atoms: N3_16  and  C12_18 
REMARK   10  A    between atoms: C12_18  and  C13_19 
REMARK   11  A    between atoms: C13_19  and  C14_20 
REMARK   12  A    between atoms: C20_30  and  C21_31 
REMARK   13  A    between atoms: C21_31  and  C22_32 
REMARK   14  A    between atoms: C22_32  and  C23_33 
ROOT
HETATM    1  C14 UNL     1       7.772  -2.590  49.342  1.00  0.00    -0.029 A 
HETATM    2  C15 UNL     1       7.323  -1.519  50.078  1.00  0.00     0.096 A 
HETATM    3  N4  UNL     1       8.302  -0.601  50.192  1.00  0.00    -0.364 N 
ATOM      4  H4  UNL     1       8.234   0.287  50.688  1.00  0.00     0.165 HD
HETATM    5  C16 UNL     1       9.384  -1.059  49.538  1.00  0.00     0.062 A 
HETATM    6  C17 UNL     1      10.645  -0.547  49.334  1.00  0.00     0.059 A 
HETATM    7 BR1  UNL     1      11.098   1.159  50.064  1.00  0.00    -0.047 Br
HETATM    8  C18 UNL     1      11.601  -1.264  48.598  1.00  0.00     0.070 A 
HETATM    9  C19 UNL     1      12.875  -0.619  48.350  1.00  0.00     0.101 C 
HETATM   10  N5  UNL     1      13.871  -0.100  48.132  1.00  0.00    -0.191 NA
HETATM   11  C20 UNL     1      11.343  -2.485  48.055  1.00  0.00    -0.035 A 
HETATM   12  C26 UNL     1      10.039  -2.976  48.283  1.00  0.00     0.023 A 
HETATM   13  C27 UNL     1       9.093  -2.290  48.997  1.00  0.00     0.000 A 
ENDROOT
BRANCH  11  14
HETATM   14  C21 UNL     1      12.309  -3.353  47.352  1.00  0.00     0.040 C 
BRANCH  14  15
HETATM   15  C22 UNL     1      12.975  -4.363  48.191  1.00  0.00     0.008 C 
BRANCH  15  16
HETATM   16  C23 UNL     1      14.066  -4.058  49.118  1.00  0.00    -0.023 C 
HETATM   17  C24 UNL     1      15.302  -3.440  48.535  1.00  0.00     0.009 C 
HETATM   18  C25 UNL     1      14.468  -5.336  49.908  1.00  0.00     0.009 C 
ENDBRANCH  15  16
ENDBRANCH  14  15
ENDBRANCH  11  14
BRANCH   1  19
HETATM   19  C13 UNL     1       7.138  -3.847  48.951  1.00  0.00     0.060 C 
BRANCH  19  20
HETATM   20  C12 UNL     1       6.105  -3.772  47.889  1.00  0.00     0.127 C 
BRANCH  20  21
HETATM   21  N3  UNL     1       6.318  -2.746  46.890  1.00  0.00    -0.359 N 
HETATM   22  C11 UNL     1       5.327  -1.771  46.706  1.00  0.00     0.251 C 
HETATM   23  O2  UNL     1       4.291  -1.852  47.465  1.00  0.00    -0.271 OA
ATOM     24  H3  UNL     1       7.172  -2.732  46.332  1.00  0.00     0.162 HD
BRANCH  22  25
HETATM   25  C10 UNL     1       5.304  -0.655  45.757  1.00  0.00     0.413 C 
BRANCH  25  26
HETATM   26  N2  UNL     1       5.490   0.653  46.274  1.00  0.00     0.019 N 
HETATM   27  C9  UNL     1       4.145   1.187  46.563  1.00  0.00     0.357 C 
HETATM   28  O1  UNL     1       6.027   1.465  45.359  1.00  0.00    -0.064 OA
BRANCH  26  29
HETATM   29  C8  UNL     1       6.246   0.726  47.487  1.00  0.00     0.340 C 
BRANCH  29  30
HETATM   30  C7  UNL     1       5.661   1.565  48.569  1.00  0.00     0.273 C 
BRANCH  30  31
HETATM   31  N1  UNL     1       6.415   2.793  48.828  1.00  0.00    -0.066 N 
BRANCH  31  32
HETATM   32  C2  UNL     1       5.827   3.931  48.171  1.00  0.00     0.233 C 
HETATM   33  C1  UNL     1       4.607   4.461  48.876  1.00  0.00     0.035 C 
ENDBRANCH  31  32
BRANCH  31  34
HETATM   34  C3  UNL     1       7.796   2.586  48.569  1.00  0.00     0.233 C 
HETATM   35  C4  UNL     1       8.667   3.791  48.650  1.00  0.00     0.035 C 
ENDBRANCH  31  34
BRANCH  31  36
HETATM   36  C5  UNL     1       6.278   3.003  50.268  1.00  0.00     0.233 C 
HETATM   37  C6  UNL     1       5.819   1.807  51.024  1.00  0.00     0.035 C 
ENDBRANCH  31  36
ENDBRANCH  30  31
ENDBRANCH  29  30
ENDBRANCH  26  29
ENDBRANCH  25  26
ENDBRANCH  22  25
ENDBRANCH  20  21
ENDBRANCH  19  20
ENDBRANCH   1  19
TORSDOF 14
ENDMDL
MODEL 4
REMARK VINA RESULT: -7.822203644      2.138      3.826
REMARK  14 active torsions:
REMARK  status: ('A' for Active; 'I' for Inactive)
REMARK    1  A    between atoms: C2_2  and  N1_3 
REMARK    2  A    between atoms: N1_3  and  C3_4 
REMARK    3  A    between atoms: N1_3  and  C5_6 
REMARK    4  A    between atoms: N1_3  and  C7_8 
REMARK    5  A    between atoms: C7_8  and  C8_9 
REMARK    6  A    between atoms: C8_9  and  N2_10 
REMARK    7  A    between atoms: N2_10  and  C10_13 
REMARK    8  A    between atoms: C10_13  and  C11_14 
REMARK       I    between atoms: C11_14  and  N3_16 
REMARK    9  A    between atoms: N3_16  and  C12_18 
REMARK   10  A    between atoms: C12_18  and  C13_19 
REMARK   11  A    between atoms: C13_19  and  C14_20 
REMARK   12  A    between atoms: C20_30  and  C21_31 
REMARK   13  A    between atoms: C21_31  and  C22_32 
REMARK   14  A    between atoms: C22_32  and  C23_33 
ROOT
HETATM    1  C14 UNL     1       7.539  -3.319  49.494  1.00  0.00    -0.029 A 
HETATM    2  C15 UNL     1       7.768  -4.449  48.746  1.00  0.00     0.096 A 
HETATM    3  N4  UNL     1       8.980  -4.373  48.163  1.00  0.00    -0.364 N 
ATOM      4  H4  UNL     1       9.396  -5.078  47.554  1.00  0.00     0.165 HD
HETATM    5  C16 UNL     1       9.545  -3.208  48.522  1.00  0.00     0.062 A 
HETATM    6  C17 UNL     1      10.752  -2.618  48.225  1.00  0.00     0.059 A 
HETATM    7 BR1  UNL     1      11.987  -3.524  47.082  1.00  0.00    -0.047 Br
HETATM    8  C18 UNL     1      11.086  -1.360  48.749  1.00  0.00     0.070 A 
HETATM    9  C19 UNL     1      12.411  -0.847  48.464  1.00  0.00     0.101 C 
HETATM   10  N5  UNL     1      13.466  -0.452  48.260  1.00  0.00    -0.191 NA
HETATM   11  C20 UNL     1      10.251  -0.661  49.566  1.00  0.00    -0.035 A 
HETATM   12  C26 UNL     1       9.023  -1.299  49.850  1.00  0.00     0.023 A 
HETATM   13  C27 UNL     1       8.682  -2.526  49.349  1.00  0.00     0.000 A 
ENDROOT
BRANCH  11  14
HETATM   14  C21 UNL     1      10.471   0.703  50.084  1.00  0.00     0.040 C 
BRANCH  14  15
HETATM   15  C22 UNL     1       9.475   1.704  49.668  1.00  0.00     0.008 C 
BRANCH  15  16
HETATM   16  C23 UNL     1       9.374   3.043  50.253  1.00  0.00    -0.023 C 
HETATM   17  C24 UNL     1       9.084   4.176  49.314  1.00  0.00     0.009 C 
HETATM   18  C25 UNL     1      10.665   3.372  51.055  1.00  0.00     0.009 C 
ENDBRANCH  15  16
ENDBRANCH  14  15
ENDBRANCH  11  14
BRANCH   1  19
HETATM   19  C13 UNL     1       6.394  -2.885  50.291  1.00  0.00     0.060 C 
BRANCH  19  20
HETATM   20  C12 UNL     1       5.059  -2.981  49.650  1.00  0.00     0.127 C 
BRANCH  20  21
HETATM   21  N3  UNL     1       4.615  -1.786  48.964  1.00  0.00    -0.359 N 
HETATM   22  C11 UNL     1       4.722  -1.734  47.567  1.00  0.00     0.251 C 
HETATM   23  O2  UNL     1       5.200  -2.779  46.986  1.00  0.00    -0.271 OA
ATOM     24  H3  UNL     1       4.231  -0.999  49.486  1.00  0.00     0.162 HD
BRANCH  22  25
HETATM   25  C10 UNL     1       4.362  -0.642  46.659  1.00  0.00     0.413 C 
BRANCH  25  26
HETATM   26  N2  UNL     1       5.101   0.565  46.754  1.00  0.00     0.019 N 
HETATM   27  C9  UNL     1       5.520   0.911  45.382  1.00  0.00     0.357 C 
HETATM   28  O1  UNL     1       6.224   0.393  47.457  1.00  0.00    -0.064 OA
BRANCH  26  29
HETATM   29  C8  UNL     1       4.374   1.684  47.272  1.00  0.00     0.340 C 
BRANCH  29  30
HETATM   30  C7  UNL     1       4.350   1.812  48.756  1.00  0.00     0.273 C 
BRANCH  30  31
HETATM   31  N1  UNL     1       4.752   3.136  49.234  1.00  0.00    -0.066 N 
BRANCH  31  32
HETATM   32  C2  UNL     1       3.641   3.864  49.791  1.00  0.00     0.233 C 
HETATM   33  C1  UNL     1       2.455   2.992  50.104  1.00  0.00     0.035 C 
ENDBRANCH  31  32
BRANCH  31  34
HETATM   34  C3  UNL     1       5.487   3.820  48.229  1.00  0.00     0.233 C 
HETATM   35  C4  UNL     1       5.310   5.298  48.179  1.00  0.00     0.035 C 
ENDBRANCH  31  34
BRANCH  31  36
HETATM   36  C5  UNL     1       5.682   2.858  50.327  1.00  0.00     0.233 C 
HETATM   37  C6  UNL     1       5.804   1.418  50.680  1.00  0.00     0.035 C 
ENDBRANCH  31  36
ENDBRANCH  30  31
ENDBRANCH  29  30
ENDBRANCH  26  29
ENDBRANCH  25  26
ENDBRANCH  22  25
ENDBRANCH  20  21
ENDBRANCH  19  20
ENDBRANCH   1  19
TORSDOF 14
ENDMDL
MODEL 5
REMARK VINA RESULT: -7.790254020      3.150      5.801
REMARK  14 active torsions:
REMARK  status: ('A' for Active; 'I' for Inactive)
REMARK    1  A    between atoms: C2_2  and  N1_3 
REMARK    2  A    between atoms: N1_3  and  C3_4 
REMARK    3  A    between atoms: N1_3  and  C5_6 
REMARK    4  A    between atoms: N1_3  and  C7_8 
REMARK    5  A    between atoms: C7_8  and  C8_9 
REMARK    6  A    between atoms: C8_9  and  N2_10 
REMARK    7  A    between atoms: N2_10  and  C10_13 
REMARK    8  A    between atoms: C10_13  and  C11_14 
REMARK       I    between atoms: C11_14  and  N3_16 
REMARK    9  A    between atoms: N3_16  and  C12_18 
REMARK   10  A    between atoms: C12_18  and  C13_19 
REMARK   11  A    between atoms: C13_19  and  C14_20 
REMARK   12  A    between atoms: C20_30  and  C21_31 
REMARK   13  A    between atoms: C21_31  and  C22_32 
REMARK   14  A    between atoms: C22_32  and  C23_33 
ROOT
HETATM    1  C14 UNL     1      13.518  -2.894  47.892  1.00  0.00    -0.029 A 
HETATM    2  C15 UNL     1      14.256  -1.736  47.842  1.00  0.00     0.096 A 
HETATM    3  N4  UNL     1      15.322  -1.837  48.660  1.00  0.00    -0.364 N 
ATOM      4  H4  UNL     1      16.030  -1.120  48.811  1.00  0.00     0.165 HD
HETATM    5  C16 UNL     1      15.289  -3.049  49.242  1.00  0.00     0.062 A 
HETATM    6  C17 UNL     1      16.108  -3.677  50.151  1.00  0.00     0.059 A 
HETATM    7 BR1  UNL     1      17.656  -2.770  50.809  1.00  0.00    -0.047 Br
HETATM    8  C18 UNL     1      15.822  -4.976  50.600  1.00  0.00     0.070 A 
HETATM    9  C19 UNL     1      16.781  -5.603  51.486  1.00  0.00     0.101 C 
HETATM   10  N5  UNL     1      17.550  -6.110  52.166  1.00  0.00    -0.191 NA
HETATM   11  C20 UNL     1      14.735  -5.675  50.173  1.00  0.00    -0.035 A 
HETATM   12  C26 UNL     1      13.919  -4.999  49.240  1.00  0.00     0.023 A 
HETATM   13  C27 UNL     1      14.185  -3.734  48.790  1.00  0.00     0.000 A 
ENDROOT
BRANCH  11  14
HETATM   14  C21 UNL     1      14.299  -6.999  50.660  1.00  0.00     0.040 C 
BRANCH  14  15
HETATM   15  C22 UNL     1      14.464  -8.107  49.705  1.00  0.00     0.008 C 
BRANCH  15  16
HETATM   16  C23 UNL     1      15.708  -8.862  49.543  1.00  0.00    -0.023 C 
HETATM   17  C24 UNL     1      16.415  -9.287  50.795  1.00  0.00     0.009 C 
HETATM   18  C25 UNL     1      16.702  -8.066  48.650  1.00  0.00     0.009 C 
ENDBRANCH  15  16
ENDBRANCH  14  15
ENDBRANCH  11  14
BRANCH   1  19
HETATM   19  C13 UNL     1      12.275  -3.294  47.236  1.00  0.00     0.060 C 
BRANCH  19  20
HETATM   20  C12 UNL     1      11.011  -2.907  47.909  1.00  0.00     0.127 C 
BRANCH  20  21
HETATM   21  N3  UNL     1      10.727  -1.487  47.924  1.00  0.00    -0.359 N 
HETATM   22  C11 UNL     1      10.695  -0.822  49.157  1.00  0.00     0.251 C 
HETATM   23  O2  UNL     1      10.943  -1.532  50.203  1.00  0.00    -0.271 OA
ATOM     24  H3  UNL     1      10.555  -0.982  47.055  1.00  0.00     0.162 HD
BRANCH  22  25
HETATM   25  C10 UNL     1      10.416   0.590  49.431  1.00  0.00     0.413 C 
BRANCH  25  26
HETATM   26  N2  UNL     1       9.060   0.976  49.584  1.00  0.00     0.019 N 
HETATM   27  C9  UNL     1       8.624   1.508  48.278  1.00  0.00     0.357 C 
HETATM   28  O1  UNL     1       8.936   1.980  50.458  1.00  0.00    -0.064 OA
BRANCH  26  29
HETATM   29  C8  UNL     1       8.162  -0.082  49.934  1.00  0.00     0.340 C 
BRANCH  29  30
HETATM   30  C7  UNL     1       6.972  -0.243  49.053  1.00  0.00     0.273 C 
BRANCH  30  31
HETATM   31  N1  UNL     1       6.405  -1.592  49.078  1.00  0.00    -0.066 N 
BRANCH  31  32
HETATM   32  C2  UNL     1       7.417  -2.601  48.893  1.00  0.00     0.233 C 
HETATM   33  C1  UNL     1       7.321  -3.730  49.884  1.00  0.00     0.035 C 
ENDBRANCH  31  32
BRANCH  31  34
HETATM   34  C3  UNL     1       5.293  -1.676  48.198  1.00  0.00     0.233 C 
HETATM   35  C4  UNL     1       5.606  -1.953  46.769  1.00  0.00     0.035 C 
ENDBRANCH  31  34
BRANCH  31  36
HETATM   36  C5  UNL     1       5.887  -1.740  50.436  1.00  0.00     0.233 C 
HETATM   37  C6  UNL     1       4.578  -1.074  50.673  1.00  0.00     0.035 C 
ENDBRANCH  31  36
ENDBRANCH  30  31
ENDBRANCH  29  30
ENDBRANCH  26  29
ENDBRANCH  25  26
ENDBRANCH  22  25
ENDBRANCH  20  21
ENDBRANCH  19  20
ENDBRANCH   1  19
TORSDOF 14
ENDMDL
