MODEL 1
REMARK VINA RESULT: -9.038073101      0.000      0.000
REMARK  14 active torsions:
REMARK  status: ('A' for Active; 'I' for Inactive)
REMARK    1  A    between atoms: N1_2  and  C2_3 
REMARK    2  A    between atoms: C2_3  and  C3_4 
REMARK    3  A    between atoms: N2_14  and  C13_15 
REMARK    4  A    between atoms: C13_15  and  C14_16 
REMARK    5  A    between atoms: C14_16  and  C15_17 
REMARK    6  A    between atoms: C15_17  and  C16_18 
REMARK    7  A    between atoms: C16_18  and  C17_19 
REMARK    8  A    between atoms: C17_19  and  C18_20 
REMARK    9  A    between atoms: C18_20  and  C19_21 
REMARK   10  A    between atoms: C19_21  and  N3_22 
REMARK       I    between atoms: N3_22  and  C20_24 
REMARK   11  A    between atoms: C20_24  and  C21_26 
REMARK   12  A    between atoms: C21_26  and  N4_27 
REMARK       I    between atoms: N4_27  and  C22_29 
REMARK       I    between atoms: C22_29  and  N5_31 
REMARK   13  A    between atoms: N5_31  and  C23_33 
REMARK   14  A    between atoms: C23_33  and  C24_34 
ROOT
HETATM    1  C17 UNL     1       9.524  -2.088  49.382  1.00  0.00     0.028 C 
ENDROOT
BRANCH   1   2
HETATM    2  C16 UNL     1       9.687  -3.034  48.211  1.00  0.00     0.004 C 
BRANCH   2   3
HETATM    3  C15 UNL     1       8.720  -4.140  48.144  1.00  0.00     0.002 C 
BRANCH   3   4
HETATM    4  C14 UNL     1       7.329  -3.937  48.600  1.00  0.00     0.030 C 
BRANCH   4   5
HETATM    5  C13 UNL     1       6.393  -3.251  47.684  1.00  0.00     0.272 C 
BRANCH   5   6
HETATM    6  N2  UNL     1       5.133  -2.802  48.139  1.00  0.00     0.090 N 
HETATM    7  C12 UNL     1       5.281  -2.125  49.455  1.00  0.00     0.274 C 
HETATM    8  C11 UNL     1       5.982  -0.817  49.347  1.00  0.00     0.058 C 
HETATM    9  C10 UNL     1       5.037   0.233  48.830  1.00  0.00     0.238 C 
HETATM   10  N1  UNL     1       5.217   0.519  47.418  1.00  0.00    -0.069 N 
HETATM   11  C1  UNL     1       4.026   1.222  46.992  1.00  0.00     0.272 C 
HETATM   12  C31 UNL     1       5.270  -0.764  46.702  1.00  0.00     0.267 C 
HETATM   13  C30 UNL     1       4.454  -1.854  47.255  1.00  0.00     0.300 C 
BRANCH  10  14
HETATM   14  C2  UNL     1       6.441   1.182  47.118  1.00  0.00     0.241 C 
BRANCH  14  15
HETATM   15  C3  UNL     1       7.140   1.933  48.182  1.00  0.00     0.012 C 
HETATM   16  C4  UNL     1       8.591   1.538  48.292  1.00  0.00     0.006 C 
HETATM   17  C5  UNL     1       9.257   2.566  49.222  1.00  0.00     0.000 C 
HETATM   18  C6  UNL     1       8.399   2.699  50.431  1.00  0.00     0.000 C 
HETATM   19  C7  UNL     1       7.308   3.715  50.295  1.00  0.00     0.000 C 
HETATM   20  C8  UNL     1       7.208   4.338  48.944  1.00  0.00     0.000 C 
HETATM   21  C9  UNL     1       7.166   3.421  47.785  1.00  0.00     0.006 C 
ENDBRANCH  14  15
ENDBRANCH  10  14
ENDBRANCH   5   6
ENDBRANCH   4   5
ENDBRANCH   3   4
ENDBRANCH   2   3
ENDBRANCH   1   2
BRANCH   1  22
HETATM   22  C18 UNL     1      10.707  -1.272  49.689  1.00  0.00    -0.010 C 
BRANCH  22  23
HETATM   23  C19 UNL     1      11.604  -0.700  48.697  1.00  0.00     0.087 C 
BRANCH  23  24
HETATM   24  N3  UNL     1      12.880  -1.174  48.402  1.00  0.00    -0.333 N 
HETATM   25  C20 UNL     1      14.001  -0.548  47.891  1.00  0.00     0.260 C 
HETATM   26  O1  UNL     1      13.969   0.678  47.567  1.00  0.00    -0.267 OA
ATOM     27  H3  UNL     1      13.011  -2.166  48.601  1.00  0.00     0.168 HD
BRANCH  25  28
HETATM   28  C21 UNL     1      15.327  -1.198  47.657  1.00  0.00     0.167 C 
BRANCH  28  29
HETATM   29  N4  UNL     1      15.277  -2.602  47.749  1.00  0.00    -0.314 N 
HETATM   30  C22 UNL     1      15.638  -3.299  48.942  1.00  0.00     0.320 C 
HETATM   31  O2  UNL     1      16.031  -2.617  49.929  1.00  0.00    -0.247 OA
HETATM   32  N5  UNL     1      15.558  -4.729  49.020  1.00  0.00    -0.339 N 
ATOM     33  H5  UNL     1      15.224  -5.269  48.220  1.00  0.00     0.164 HD
ATOM     34  H4  UNL     1      14.972  -3.139  46.937  1.00  0.00     0.170 HD
BRANCH  32  35
HETATM   35  C23 UNL     1      15.947  -5.393  50.221  1.00  0.00     0.164 C 
BRANCH  35  36
HETATM   36  C24 UNL     1      15.726  -6.841  50.175  1.00  0.00    -0.019 A 
HETATM   37  C25 UNL     1      14.697  -7.382  49.466  1.00  0.00     0.010 A 
HETATM   38  C26 UNL     1      14.474  -8.765  49.463  1.00  0.00     0.001 A 
HETATM   39  C27 UNL     1      15.273  -9.612  50.166  1.00  0.00     0.002 A 
HETATM   40  C28 UNL     1      16.309  -9.055  50.879  1.00  0.00     0.024 A 
HETATM   41  C29 UNL     1      16.542  -7.711  50.893  1.00  0.00     0.042 A 
HETATM   42 CL1  UNL     1      17.860  -7.041  51.804  1.00  0.00    -0.084 Cl
ENDBRANCH  35  36
ENDBRANCH  32  35
ENDBRANCH  28  29
ENDBRANCH  25  28
ENDBRANCH  23  24
ENDBRANCH  22  23
ENDBRANCH   1  22
TORSDOF 14
ENDMDL
MODEL 2
REMARK VINA RESULT: -9.005894837      1.655      4.383
REMARK  14 active torsions:
REMARK  status: ('A' for Active; 'I' for Inactive)
REMARK    1  A    between atoms: N1_2  and  C2_3 
REMARK    2  A    between atoms: C2_3  and  C3_4 
REMARK    3  A    between atoms: N2_14  and  C13_15 
REMARK    4  A    between atoms: C13_15  and  C14_16 
REMARK    5  A    between atoms: C14_16  and  C15_17 
REMARK    6  A    between atoms: C15_17  and  C16_18 
REMARK    7  A    between atoms: C16_18  and  C17_19 
REMARK    8  A    between atoms: C17_19  and  C18_20 
REMARK    9  A    between atoms: C18_20  and  C19_21 
REMARK   10  A    between atoms: C19_21  and  N3_22 
REMARK       I    between atoms: N3_22  and  C20_24 
REMARK   11  A    between atoms: C20_24  and  C21_26 
REMARK   12  A    between atoms: C21_26  and  N4_27 
REMARK       I    between atoms: N4_27  and  C22_29 
REMARK       I    between atoms: C22_29  and  N5_31 
REMARK   13  A    between atoms: N5_31  and  C23_33 
REMARK   14  A    between atoms: C23_33  and  C24_34 
ROOT
HETATM    1  C17 UNL     1      10.429   0.072  50.076  1.00  0.00     0.028 C 
ENDROOT
BRANCH   1   2
HETATM    2  C16 UNL     1      11.066   1.212  49.310  1.00  0.00     0.004 C 
BRANCH   2   3
HETATM    3  C15 UNL     1      11.123   2.502  50.014  1.00  0.00     0.002 C 
BRANCH   3   4
HETATM    4  C14 UNL     1      10.003   3.459  49.898  1.00  0.00     0.030 C 
BRANCH   4   5
HETATM    5  C13 UNL     1       8.668   3.023  50.363  1.00  0.00     0.272 C 
BRANCH   5   6
HETATM    6  N2  UNL     1       7.515   3.263  49.582  1.00  0.00     0.090 N 
HETATM    7  C12 UNL     1       7.643   2.582  48.266  1.00  0.00     0.274 C 
HETATM    8  C11 UNL     1       7.555   1.101  48.380  1.00  0.00     0.058 C 
HETATM    9  C10 UNL     1       6.120   0.681  48.542  1.00  0.00     0.238 C 
HETATM   10  N1  UNL     1       5.767   0.368  49.915  1.00  0.00    -0.069 N 
HETATM   11  C1  UNL     1       4.321   0.369  49.972  1.00  0.00     0.272 C 
HETATM   12  C31 UNL     1       6.259   1.459  50.767  1.00  0.00     0.267 C 
HETATM   13  C30 UNL     1       6.258   2.804  50.171  1.00  0.00     0.300 C 
BRANCH  10  14
HETATM   14  C2  UNL     1       6.383  -0.818  50.409  1.00  0.00     0.241 C 
BRANCH  14  15
HETATM   15  C3  UNL     1       6.656  -1.935  49.482  1.00  0.00     0.012 C 
HETATM   16  C4  UNL     1       7.712  -2.869  50.017  1.00  0.00     0.006 C 
HETATM   17  C5  UNL     1       7.702  -4.111  49.110  1.00  0.00     0.000 C 
HETATM   18  C6  UNL     1       7.734  -3.636  47.700  1.00  0.00     0.000 C 
HETATM   19  C7  UNL     1       6.382  -3.356  47.121  1.00  0.00     0.000 C 
HETATM   20  C8  UNL     1       5.254  -3.502  48.084  1.00  0.00     0.000 C 
HETATM   21  C9  UNL     1       5.384  -2.799  49.378  1.00  0.00     0.006 C 
ENDBRANCH  14  15
ENDBRANCH  10  14
ENDBRANCH   5   6
ENDBRANCH   4   5
ENDBRANCH   3   4
ENDBRANCH   2   3
ENDBRANCH   1   2
BRANCH   1  22
HETATM   22  C18 UNL     1      10.738  -1.269  49.563  1.00  0.00    -0.010 C 
BRANCH  22  23
HETATM   23  C19 UNL     1      11.280  -1.551  48.242  1.00  0.00     0.087 C 
BRANCH  23  24
HETATM   24  N3  UNL     1      12.585  -1.960  47.982  1.00  0.00    -0.333 N 
HETATM   25  C20 UNL     1      13.775  -1.260  47.914  1.00  0.00     0.260 C 
HETATM   26  O1  UNL     1      13.798  -0.001  48.073  1.00  0.00    -0.267 OA
ATOM     27  H3  UNL     1      12.681  -2.961  47.811  1.00  0.00     0.168 HD
BRANCH  25  28
HETATM   28  C21 UNL     1      15.120  -1.858  47.652  1.00  0.00     0.167 C 
BRANCH  28  29
HETATM   29  N4  UNL     1      15.097  -3.264  47.594  1.00  0.00    -0.314 N 
HETATM   30  C22 UNL     1      14.930  -4.070  48.761  1.00  0.00     0.320 C 
HETATM   31  O2  UNL     1      14.822  -3.484  49.873  1.00  0.00    -0.247 OA
HETATM   32  N5  UNL     1      14.888  -5.501  48.675  1.00  0.00    -0.339 N 
ATOM     33  H5  UNL     1      14.961  -5.964  47.769  1.00  0.00     0.164 HD
ATOM     34  H4  UNL     1      15.202  -3.723  46.689  1.00  0.00     0.170 HD
BRANCH  32  35
HETATM   35  C23 UNL     1      14.742  -6.275  49.865  1.00  0.00     0.164 C 
BRANCH  35  36
HETATM   36  C24 UNL     1      15.998  -6.883  50.313  1.00  0.00    -0.019 A 
HETATM   37  C25 UNL     1      16.771  -6.297  51.269  1.00  0.00     0.010 A 
HETATM   38  C26 UNL     1      17.989  -6.870  51.659  1.00  0.00     0.001 A 
HETATM   39  C27 UNL     1      18.441  -8.024  51.098  1.00  0.00     0.002 A 
HETATM   40  C28 UNL     1      17.652  -8.606  50.134  1.00  0.00     0.024 A 
HETATM   41  C29 UNL     1      16.463  -8.065  49.741  1.00  0.00     0.042 A 
HETATM   42 CL1  UNL     1      15.491  -8.826  48.520  1.00  0.00    -0.084 Cl
ENDBRANCH  35  36
ENDBRANCH  32  35
ENDBRANCH  28  29
ENDBRANCH  25  28
ENDBRANCH  23  24
ENDBRANCH  22  23
ENDBRANCH   1  22
TORSDOF 14
ENDMDL
MODEL 3
REMARK VINA RESULT: -8.979029798      1.980      3.102
REMARK  14 active torsions:
REMARK  status: ('A' for Active; 'I' for Inactive)
REMARK    1  A    between atoms: N1_2  and  C2_3 
REMARK    2  A    between atoms: C2_3  and  C3_4 
REMARK    3  A    between atoms: N2_14  and  C13_15 
REMARK    4  A    between atoms: C13_15  and  C14_16 
REMARK    5  A    between atoms: C14_16  and  C15_17 
REMARK    6  A    between atoms: C15_17  and  C16_18 
REMARK    7  A    between atoms: C16_18  and  C17_19 
REMARK    8  A    between atoms: C17_19  and  C18_20 
REMARK    9  A    between atoms: C18_20  and  C19_21 
REMARK   10  A    between atoms: C19_21  and  N3_22 
REMARK       I    between atoms: N3_22  and  C20_24 
REMARK   11  A    between atoms: C20_24  and  C21_26 
REMARK   12  A    between atoms: C21_26  and  N4_27 
REMARK       I    between atoms: N4_27  and  C22_29 
REMARK       I    between atoms: C22_29  and  N5_31 
REMARK   13  A    between atoms: N5_31  and  C23_33 
REMARK   14  A    between atoms: C23_33  and  C24_34 
ROOT
HETATM    1  C17 UNL     1       6.561  -3.747  49.237  1.00  0.00     0.028 C 
ENDROOT
BRANCH   1   2
HETATM    2  C16 UNL     1       5.536  -3.857  48.128  1.00  0.00     0.004 C 
BRANCH   2   3
HETATM    3  C15 UNL     1       4.852  -2.607  47.764  1.00  0.00     0.002 C 
BRANCH   3   4
HETATM    4  C14 UNL     1       5.590  -1.534  47.066  1.00  0.00     0.030 C 
BRANCH   4   5
HETATM    5  C13 UNL     1       5.873  -0.290  47.814  1.00  0.00     0.272 C 
BRANCH   5   6
HETATM    6  N2  UNL     1       5.671  -0.222  49.211  1.00  0.00     0.090 N 
HETATM    7  C12 UNL     1       6.982  -0.116  49.907  1.00  0.00     0.274 C 
HETATM    8  C11 UNL     1       7.636   1.203  49.692  1.00  0.00     0.058 C 
HETATM    9  C10 UNL     1       6.999   2.243  50.572  1.00  0.00     0.238 C 
HETATM   10  N1  UNL     1       6.056   3.090  49.865  1.00  0.00    -0.069 N 
HETATM   11  C1  UNL     1       5.262   3.749  50.881  1.00  0.00     0.272 C 
HETATM   12  C31 UNL     1       5.165   2.219  49.085  1.00  0.00     0.267 C 
HETATM   13  C30 UNL     1       4.861   0.905  49.670  1.00  0.00     0.300 C 
BRANCH  10  14
HETATM   14  C2  UNL     1       6.665   3.967  48.923  1.00  0.00     0.241 C 
BRANCH  14  15
HETATM   15  C3  UNL     1       7.741   4.876  49.367  1.00  0.00     0.012 C 
HETATM   16  C4  UNL     1       8.947   4.810  48.463  1.00  0.00     0.006 C 
HETATM   17  C5  UNL     1       9.862   5.980  48.863  1.00  0.00     0.000 C 
HETATM   18  C6  UNL     1      10.005   5.949  50.345  1.00  0.00     0.000 C 
HETATM   19  C7  UNL     1       8.935   6.700  51.075  1.00  0.00     0.000 C 
HETATM   20  C8  UNL     1       7.863   7.255  50.202  1.00  0.00     0.000 C 
HETATM   21  C9  UNL     1       7.234   6.325  49.240  1.00  0.00     0.006 C 
ENDBRANCH  14  15
ENDBRANCH  10  14
ENDBRANCH   5   6
ENDBRANCH   4   5
ENDBRANCH   3   4
ENDBRANCH   2   3
ENDBRANCH   1   2
BRANCH   1  22
HETATM   22  C18 UNL     1       7.905  -4.224  48.887  1.00  0.00    -0.010 C 
BRANCH  22  23
HETATM   23  C19 UNL     1       8.630  -3.860  47.679  1.00  0.00     0.087 C 
BRANCH  23  24
HETATM   24  N3  UNL     1       9.966  -3.468  47.634  1.00  0.00    -0.333 N 
HETATM   25  C20 UNL     1      10.667  -2.503  48.331  1.00  0.00     0.260 C 
HETATM   26  O1  UNL     1      10.082  -1.756  49.174  1.00  0.00    -0.267 OA
ATOM     27  H3  UNL     1      10.530  -3.990  46.963  1.00  0.00     0.168 HD
BRANCH  25  28
HETATM   28  C21 UNL     1      12.128  -2.219  48.188  1.00  0.00     0.167 C 
BRANCH  28  29
HETATM   29  N4  UNL     1      12.893  -3.375  47.942  1.00  0.00    -0.314 N 
HETATM   30  C22 UNL     1      13.864  -3.857  48.872  1.00  0.00     0.320 C 
HETATM   31  O2  UNL     1      14.041  -3.200  49.934  1.00  0.00    -0.247 OA
HETATM   32  N5  UNL     1      14.616  -5.050  48.608  1.00  0.00    -0.339 N 
ATOM     33  H5  UNL     1      14.453  -5.581  47.753  1.00  0.00     0.164 HD
ATOM     34  H4  UNL     1      12.748  -3.885  47.070  1.00  0.00     0.170 HD
BRANCH  32  35
HETATM   35  C23 UNL     1      15.593  -5.489  49.551  1.00  0.00     0.164 C 
BRANCH  35  36
HETATM   36  C24 UNL     1      15.518  -6.927  49.828  1.00  0.00    -0.019 A 
HETATM   37  C25 UNL     1      14.783  -7.765  49.045  1.00  0.00     0.010 A 
HETATM   38  C26 UNL     1      14.690  -9.130  49.345  1.00  0.00     0.001 A 
HETATM   39  C27 UNL     1      15.324  -9.664  50.424  1.00  0.00     0.002 A 
HETATM   40  C28 UNL     1      16.061  -8.808  51.207  1.00  0.00     0.024 A 
HETATM   41  C29 UNL     1      16.166  -7.476  50.931  1.00  0.00     0.042 A 
HETATM   42 CL1  UNL     1      17.107  -6.423  51.941  1.00  0.00    -0.084 Cl
ENDBRANCH  35  36
ENDBRANCH  32  35
ENDBRANCH  28  29
ENDBRANCH  25  28
ENDBRANCH  23  24
ENDBRANCH  22  23
ENDBRANCH   1  22
TORSDOF 14
ENDMDL
MODEL 4
REMARK VINA RESULT: -8.932511263      4.265      7.815
REMARK  14 active torsions:
REMARK  status: ('A' for Active; 'I' for Inactive)
REMARK    1  A    between atoms: N1_2  and  C2_3 
REMARK    2  A    between atoms: C2_3  and  C3_4 
REMARK    3  A    between atoms: N2_14  and  C13_15 
REMARK    4  A    between atoms: C13_15  and  C14_16 
REMARK    5  A    between atoms: C14_16  and  C15_17 
REMARK    6  A    between atoms: C15_17  and  C16_18 
REMARK    7  A    between atoms: C16_18  and  C17_19 
REMARK    8  A    between atoms: C17_19  and  C18_20 
REMARK    9  A    between atoms: C18_20  and  C19_21 
REMARK   10  A    between atoms: C19_21  and  N3_22 
REMARK       I    between atoms: N3_22  and  C20_24 
REMARK   11  A    between atoms: C20_24  and  C21_26 
REMARK   12  A    between atoms: C21_26  and  N4_27 
REMARK       I    between atoms: N4_27  and  C22_29 
REMARK       I    between atoms: C22_29  and  N5_31 
REMARK   13  A    between atoms: N5_31  and  C23_33 
REMARK   14  A    between atoms: C23_33  and  C24_34 
ROOT
HETATM    1  C17 UNL     1      10.747   3.269  50.826  1.00  0.00     0.028 C 
ENDROOT
BRANCH   1   2
HETATM    2  C16 UNL     1       9.598   4.018  50.187  1.00  0.00     0.004 C 
BRANCH   2   3
HETATM    3  C15 UNL     1       9.962   5.238  49.450  1.00  0.00     0.002 C 
BRANCH   3   4
HETATM    4  C14 UNL     1       9.298   5.555  48.167  1.00  0.00     0.030 C 
BRANCH   4   5
HETATM    5  C13 UNL     1       7.820   5.575  48.140  1.00  0.00     0.272 C 
BRANCH   5   6
HETATM    6  N2  UNL     1       7.097   6.620  48.758  1.00  0.00     0.090 N 
HETATM    7  C12 UNL     1       5.927   6.993  47.918  1.00  0.00     0.274 C 
HETATM    8  C11 UNL     1       4.874   5.941  47.910  1.00  0.00     0.058 C 
HETATM    9  C10 UNL     1       4.075   6.002  49.183  1.00  0.00     0.238 C 
HETATM   10  N1  UNL     1       4.460   4.989  50.148  1.00  0.00    -0.069 N 
HETATM   11  C1  UNL     1       3.906   5.408  51.418  1.00  0.00     0.272 C 
HETATM   12  C31 UNL     1       5.925   5.007  50.261  1.00  0.00     0.267 C 
HETATM   13  C30 UNL     1       6.576   6.314  50.090  1.00  0.00     0.300 C 
BRANCH  10  14
HETATM   14  C2  UNL     1       4.117   3.663  49.757  1.00  0.00     0.241 C 
BRANCH  14  15
HETATM   15  C3  UNL     1       5.191   2.698  49.443  1.00  0.00     0.012 C 
HETATM   16  C4  UNL     1       5.038   1.411  50.215  1.00  0.00     0.006 C 
HETATM   17  C5  UNL     1       6.033   0.411  49.603  1.00  0.00     0.000 C 
HETATM   18  C6  UNL     1       7.351   1.097  49.500  1.00  0.00     0.000 C 
HETATM   19  C7  UNL     1       7.538   1.867  48.230  1.00  0.00     0.000 C 
HETATM   20  C8  UNL     1       6.340   1.898  47.343  1.00  0.00     0.000 C 
HETATM   21  C9  UNL     1       5.057   2.288  47.965  1.00  0.00     0.006 C 
ENDBRANCH  14  15
ENDBRANCH  10  14
ENDBRANCH   5   6
ENDBRANCH   4   5
ENDBRANCH   3   4
ENDBRANCH   2   3
ENDBRANCH   1   2
BRANCH   1  22
HETATM   22  C18 UNL     1      10.749   1.819  50.591  1.00  0.00    -0.010 C 
BRANCH  22  23
HETATM   23  C19 UNL     1      11.033   1.183  49.314  1.00  0.00     0.087 C 
BRANCH  23  24
HETATM   24  N3  UNL     1      10.996  -0.188  49.076  1.00  0.00    -0.333 N 
HETATM   25  C20 UNL     1      11.943  -1.065  48.584  1.00  0.00     0.260 C 
HETATM   26  O1  UNL     1      13.086  -0.650  48.221  1.00  0.00    -0.267 OA
ATOM     27  H3  UNL     1      10.104  -0.627  49.309  1.00  0.00     0.168 HD
BRANCH  25  28
HETATM   28  C21 UNL     1      11.757  -2.539  48.413  1.00  0.00     0.167 C 
BRANCH  28  29
HETATM   29  N4  UNL     1      10.673  -2.865  47.578  1.00  0.00    -0.314 N 
HETATM   30  C22 UNL     1       9.363  -3.110  48.092  1.00  0.00     0.320 C 
HETATM   31  O2  UNL     1       9.198  -3.046  49.341  1.00  0.00    -0.247 OA
HETATM   32  N5  UNL     1       8.268  -3.419  47.218  1.00  0.00    -0.339 N 
ATOM     33  H5  UNL     1       8.410  -3.452  46.208  1.00  0.00     0.164 HD
ATOM     34  H4  UNL     1      10.827  -2.928  46.571  1.00  0.00     0.170 HD
BRANCH  32  35
HETATM   35  C23 UNL     1       6.978  -3.678  47.769  1.00  0.00     0.164 C 
BRANCH  35  36
HETATM   36  C24 UNL     1       5.963  -2.714  47.336  1.00  0.00    -0.019 A 
HETATM   37  C25 UNL     1       6.094  -2.017  46.173  1.00  0.00     0.010 A 
HETATM   38  C26 UNL     1       5.135  -1.070  45.791  1.00  0.00     0.001 A 
HETATM   39  C27 UNL     1       4.046  -0.812  46.565  1.00  0.00     0.002 A 
HETATM   40  C28 UNL     1       3.926  -1.520  47.737  1.00  0.00     0.024 A 
HETATM   41  C29 UNL     1       4.848  -2.448  48.126  1.00  0.00     0.042 A 
HETATM   42 CL1  UNL     1       4.664  -3.325  49.613  1.00  0.00    -0.084 Cl
ENDBRANCH  35  36
ENDBRANCH  32  35
ENDBRANCH  28  29
ENDBRANCH  25  28
ENDBRANCH  23  24
ENDBRANCH  22  23
ENDBRANCH   1  22
TORSDOF 14
ENDMDL
MODEL 5
REMARK VINA RESULT: -8.900914591      1.798      2.828
REMARK  14 active torsions:
REMARK  status: ('A' for Active; 'I' for Inactive)
REMARK    1  A    between atoms: N1_2  and  C2_3 
REMARK    2  A    between atoms: C2_3  and  C3_4 
REMARK    3  A    between atoms: N2_14  and  C13_15 
REMARK    4  A    between atoms: C13_15  and  C14_16 
REMARK    5  A    between atoms: C14_16  and  C15_17 
REMARK    6  A    between atoms: C15_17  and  C16_18 
REMARK    7  A    between atoms: C16_18  and  C17_19 
REMARK    8  A    between atoms: C17_19  and  C18_20 
REMARK    9  A    between atoms: C18_20  and  C19_21 
REMARK   10  A    between atoms: C19_21  and  N3_22 
REMARK       I    between atoms: N3_22  and  C20_24 
REMARK   11  A    between atoms: C20_24  and  C21_26 
REMARK   12  A    between atoms: C21_26  and  N4_27 
REMARK       I    between atoms: N4_27  and  C22_29 
REMARK       I    between atoms: C22_29  and  N5_31 
REMARK   13  A    between atoms: N5_31  and  C23_33 
REMARK   14  A    between atoms: C23_33  and  C24_34 
ROOT
HETATM    1  C17 UNL     1       6.342  -4.156  48.247  1.00  0.00     0.028 C 
ENDROOT
BRANCH   1   2
HETATM    2  C16 UNL     1       5.993  -2.925  47.438  1.00  0.00     0.004 C 
BRANCH   2   3
HETATM    3  C15 UNL     1       4.821  -2.167  47.902  1.00  0.00     0.002 C 
BRANCH   3   4
HETATM    4  C14 UNL     1       4.464  -2.158  49.336  1.00  0.00     0.030 C 
BRANCH   4   5
HETATM    5  C13 UNL     1       5.192  -1.226  50.224  1.00  0.00     0.272 C 
BRANCH   5   6
HETATM    6  N2  UNL     1       4.547  -0.091  50.767  1.00  0.00     0.090 N 
HETATM    7  C12 UNL     1       5.410   0.533  51.806  1.00  0.00     0.274 C 
HETATM    8  C11 UNL     1       6.614   1.190  51.227  1.00  0.00     0.058 C 
HETATM    9  C10 UNL     1       6.238   2.520  50.632  1.00  0.00     0.238 C 
HETATM   10  N1  UNL     1       6.106   2.483  49.187  1.00  0.00    -0.069 N 
HETATM   11  C1  UNL     1       5.383   3.681  48.816  1.00  0.00     0.272 C 
HETATM   12  C31 UNL     1       5.274   1.322  48.841  1.00  0.00     0.267 C 
HETATM   13  C30 UNL     1       4.224   0.961  49.804  1.00  0.00     0.300 C 
BRANCH  10  14
HETATM   14  C2  UNL     1       7.340   2.295  48.502  1.00  0.00     0.241 C 
BRANCH  14  15
HETATM   15  C3  UNL     1       8.611   2.552  49.211  1.00  0.00     0.012 C 
HETATM   16  C4  UNL     1       9.621   1.456  48.977  1.00  0.00     0.006 C 
HETATM   17  C5  UNL     1      10.962   1.969  49.526  1.00  0.00     0.000 C 
HETATM   18  C6  UNL     1      10.710   2.508  50.891  1.00  0.00     0.000 C 
HETATM   19  C7  UNL     1      10.295   3.946  50.911  1.00  0.00     0.000 C 
HETATM   20  C8  UNL     1      10.107   4.555  49.563  1.00  0.00     0.000 C 
HETATM   21  C9  UNL     1       9.254   3.815  48.608  1.00  0.00     0.006 C 
ENDBRANCH  14  15
ENDBRANCH  10  14
ENDBRANCH   5   6
ENDBRANCH   4   5
ENDBRANCH   3   4
ENDBRANCH   2   3
ENDBRANCH   1   2
BRANCH   1  22
HETATM   22  C18 UNL     1       7.652  -4.111  48.910  1.00  0.00    -0.010 C 
BRANCH  22  23
HETATM   23  C19 UNL     1       8.458  -2.912  49.081  1.00  0.00     0.087 C 
BRANCH  23  24
HETATM   24  N3  UNL     1       9.718  -2.708  48.526  1.00  0.00    -0.333 N 
HETATM   25  C20 UNL     1      10.864  -2.121  49.029  1.00  0.00     0.260 C 
HETATM   26  O1  UNL     1      10.876  -1.614  50.193  1.00  0.00    -0.267 OA
ATOM     27  H3  UNL     1       9.814  -3.056  47.572  1.00  0.00     0.168 HD
BRANCH  25  28
HETATM   28  C21 UNL     1      12.168  -2.005  48.308  1.00  0.00     0.167 C 
BRANCH  28  29
HETATM   29  N4  UNL     1      12.781  -3.250  48.072  1.00  0.00    -0.314 N 
HETATM   30  C22 UNL     1      13.841  -3.744  48.892  1.00  0.00     0.320 C 
HETATM   31  O2  UNL     1      14.241  -3.016  49.842  1.00  0.00    -0.247 OA
HETATM   32  N5  UNL     1      14.435  -5.026  48.645  1.00  0.00    -0.339 N 
ATOM     33  H5  UNL     1      14.094  -5.612  47.883  1.00  0.00     0.164 HD
ATOM     34  H4  UNL     1      12.457  -3.819  47.290  1.00  0.00     0.170 HD
BRANCH  32  35
HETATM   35  C23 UNL     1      15.507  -5.476  49.472  1.00  0.00     0.164 C 
BRANCH  35  36
HETATM   36  C24 UNL     1      15.440  -6.910  49.769  1.00  0.00    -0.019 A 
HETATM   37  C25 UNL     1      14.698  -7.761  49.007  1.00  0.00     0.010 A 
HETATM   38  C26 UNL     1      14.611  -9.122  49.325  1.00  0.00     0.001 A 
HETATM   39  C27 UNL     1      15.260  -9.640  50.403  1.00  0.00     0.002 A 
HETATM   40  C28 UNL     1      16.006  -8.772  51.165  1.00  0.00     0.024 A 
HETATM   41  C29 UNL     1      16.103  -7.443  50.871  1.00  0.00     0.042 A 
HETATM   42 CL1  UNL     1      17.054  -6.375  51.855  1.00  0.00    -0.084 Cl
ENDBRANCH  35  36
ENDBRANCH  32  35
ENDBRANCH  28  29
ENDBRANCH  25  28
ENDBRANCH  23  24
ENDBRANCH  22  23
ENDBRANCH   1  22
TORSDOF 14
ENDMDL
