MODEL 1
REMARK VINA RESULT: -8.285798260      0.000      0.000
REMARK  15 active torsions:
REMARK  status: ('A' for Active; 'I' for Inactive)
REMARK    1  A    between atoms: C2_2  and  C3_3 
REMARK    2  A    between atoms: C3_3  and  C4_4 
REMARK    3  A    between atoms: C4_4  and  C5_5 
REMARK    4  A    between atoms: C5_5  and  C6_6 
REMARK    5  A    between atoms: C6_6  and  C7_7 
REMARK    6  A    between atoms: C7_7  and  C8_8 
REMARK    7  A    between atoms: C8_8  and  C9_9 
REMARK    8  A    between atoms: N3_22  and  C15_23 
REMARK    9  A    between atoms: C15_23  and  C16_24 
REMARK   10  A    between atoms: C16_24  and  C17_25 
REMARK   11  A    between atoms: C17_25  and  C18_26 
REMARK   12  A    between atoms: C18_26  and  C19_27 
REMARK   13  A    between atoms: C19_27  and  C20_28 
REMARK   14  A    between atoms: C23_31  and  S1_32 
REMARK   15  A    between atoms: S1_32  and  N4_33 
ROOT
HETATM    1  C1  UNL     1       4.399  -1.077  50.327  1.00  0.00     0.046 C 
HETATM    2  C2  UNL     1       5.289   0.109  50.386  1.00  0.00    -0.054 C 
HETATM    3  C10 UNL     1       5.750   0.792  49.352  1.00  0.00     0.069 A 
HETATM    4  C11 UNL     1       6.658   1.966  49.510  1.00  0.00     0.096 A 
HETATM    5  N1  UNL     1       7.340   2.759  50.342  1.00  0.00    -0.294 N 
ATOM      6  H1  UNL     1       7.344   2.655  51.357  1.00  0.00     0.187 HD
HETATM    7  N2  UNL     1       8.020   3.706  49.682  1.00  0.00    -0.265 N 
ATOM      8  H2  UNL     1       8.613   4.428  50.089  1.00  0.00     0.190 HD
HETATM    9  C12 UNL     1       7.770   3.518  48.393  1.00  0.00     0.278 A 
HETATM   10  O1  UNL     1       8.225   4.203  47.455  1.00  0.00    -0.266 OA
HETATM   11  C13 UNL     1       6.916   2.429  48.246  1.00  0.00     0.132 A 
HETATM   12  C14 UNL     1       6.215   1.604  47.274  1.00  0.00     0.266 A 
HETATM   13  O2  UNL     1       6.274   1.794  46.035  1.00  0.00    -0.267 OA
HETATM   14  N3  UNL     1       5.483   0.581  47.956  1.00  0.00    -0.311 N 
ENDROOT
BRANCH  14  15
HETATM   15  C15 UNL     1       4.653  -0.429  47.335  1.00  0.00     0.133 C 
BRANCH  15  16
HETATM   16  C16 UNL     1       5.374  -1.649  46.850  1.00  0.00     0.020 C 
BRANCH  16  17
HETATM   17  C17 UNL     1       4.993  -2.961  47.441  1.00  0.00     0.002 C 
BRANCH  17  18
HETATM   18  C18 UNL     1       6.154  -3.838  47.831  1.00  0.00     0.005 C 
BRANCH  18  19
HETATM   19  C19 UNL     1       6.839  -3.336  49.083  1.00  0.00     0.038 C 
BRANCH  19  20
HETATM   20  C20 UNL     1       8.288  -3.099  48.907  1.00  0.00    -0.058 A 
HETATM   21  C21 UNL     1       9.061  -3.777  47.990  1.00  0.00     0.009 A 
HETATM   22  C22 UNL     1      10.415  -3.544  47.838  1.00  0.00     0.026 A 
HETATM   23  C23 UNL     1      11.024  -2.592  48.635  1.00  0.00     0.079 A 
HETATM   24  C24 UNL     1      10.286  -1.906  49.552  1.00  0.00     0.026 A 
HETATM   25  C25 UNL     1       8.937  -2.151  49.691  1.00  0.00     0.009 A 
BRANCH  23  26
HETATM   26  S1  UNL     1      12.743  -2.328  48.410  1.00  0.00     0.256 S 
HETATM   27  O3  UNL     1      13.450  -2.833  49.622  1.00  0.00    -0.201 OA
HETATM   28  O4  UNL     1      13.040  -0.869  48.212  1.00  0.00    -0.201 OA
BRANCH  26  29
HETATM   29  N4  UNL     1      13.207  -3.162  46.973  1.00  0.00    -0.324 N 
ATOM     30  H42 UNL     1      13.298  -4.174  46.877  1.00  0.00     0.169 HD
ATOM     31  H41 UNL     1      13.371  -2.459  46.252  1.00  0.00     0.169 HD
ENDBRANCH  26  29
ENDBRANCH  23  26
ENDBRANCH  19  20
ENDBRANCH  18  19
ENDBRANCH  17  18
ENDBRANCH  16  17
ENDBRANCH  15  16
ENDBRANCH  14  15
BRANCH   2  32
HETATM   32  C3  UNL     1       5.584   0.549  51.794  1.00  0.00     0.036 C 
BRANCH  32  33
HETATM   33  C4  UNL     1       4.375   0.774  52.623  1.00  0.00     0.004 C 
BRANCH  33  34
HETATM   34  C5  UNL     1       3.772   2.148  52.537  1.00  0.00     0.000 C 
BRANCH  34  35
HETATM   35  C6  UNL     1       2.593   2.127  51.603  1.00  0.00     0.000 C 
BRANCH  35  36
HETATM   36  C7  UNL     1       2.740   3.057  50.447  1.00  0.00     0.001 C 
BRANCH  36  37
HETATM   37  C8  UNL     1       3.887   4.034  50.613  1.00  0.00     0.011 C 
BRANCH  37  38
HETATM   38  C9  UNL     1       4.159   4.628  49.244  1.00  0.00     0.085 C 
HETATM   39 BR1  UNL     1       4.764   6.443  49.438  1.00  0.00    -0.097 Br
ENDBRANCH  37  38
ENDBRANCH  36  37
ENDBRANCH  35  36
ENDBRANCH  34  35
ENDBRANCH  33  34
ENDBRANCH  32  33
ENDBRANCH   2  32
TORSDOF 15
ENDMDL
MODEL 2
REMARK VINA RESULT: -8.214865448      2.081      2.545
REMARK  15 active torsions:
REMARK  status: ('A' for Active; 'I' for Inactive)
REMARK    1  A    between atoms: C2_2  and  C3_3 
REMARK    2  A    between atoms: C3_3  and  C4_4 
REMARK    3  A    between atoms: C4_4  and  C5_5 
REMARK    4  A    between atoms: C5_5  and  C6_6 
REMARK    5  A    between atoms: C6_6  and  C7_7 
REMARK    6  A    between atoms: C7_7  and  C8_8 
REMARK    7  A    between atoms: C8_8  and  C9_9 
REMARK    8  A    between atoms: N3_22  and  C15_23 
REMARK    9  A    between atoms: C15_23  and  C16_24 
REMARK   10  A    between atoms: C16_24  and  C17_25 
REMARK   11  A    between atoms: C17_25  and  C18_26 
REMARK   12  A    between atoms: C18_26  and  C19_27 
REMARK   13  A    between atoms: C19_27  and  C20_28 
REMARK   14  A    between atoms: C23_31  and  S1_32 
REMARK   15  A    between atoms: S1_32  and  N4_33 
ROOT
HETATM    1  C1  UNL     1       4.383  -1.065  50.333  1.00  0.00     0.046 C 
HETATM    2  C2  UNL     1       5.286   0.110  50.400  1.00  0.00    -0.054 C 
HETATM    3  C10 UNL     1       5.750   0.798  49.372  1.00  0.00     0.069 A 
HETATM    4  C11 UNL     1       6.672   1.961  49.538  1.00  0.00     0.096 A 
HETATM    5  N1  UNL     1       7.367   2.737  50.375  1.00  0.00    -0.294 N 
ATOM      6  H1  UNL     1       7.374   2.623  51.389  1.00  0.00     0.187 HD
HETATM    7  N2  UNL     1       8.054   3.683  49.722  1.00  0.00    -0.265 N 
ATOM      8  H2  UNL     1       8.657   4.395  50.135  1.00  0.00     0.190 HD
HETATM    9  C12 UNL     1       7.797   3.511  48.432  1.00  0.00     0.278 A 
HETATM   10  O1  UNL     1       8.255   4.201  47.500  1.00  0.00    -0.266 OA
HETATM   11  C13 UNL     1       6.930   2.434  48.278  1.00  0.00     0.132 A 
HETATM   12  C14 UNL     1       6.215   1.627  47.300  1.00  0.00     0.266 A 
HETATM   13  O2  UNL     1       6.271   1.830  46.063  1.00  0.00    -0.267 OA
HETATM   14  N3  UNL     1       5.474   0.605  47.974  1.00  0.00    -0.311 N 
ENDROOT
BRANCH  14  15
HETATM   15  C15 UNL     1       4.631  -0.388  47.347  1.00  0.00     0.133 C 
BRANCH  15  16
HETATM   16  C16 UNL     1       5.337  -1.607  46.837  1.00  0.00     0.020 C 
BRANCH  16  17
HETATM   17  C17 UNL     1       4.978  -2.920  47.438  1.00  0.00     0.002 C 
BRANCH  17  18
HETATM   18  C18 UNL     1       6.152  -3.792  47.796  1.00  0.00     0.005 C 
BRANCH  18  19
HETATM   19  C19 UNL     1       6.838  -3.317  49.058  1.00  0.00     0.038 C 
BRANCH  19  20
HETATM   20  C20 UNL     1       8.289  -3.087  48.891  1.00  0.00    -0.058 A 
HETATM   21  C21 UNL     1       9.054  -3.736  47.947  1.00  0.00     0.009 A 
HETATM   22  C22 UNL     1      10.411  -3.510  47.803  1.00  0.00     0.026 A 
HETATM   23  C23 UNL     1      11.029  -2.597  48.636  1.00  0.00     0.079 A 
HETATM   24  C24 UNL     1      10.298  -1.940  49.579  1.00  0.00     0.026 A 
HETATM   25  C25 UNL     1       8.947  -2.176  49.710  1.00  0.00     0.009 A 
BRANCH  23  26
HETATM   26  S1  UNL     1      12.751  -2.341  48.419  1.00  0.00     0.256 S 
HETATM   27  O3  UNL     1      13.449  -2.841  49.638  1.00  0.00    -0.201 OA
HETATM   28  O4  UNL     1      13.055  -0.884  48.215  1.00  0.00    -0.201 OA
BRANCH  26  29
HETATM   29  N4  UNL     1      13.220  -3.185  46.990  1.00  0.00    -0.324 N 
ATOM     30  H42 UNL     1      13.925  -3.920  46.940  1.00  0.00     0.169 HD
ATOM     31  H41 UNL     1      12.665  -2.811  46.220  1.00  0.00     0.169 HD
ENDBRANCH  26  29
ENDBRANCH  23  26
ENDBRANCH  19  20
ENDBRANCH  18  19
ENDBRANCH  17  18
ENDBRANCH  16  17
ENDBRANCH  15  16
ENDBRANCH  14  15
BRANCH   2  32
HETATM   32  C3  UNL     1       5.592   0.532  51.812  1.00  0.00     0.036 C 
BRANCH  32  33
HETATM   33  C4  UNL     1       4.401   0.609  52.691  1.00  0.00     0.004 C 
BRANCH  33  34
HETATM   34  C5  UNL     1       3.445   1.731  52.396  1.00  0.00     0.000 C 
BRANCH  34  35
HETATM   35  C6  UNL     1       2.472   1.881  53.534  1.00  0.00     0.000 C 
BRANCH  35  36
HETATM   36  C7  UNL     1       1.046   1.790  53.107  1.00  0.00     0.001 C 
BRANCH  36  37
HETATM   37  C8  UNL     1       0.284   0.688  53.817  1.00  0.00     0.011 C 
BRANCH  37  38
HETATM   38  C9  UNL     1       1.221   0.109  54.859  1.00  0.00     0.085 C 
HETATM   39 BR1  UNL     1       0.218  -0.378  56.426  1.00  0.00    -0.097 Br
ENDBRANCH  37  38
ENDBRANCH  36  37
ENDBRANCH  35  36
ENDBRANCH  34  35
ENDBRANCH  33  34
ENDBRANCH  32  33
ENDBRANCH   2  32
TORSDOF 15
ENDMDL
MODEL 3
REMARK VINA RESULT: -8.207978516      4.348      7.144
REMARK  15 active torsions:
REMARK  status: ('A' for Active; 'I' for Inactive)
REMARK    1  A    between atoms: C2_2  and  C3_3 
REMARK    2  A    between atoms: C3_3  and  C4_4 
REMARK    3  A    between atoms: C4_4  and  C5_5 
REMARK    4  A    between atoms: C5_5  and  C6_6 
REMARK    5  A    between atoms: C6_6  and  C7_7 
REMARK    6  A    between atoms: C7_7  and  C8_8 
REMARK    7  A    between atoms: C8_8  and  C9_9 
REMARK    8  A    between atoms: N3_22  and  C15_23 
REMARK    9  A    between atoms: C15_23  and  C16_24 
REMARK   10  A    between atoms: C16_24  and  C17_25 
REMARK   11  A    between atoms: C17_25  and  C18_26 
REMARK   12  A    between atoms: C18_26  and  C19_27 
REMARK   13  A    between atoms: C19_27  and  C20_28 
REMARK   14  A    between atoms: C23_31  and  S1_32 
REMARK   15  A    between atoms: S1_32  and  N4_33 
ROOT
HETATM    1  C1  UNL     1       5.600  -3.052  50.596  1.00  0.00     0.046 C 
HETATM    2  C2  UNL     1       5.664  -2.663  49.165  1.00  0.00    -0.054 C 
HETATM    3  C10 UNL     1       5.289  -1.505  48.653  1.00  0.00     0.069 A 
HETATM    4  C11 UNL     1       5.375  -1.210  47.192  1.00  0.00     0.096 A 
HETATM    5  N1  UNL     1       5.688  -1.652  45.971  1.00  0.00    -0.294 N 
ATOM      6  H1  UNL     1       6.053  -2.584  45.775  1.00  0.00     0.187 HD
HETATM    7  N2  UNL     1       5.464  -0.722  45.032  1.00  0.00    -0.265 N 
ATOM      8  H2  UNL     1       5.623  -0.816  44.030  1.00  0.00     0.190 HD
HETATM    9  C12 UNL     1       4.994   0.344  45.666  1.00  0.00     0.278 A 
HETATM   10  O1  UNL     1       4.666   1.422  45.132  1.00  0.00    -0.266 OA
HETATM   11  C13 UNL     1       4.923   0.074  47.028  1.00  0.00     0.132 A 
HETATM   12  C14 UNL     1       4.546   0.625  48.321  1.00  0.00     0.266 A 
HETATM   13  O2  UNL     1       4.091   1.784  48.472  1.00  0.00    -0.267 OA
HETATM   14  N3  UNL     1       4.773  -0.352  49.342  1.00  0.00    -0.311 N 
ENDROOT
BRANCH  14  15
HETATM   15  C15 UNL     1       4.531  -0.177  50.757  1.00  0.00     0.133 C 
BRANCH  15  16
HETATM   16  C16 UNL     1       5.709   0.276  51.564  1.00  0.00     0.020 C 
BRANCH  16  17
HETATM   17  C17 UNL     1       6.863   0.868  50.835  1.00  0.00     0.002 C 
BRANCH  17  18
HETATM   18  C18 UNL     1       7.899  -0.126  50.379  1.00  0.00     0.005 C 
BRANCH  18  19
HETATM   19  C19 UNL     1       8.775   0.441  49.284  1.00  0.00     0.038 C 
BRANCH  19  20
HETATM   20  C20 UNL     1       9.072   1.880  49.452  1.00  0.00    -0.058 A 
HETATM   21  C21 UNL     1       8.463   2.869  48.711  1.00  0.00     0.009 A 
HETATM   22  C22 UNL     1       8.751   4.211  48.879  1.00  0.00     0.026 A 
HETATM   23  C23 UNL     1       9.686   4.581  49.828  1.00  0.00     0.079 A 
HETATM   24  C24 UNL     1      10.304   3.625  50.576  1.00  0.00     0.026 A 
HETATM   25  C25 UNL     1      10.006   2.292  50.396  1.00  0.00     0.009 A 
BRANCH  23  26
HETATM   26  S1  UNL     1      10.021   6.293  50.009  1.00  0.00     0.256 S 
HETATM   27  O3  UNL     1      10.697   6.765  48.766  1.00  0.00    -0.201 OA
HETATM   28  O4  UNL     1      10.902   6.545  51.199  1.00  0.00    -0.201 OA
BRANCH  26  29
HETATM   29  N4  UNL     1       8.515   7.085  50.288  1.00  0.00    -0.324 N 
ATOM     30  H42 UNL     1       7.595   6.647  50.231  1.00  0.00     0.169 HD
ATOM     31  H41 UNL     1       8.720   8.058  50.516  1.00  0.00     0.169 HD
ENDBRANCH  26  29
ENDBRANCH  23  26
ENDBRANCH  19  20
ENDBRANCH  18  19
ENDBRANCH  17  18
ENDBRANCH  16  17
ENDBRANCH  15  16
ENDBRANCH  14  15
BRANCH   2  32
HETATM   32  C3  UNL     1       6.294  -3.721  48.300  1.00  0.00     0.036 C 
BRANCH  32  33
HETATM   33  C4  UNL     1       7.605  -4.206  48.797  1.00  0.00     0.004 C 
BRANCH  33  34
HETATM   34  C5  UNL     1       8.776  -3.965  47.886  1.00  0.00     0.000 C 
BRANCH  34  35
HETATM   35  C6  UNL     1       9.729  -2.995  48.531  1.00  0.00     0.000 C 
BRANCH  35  36
HETATM   36  C7  UNL     1      11.098  -3.032  47.942  1.00  0.00     0.001 C 
BRANCH  36  37
HETATM   37  C8  UNL     1      12.180  -2.646  48.932  1.00  0.00     0.011 C 
BRANCH  37  38
HETATM   38  C9  UNL     1      13.504  -3.049  48.313  1.00  0.00     0.085 C 
HETATM   39 BR1  UNL     1      14.420  -4.265  49.486  1.00  0.00    -0.097 Br
ENDBRANCH  37  38
ENDBRANCH  36  37
ENDBRANCH  35  36
ENDBRANCH  34  35
ENDBRANCH  33  34
ENDBRANCH  32  33
ENDBRANCH   2  32
TORSDOF 15
ENDMDL
MODEL 4
REMARK VINA RESULT: -8.206375635      4.139      6.128
REMARK  15 active torsions:
REMARK  status: ('A' for Active; 'I' for Inactive)
REMARK    1  A    between atoms: C2_2  and  C3_3 
REMARK    2  A    between atoms: C3_3  and  C4_4 
REMARK    3  A    between atoms: C4_4  and  C5_5 
REMARK    4  A    between atoms: C5_5  and  C6_6 
REMARK    5  A    between atoms: C6_6  and  C7_7 
REMARK    6  A    between atoms: C7_7  and  C8_8 
REMARK    7  A    between atoms: C8_8  and  C9_9 
REMARK    8  A    between atoms: N3_22  and  C15_23 
REMARK    9  A    between atoms: C15_23  and  C16_24 
REMARK   10  A    between atoms: C16_24  and  C17_25 
REMARK   11  A    between atoms: C17_25  and  C18_26 
REMARK   12  A    between atoms: C18_26  and  C19_27 
REMARK   13  A    between atoms: C19_27  and  C20_28 
REMARK   14  A    between atoms: C23_31  and  S1_32 
REMARK   15  A    between atoms: S1_32  and  N4_33 
ROOT
HETATM    1  C1  UNL     1       8.288  -4.190  48.705  1.00  0.00     0.046 C 
HETATM    2  C2  UNL     1       7.693  -2.940  49.241  1.00  0.00    -0.054 C 
HETATM    3  C10 UNL     1       8.280  -1.758  49.299  1.00  0.00     0.069 A 
HETATM    4  C11 UNL     1       7.604  -0.557  49.872  1.00  0.00     0.096 A 
HETATM    5  N1  UNL     1       6.517  -0.050  50.462  1.00  0.00    -0.294 N 
ATOM      6  H1  UNL     1       5.681  -0.592  50.685  1.00  0.00     0.187 HD
HETATM    7  N2  UNL     1       6.658   1.256  50.727  1.00  0.00    -0.265 N 
ATOM      8  H2  UNL     1       5.972   1.866  51.171  1.00  0.00     0.190 HD
HETATM    9  C12 UNL     1       7.865   1.598  50.297  1.00  0.00     0.278 A 
HETATM   10  O1  UNL     1       8.367   2.737  50.367  1.00  0.00    -0.266 OA
HETATM   11  C13 UNL     1       8.492   0.481  49.754  1.00  0.00     0.132 A 
HETATM   12  C14 UNL     1       9.716   0.004  49.128  1.00  0.00     0.266 A 
HETATM   13  O2  UNL     1      10.706   0.739  48.900  1.00  0.00    -0.267 OA
HETATM   14  N3  UNL     1       9.592  -1.392  48.838  1.00  0.00    -0.311 N 
ENDROOT
BRANCH  14  15
HETATM   15  C15 UNL     1      10.594  -2.222  48.207  1.00  0.00     0.133 C 
BRANCH  15  16
HETATM   16  C16 UNL     1      11.872  -2.386  48.971  1.00  0.00     0.020 C 
BRANCH  16  17
HETATM   17  C17 UNL     1      13.147  -2.090  48.263  1.00  0.00     0.002 C 
BRANCH  17  18
HETATM   18  C18 UNL     1      14.049  -3.279  48.063  1.00  0.00     0.005 C 
BRANCH  18  19
HETATM   19  C19 UNL     1      15.013  -3.451  49.216  1.00  0.00     0.038 C 
BRANCH  19  20
HETATM   20  C20 UNL     1      15.215  -4.862  49.610  1.00  0.00    -0.058 A 
HETATM   21  C21 UNL     1      14.611  -5.921  48.969  1.00  0.00     0.009 A 
HETATM   22  C22 UNL     1      14.811  -7.236  49.349  1.00  0.00     0.026 A 
HETATM   23  C23 UNL     1      15.650  -7.504  50.414  1.00  0.00     0.079 A 
HETATM   24  C24 UNL     1      16.261  -6.477  51.068  1.00  0.00     0.026 A 
HETATM   25  C25 UNL     1      16.052  -5.173  50.676  1.00  0.00     0.009 A 
BRANCH  23  26
HETATM   26  S1  UNL     1      15.875  -9.185  50.863  1.00  0.00     0.256 S 
HETATM   27  O3  UNL     1      15.284  -9.383  52.218  1.00  0.00    -0.201 OA
HETATM   28  O4  UNL     1      17.333  -9.544  50.881  1.00  0.00    -0.201 OA
BRANCH  26  29
HETATM   29  N4  UNL     1      15.107 -10.147  49.655  1.00  0.00    -0.324 N 
ATOM     30  H42 UNL     1      14.311 -10.766  49.807  1.00  0.00     0.169 HD
ATOM     31  H41 UNL     1      15.597  -9.979  48.776  1.00  0.00     0.169 HD
ENDBRANCH  26  29
ENDBRANCH  23  26
ENDBRANCH  19  20
ENDBRANCH  18  19
ENDBRANCH  17  18
ENDBRANCH  16  17
ENDBRANCH  15  16
ENDBRANCH  14  15
BRANCH   2  32
HETATM   32  C3  UNL     1       6.260  -3.112  49.668  1.00  0.00     0.036 C 
BRANCH  32  33
HETATM   33  C4  UNL     1       5.379  -3.676  48.616  1.00  0.00     0.004 C 
BRANCH  33  34
HETATM   34  C5  UNL     1       5.178  -2.811  47.403  1.00  0.00     0.000 C 
BRANCH  34  35
HETATM   35  C6  UNL     1       4.418  -1.571  47.785  1.00  0.00     0.000 C 
BRANCH  35  36
HETATM   36  C7  UNL     1       4.130  -0.675  46.628  1.00  0.00     0.001 C 
BRANCH  36  37
HETATM   37  C8  UNL     1       5.215  -0.706  45.570  1.00  0.00     0.011 C 
BRANCH  37  38
HETATM   38  C9  UNL     1       5.579   0.736  45.272  1.00  0.00     0.085 C 
HETATM   39 BR1  UNL     1       6.276   1.564  46.861  1.00  0.00    -0.097 Br
ENDBRANCH  37  38
ENDBRANCH  36  37
ENDBRANCH  35  36
ENDBRANCH  34  35
ENDBRANCH  33  34
ENDBRANCH  32  33
ENDBRANCH   2  32
TORSDOF 15
ENDMDL
MODEL 5
REMARK VINA RESULT: -8.067955708      3.373      4.841
REMARK  15 active torsions:
REMARK  status: ('A' for Active; 'I' for Inactive)
REMARK    1  A    between atoms: C2_2  and  C3_3 
REMARK    2  A    between atoms: C3_3  and  C4_4 
REMARK    3  A    between atoms: C4_4  and  C5_5 
REMARK    4  A    between atoms: C5_5  and  C6_6 
REMARK    5  A    between atoms: C6_6  and  C7_7 
REMARK    6  A    between atoms: C7_7  and  C8_8 
REMARK    7  A    between atoms: C8_8  and  C9_9 
REMARK    8  A    between atoms: N3_22  and  C15_23 
REMARK    9  A    between atoms: C15_23  and  C16_24 
REMARK   10  A    between atoms: C16_24  and  C17_25 
REMARK   11  A    between atoms: C17_25  and  C18_26 
REMARK   12  A    between atoms: C18_26  and  C19_27 
REMARK   13  A    between atoms: C19_27  and  C20_28 
REMARK   14  A    between atoms: C23_31  and  S1_32 
REMARK   15  A    between atoms: S1_32  and  N4_33 
ROOT
HETATM    1  C1  UNL     1       5.234  -2.011  51.076  1.00  0.00     0.046 C 
HETATM    2  C2  UNL     1       4.914  -0.816  50.256  1.00  0.00    -0.054 C 
HETATM    3  C10 UNL     1       5.008  -0.724  48.941  1.00  0.00     0.069 A 
HETATM    4  C11 UNL     1       4.678   0.531  48.203  1.00  0.00     0.096 A 
HETATM    5  N1  UNL     1       4.290   1.808  48.268  1.00  0.00    -0.294 N 
ATOM      6  H1  UNL     1       4.073   2.296  49.137  1.00  0.00     0.187 HD
HETATM    7  N2  UNL     1       4.220   2.370  47.054  1.00  0.00    -0.265 N 
ATOM      8  H2  UNL     1       3.948   3.329  46.840  1.00  0.00     0.190 HD
HETATM    9  C12 UNL     1       4.573   1.432  46.185  1.00  0.00     0.278 A 
HETATM   10  O1  UNL     1       4.632   1.571  44.947  1.00  0.00    -0.266 OA
HETATM   11  C13 UNL     1       4.871   0.260  46.872  1.00  0.00     0.132 A 
HETATM   12  C14 UNL     1       5.312  -1.118  46.717  1.00  0.00     0.266 A 
HETATM   13  O2  UNL     1       5.570  -1.640  45.605  1.00  0.00    -0.267 OA
HETATM   14  N3  UNL     1       5.398  -1.740  48.003  1.00  0.00    -0.311 N 
ENDROOT
BRANCH  14  15
HETATM   15  C15 UNL     1       5.791  -3.108  48.261  1.00  0.00     0.133 C 
BRANCH  15  16
HETATM   16  C16 UNL     1       7.250  -3.404  48.100  1.00  0.00     0.020 C 
BRANCH  16  17
HETATM   17  C17 UNL     1       8.160  -3.043  49.221  1.00  0.00     0.002 C 
BRANCH  17  18
HETATM   18  C18 UNL     1       8.922  -1.758  49.026  1.00  0.00     0.005 C 
BRANCH  18  19
HETATM   19  C19 UNL     1       8.672  -0.783  50.156  1.00  0.00     0.038 C 
BRANCH  19  20
HETATM   20  C20 UNL     1       8.292   0.569  49.695  1.00  0.00    -0.058 A 
HETATM   21  C21 UNL     1       8.369   0.971  48.380  1.00  0.00     0.009 A 
HETATM   22  C22 UNL     1       8.009   2.239  47.965  1.00  0.00     0.026 A 
HETATM   23  C23 UNL     1       7.551   3.146  48.903  1.00  0.00     0.079 A 
HETATM   24  C24 UNL     1       7.463   2.777  50.211  1.00  0.00     0.026 A 
HETATM   25  C25 UNL     1       7.826   1.509  50.609  1.00  0.00     0.009 A 
BRANCH  23  26
HETATM   26  S1  UNL     1       7.105   4.744  48.333  1.00  0.00     0.256 S 
HETATM   27  O3  UNL     1       5.751   4.651  47.714  1.00  0.00    -0.201 OA
HETATM   28  O4  UNL     1       8.096   5.250  47.325  1.00  0.00    -0.201 OA
BRANCH  26  29
HETATM   29  N4  UNL     1       7.144   5.804  49.693  1.00  0.00    -0.324 N 
ATOM     30  H42 UNL     1       6.535   5.744  50.509  1.00  0.00     0.169 HD
ATOM     31  H41 UNL     1       7.880   6.489  49.524  1.00  0.00     0.169 HD
ENDBRANCH  26  29
ENDBRANCH  23  26
ENDBRANCH  19  20
ENDBRANCH  18  19
ENDBRANCH  17  18
ENDBRANCH  16  17
ENDBRANCH  15  16
ENDBRANCH  14  15
BRANCH   2  32
HETATM   32  C3  UNL     1       4.372   0.325  51.073  1.00  0.00     0.036 C 
BRANCH  32  33
HETATM   33  C4  UNL     1       4.846   0.341  52.479  1.00  0.00     0.004 C 
BRANCH  33  34
HETATM   34  C5  UNL     1       3.878   0.896  53.486  1.00  0.00     0.000 C 
BRANCH  34  35
HETATM   35  C6  UNL     1       2.479   0.822  52.938  1.00  0.00     0.000 C 
BRANCH  35  36
HETATM   36  C7  UNL     1       1.563   1.846  53.519  1.00  0.00     0.001 C 
BRANCH  36  37
HETATM   37  C8  UNL     1       0.692   2.522  52.477  1.00  0.00     0.011 C 
BRANCH  37  38
HETATM   38  C9  UNL     1       1.611   2.950  51.349  1.00  0.00     0.085 C 
HETATM   39 BR1  UNL     1       0.572   3.746  49.941  1.00  0.00    -0.097 Br
ENDBRANCH  37  38
ENDBRANCH  36  37
ENDBRANCH  35  36
ENDBRANCH  34  35
ENDBRANCH  33  34
ENDBRANCH  32  33
ENDBRANCH   2  32
TORSDOF 15
ENDMDL
