MODEL 1
REMARK VINA RESULT: -5.964815053      0.000      0.000
REMARK  4 active torsions:
REMARK  status: ('A' for Active; 'I' for Inactive)
REMARK    1  A    between atoms: N1_1  and  S1_4 
REMARK    2  A    between atoms: S1_4  and  C1_5 
REMARK    3  A    between atoms: C1_5  and  N2_7 
REMARK    4  A    between atoms: N2_7  and  C2_9 
ROOT
HETATM    1  N2  UNL     1      54.598  78.274  60.786  1.00  0.00    -0.370 N 
ATOM      2  H2  UNL     1      54.321  78.309  61.768  1.00  0.00     0.161 HD
ENDROOT
BRANCH   1   3
HETATM    3  C1  UNL     1      53.672  78.710  59.790  1.00  0.00     0.154 C 
HETATM    4  S2  UNL     1      52.655  77.631  59.139  1.00  0.00    -0.051 SA
BRANCH   3   5
HETATM    5  S1  UNL     1      53.678  80.414  59.304  1.00  0.00     0.008 SA
BRANCH   5   6
HETATM    6  N1  UNL     1      53.344  80.573  57.591  1.00  0.00    -0.368 N 
ATOM      7  H12 UNL     1      53.981  81.014  56.927  1.00  0.00     0.164 HD
ATOM      8  H11 UNL     1      52.437  80.168  57.360  1.00  0.00     0.164 HD
ENDBRANCH   5   6
ENDBRANCH   3   5
ENDBRANCH   1   3
BRANCH   1   9
HETATM    9  C2  UNL     1      55.920  77.784  60.445  1.00  0.00     0.083 C 
HETATM   10  C3  UNL     1      56.928  78.802  60.860  1.00  0.00     0.025 C 
HETATM   11  C4  UNL     1      58.351  78.335  60.680  1.00  0.00     0.002 C 
HETATM   12  C5  UNL     1      58.564  76.941  61.211  1.00  0.00     0.000 C 
HETATM   13  C6  UNL     1      57.367  76.435  61.984  1.00  0.00     0.002 C 
HETATM   14  C7  UNL     1      56.104  76.458  61.147  1.00  0.00     0.025 C 
ENDBRANCH   1   9
TORSDOF 4
ENDMDL
MODEL 2
REMARK VINA RESULT: -5.943057805      0.764      1.658
REMARK  4 active torsions:
REMARK  status: ('A' for Active; 'I' for Inactive)
REMARK    1  A    between atoms: N1_1  and  S1_4 
REMARK    2  A    between atoms: S1_4  and  C1_5 
REMARK    3  A    between atoms: C1_5  and  N2_7 
REMARK    4  A    between atoms: N2_7  and  C2_9 
ROOT
HETATM    1  N2  UNL     1      54.272  78.048  61.229  1.00  0.00    -0.370 N 
ATOM      2  H2  UNL     1      53.495  77.833  61.855  1.00  0.00     0.161 HD
ENDROOT
BRANCH   1   3
HETATM    3  C1  UNL     1      53.990  78.521  59.912  1.00  0.00     0.154 C 
HETATM    4  S2  UNL     1      54.104  77.490  58.668  1.00  0.00    -0.051 SA
BRANCH   3   5
HETATM    5  S1  UNL     1      53.533  80.219  59.692  1.00  0.00     0.008 SA
BRANCH   5   6
HETATM    6  N1  UNL     1      53.271  80.578  57.997  1.00  0.00    -0.368 N 
ATOM      7  H12 UNL     1      52.551  81.215  57.656  1.00  0.00     0.164 HD
ATOM      8  H11 UNL     1      53.931  80.065  57.412  1.00  0.00     0.164 HD
ENDBRANCH   5   6
ENDBRANCH   3   5
ENDBRANCH   1   3
BRANCH   1   9
HETATM    9  C2  UNL     1      55.630  77.864  61.706  1.00  0.00     0.083 C 
HETATM   10  C3  UNL     1      56.125  76.539  61.237  1.00  0.00     0.025 C 
HETATM   11  C4  UNL     1      57.580  76.302  61.558  1.00  0.00     0.002 C 
HETATM   12  C5  UNL     1      58.441  77.489  61.210  1.00  0.00     0.000 C 
HETATM   13  C6  UNL     1      57.679  78.538  60.430  1.00  0.00     0.002 C 
HETATM   14  C7  UNL     1      56.452  79.017  61.178  1.00  0.00     0.025 C 
ENDBRANCH   1   9
TORSDOF 4
ENDMDL
MODEL 3
REMARK VINA RESULT: -5.792884436      0.951      1.570
REMARK  4 active torsions:
REMARK  status: ('A' for Active; 'I' for Inactive)
REMARK    1  A    between atoms: N1_1  and  S1_4 
REMARK    2  A    between atoms: S1_4  and  C1_5 
REMARK    3  A    between atoms: C1_5  and  N2_7 
REMARK    4  A    between atoms: N2_7  and  C2_9 
ROOT
HETATM    1  N2  UNL     1      54.868  78.667  60.828  1.00  0.00    -0.370 N 
ATOM      2  H2  UNL     1      54.645  78.824  61.811  1.00  0.00     0.161 HD
ENDROOT
BRANCH   1   3
HETATM    3  C1  UNL     1      53.972  79.153  59.828  1.00  0.00     0.154 C 
HETATM    4  S2  UNL     1      54.218  80.627  59.204  1.00  0.00    -0.051 SA
BRANCH   3   5
HETATM    5  S1  UNL     1      52.625  78.123  59.313  1.00  0.00     0.008 SA
BRANCH   5   6
HETATM    6  N1  UNL     1      51.222  79.091  58.906  1.00  0.00    -0.368 N 
ATOM      7  H12 UNL     1      50.968  79.953  59.389  1.00  0.00     0.164 HD
ATOM      8  H11 UNL     1      50.708  78.675  58.130  1.00  0.00     0.164 HD
ENDBRANCH   5   6
ENDBRANCH   3   5
ENDBRANCH   1   3
BRANCH   1   9
HETATM    9  C2  UNL     1      56.086  77.956  60.488  1.00  0.00     0.083 C 
HETATM   10  C3  UNL     1      57.254  78.804  60.863  1.00  0.00     0.025 C 
HETATM   11  C4  UNL     1      58.578  78.103  60.683  1.00  0.00     0.002 C 
HETATM   12  C5  UNL     1      58.566  76.709  61.253  1.00  0.00     0.000 C 
HETATM   13  C6  UNL     1      57.313  76.428  62.052  1.00  0.00     0.002 C 
HETATM   14  C7  UNL     1      56.059  76.638  61.227  1.00  0.00     0.025 C 
ENDBRANCH   1   9
TORSDOF 4
ENDMDL
MODEL 4
REMARK VINA RESULT: -5.683713924      1.196      1.924
REMARK  4 active torsions:
REMARK  status: ('A' for Active; 'I' for Inactive)
REMARK    1  A    between atoms: N1_1  and  S1_4 
REMARK    2  A    between atoms: S1_4  and  C1_5 
REMARK    3  A    between atoms: C1_5  and  N2_7 
REMARK    4  A    between atoms: N2_7  and  C2_9 
ROOT
HETATM    1  N2  UNL     1      55.067  77.954  59.206  1.00  0.00    -0.370 N 
ATOM      2  H2  UNL     1      55.442  77.586  58.332  1.00  0.00     0.161 HD
ENDROOT
BRANCH   1   3
HETATM    3  C1  UNL     1      53.791  78.595  59.198  1.00  0.00     0.154 C 
HETATM    4  S2  UNL     1      52.454  77.682  59.158  1.00  0.00    -0.051 SA
BRANCH   3   5
HETATM    5  S1  UNL     1      53.724  80.366  59.226  1.00  0.00     0.008 SA
BRANCH   5   6
HETATM    6  N1  UNL     1      54.394  80.989  60.722  1.00  0.00    -0.368 N 
ATOM      7  H12 UNL     1      54.727  80.399  61.484  1.00  0.00     0.164 HD
ATOM      8  H11 UNL     1      54.402  82.009  60.717  1.00  0.00     0.164 HD
ENDBRANCH   5   6
ENDBRANCH   3   5
ENDBRANCH   1   3
BRANCH   1   9
HETATM    9  C2  UNL     1      55.845  77.808  60.421  1.00  0.00     0.083 C 
HETATM   10  C3  UNL     1      56.289  76.389  60.537  1.00  0.00     0.025 C 
HETATM   11  C4  UNL     1      57.227  76.154  61.695  1.00  0.00     0.002 C 
HETATM   12  C5  UNL     1      58.316  77.193  61.767  1.00  0.00     0.000 C 
HETATM   13  C6  UNL     1      58.333  78.087  60.547  1.00  0.00     0.002 C 
HETATM   14  C7  UNL     1      57.002  78.778  60.334  1.00  0.00     0.025 C 
ENDBRANCH   1   9
TORSDOF 4
ENDMDL
MODEL 5
REMARK VINA RESULT: -5.668473795      1.077      2.227
REMARK  4 active torsions:
REMARK  status: ('A' for Active; 'I' for Inactive)
REMARK    1  A    between atoms: N1_1  and  S1_4 
REMARK    2  A    between atoms: S1_4  and  C1_5 
REMARK    3  A    between atoms: C1_5  and  N2_7 
REMARK    4  A    between atoms: N2_7  and  C2_9 
ROOT
HETATM    1  N2  UNL     1      55.226  78.215  59.517  1.00  0.00    -0.370 N 
ATOM      2  H2  UNL     1      55.527  77.884  58.600  1.00  0.00     0.161 HD
ENDROOT
BRANCH   1   3
HETATM    3  C1  UNL     1      53.982  78.906  59.630  1.00  0.00     0.154 C 
HETATM    4  S2  UNL     1      53.986  80.457  60.097  1.00  0.00    -0.051 SA
BRANCH   3   5
HETATM    5  S1  UNL     1      52.484  78.036  59.258  1.00  0.00     0.008 SA
BRANCH   5   6
HETATM    6  N1  UNL     1      51.187  79.158  58.894  1.00  0.00    -0.368 N 
ATOM      7  H12 UNL     1      51.299  79.981  58.302  1.00  0.00     0.164 HD
ATOM      8  H11 UNL     1      50.321  78.872  59.352  1.00  0.00     0.164 HD
ENDBRANCH   5   6
ENDBRANCH   3   5
ENDBRANCH   1   3
BRANCH   1   9
HETATM    9  C2  UNL     1      56.076  77.969  60.667  1.00  0.00     0.083 C 
HETATM   10  C3  UNL     1      56.371  76.509  60.739  1.00  0.00     0.025 C 
HETATM   11  C4  UNL     1      57.364  76.158  61.819  1.00  0.00     0.002 C 
HETATM   12  C5  UNL     1      58.561  77.072  61.812  1.00  0.00     0.000 C 
HETATM   13  C6  UNL     1      58.582  77.977  60.600  1.00  0.00     0.002 C 
HETATM   14  C7  UNL     1      57.321  78.810  60.495  1.00  0.00     0.025 C 
ENDBRANCH   1   9
TORSDOF 4
ENDMDL
