MODEL 1
REMARK VINA RESULT: -8.177783952      0.000      0.000
REMARK  5 active torsions:
REMARK  status: ('A' for Active; 'I' for Inactive)
REMARK    1  A    between atoms: C2_2  and  N1_4 
REMARK       I    between atoms: N1_4  and  C4_6 
REMARK    2  A    between atoms: C4_6  and  C5_8 
REMARK    3  A    between atoms: C8_11  and  C9_12 
REMARK       I    between atoms: C9_12  and  N2_14 
REMARK    4  A    between atoms: N2_14  and  N3_16 
REMARK    5  A    between atoms: N3_16  and  C10_18 
ROOT
HETATM    1  C9  UNL     1      52.204  -8.618   8.878  1.00  0.00     0.269 C 
HETATM    2  O2  UNL     1      53.115  -9.459   8.725  1.00  0.00    -0.266 OA
HETATM    3  N2  UNL     1      52.203  -7.445   8.064  1.00  0.00    -0.269 N 
ATOM      4  H2  UNL     1      51.462  -6.766   8.237  1.00  0.00     0.190 HD
ENDROOT
BRANCH   1   5
HETATM    5  C8  UNL     1      51.147  -8.816   9.854  1.00  0.00     0.033 A 
HETATM    6  C7  UNL     1      51.213  -9.939  10.664  1.00  0.00     0.018 A 
HETATM    7  C6  UNL     1      50.212 -10.205  11.558  1.00  0.00     0.018 A 
HETATM    8  C5  UNL     1      49.132  -9.354  11.652  1.00  0.00     0.032 A 
HETATM    9  C21 UNL     1      49.091  -8.244  10.835  1.00  0.00     0.018 A 
HETATM   10  C20 UNL     1      50.089  -7.960   9.932  1.00  0.00     0.018 A 
BRANCH   8  11
HETATM   11  C4  UNL     1      48.049  -9.617  12.580  1.00  0.00     0.251 C 
HETATM   12  N1  UNL     1      47.760  -8.782  13.710  1.00  0.00    -0.353 N 
ATOM     13  H1  UNL     1      48.323  -7.945  13.859  1.00  0.00     0.163 HD
HETATM   14  O1  UNL     1      47.343 -10.658  12.353  1.00  0.00    -0.268 OA
BRANCH  12  15
HETATM   15  C2  UNL     1      46.708  -9.081  14.638  1.00  0.00     0.076 C 
HETATM   16  C1  UNL     1      46.730  -8.052  15.775  1.00  0.00     0.032 C 
HETATM   17  C3  UNL     1      45.327  -9.164  14.107  1.00  0.00     0.032 C 
ENDBRANCH  12  15
ENDBRANCH   8  11
ENDBRANCH   1   5
BRANCH   3  18
HETATM   18  N3  UNL     1      53.051  -7.160   7.128  1.00  0.00    -0.324 N 
ATOM     19  H3  UNL     1      52.977  -7.816   6.351  1.00  0.00     0.181 HD
BRANCH  18  20
HETATM   20  C10 UNL     1      54.024  -6.217   6.891  1.00  0.00     0.047 C 
HETATM   21  C11 UNL     1      54.254  -6.083   5.371  1.00  0.00     0.037 C 
HETATM   22  C12 UNL     1      55.447  -5.238   5.113  1.00  0.00    -0.012 C 
HETATM   23  C13 UNL     1      55.316  -3.863   5.695  1.00  0.00     0.009 C 
HETATM   24  C17 UNL     1      56.698  -5.863   5.709  1.00  0.00     0.009 C 
HETATM   25  C14 UNL     1      55.125  -4.020   7.179  1.00  0.00    -0.012 C 
HETATM   26  C15 UNL     1      56.311  -4.653   7.815  1.00  0.00     0.009 C 
HETATM   27  C19 UNL     1      53.851  -4.816   7.386  1.00  0.00     0.037 C 
HETATM   28  C16 UNL     1      56.519  -6.039   7.210  1.00  0.00    -0.012 C 
HETATM   29  C18 UNL     1      55.324  -6.865   7.439  1.00  0.00     0.037 C 
ENDBRANCH  18  20
ENDBRANCH   3  18
TORSDOF 5
ENDMDL
MODEL 2
REMARK VINA RESULT: -8.168796992      1.019      1.545
REMARK  5 active torsions:
REMARK  status: ('A' for Active; 'I' for Inactive)
REMARK    1  A    between atoms: C2_2  and  N1_4 
REMARK       I    between atoms: N1_4  and  C4_6 
REMARK    2  A    between atoms: C4_6  and  C5_8 
REMARK    3  A    between atoms: C8_11  and  C9_12 
REMARK       I    between atoms: C9_12  and  N2_14 
REMARK    4  A    between atoms: N2_14  and  N3_16 
REMARK    5  A    between atoms: N3_16  and  C10_18 
ROOT
HETATM    1  C9  UNL     1      52.413  -7.571   8.201  1.00  0.00     0.269 C 
HETATM    2  O2  UNL     1      53.253  -8.337   7.684  1.00  0.00    -0.266 OA
HETATM    3  N2  UNL     1      52.385  -6.202   7.795  1.00  0.00    -0.269 N 
ATOM      4  H2  UNL     1      51.706  -5.598   8.259  1.00  0.00     0.190 HD
ENDROOT
BRANCH   1   5
HETATM    5  C8  UNL     1      51.462  -8.046   9.191  1.00  0.00     0.033 A 
HETATM    6  C7  UNL     1      51.669  -9.303   9.737  1.00  0.00     0.018 A 
HETATM    7  C6  UNL     1      50.770  -9.824  10.629  1.00  0.00     0.018 A 
HETATM    8  C5  UNL     1      49.655  -9.096  10.983  1.00  0.00     0.032 A 
HETATM    9  C21 UNL     1      49.473  -7.848  10.424  1.00  0.00     0.018 A 
HETATM   10  C20 UNL     1      50.367  -7.309   9.528  1.00  0.00     0.018 A 
BRANCH   8  11
HETATM   11  C4  UNL     1      48.678  -9.628  11.915  1.00  0.00     0.251 C 
HETATM   12  N1  UNL     1      47.958  -8.813  12.850  1.00  0.00    -0.353 N 
ATOM     13  H1  UNL     1      48.116  -7.806  12.847  1.00  0.00     0.163 HD
HETATM   14  O1  UNL     1      48.481 -10.889  11.877  1.00  0.00    -0.268 OA
BRANCH  12  15
HETATM   15  C2  UNL     1      47.025  -9.363  13.789  1.00  0.00     0.076 C 
HETATM   16  C1  UNL     1      46.809  -8.364  14.932  1.00  0.00     0.032 C 
HETATM   17  C3  UNL     1      45.699  -9.781  13.276  1.00  0.00     0.032 C 
ENDBRANCH  12  15
ENDBRANCH   8  11
ENDBRANCH   1   5
BRANCH   3  18
HETATM   18  N3  UNL     1      53.137  -5.652   6.896  1.00  0.00    -0.324 N 
ATOM     19  H3  UNL     1      52.593  -5.378   6.078  1.00  0.00     0.181 HD
BRANCH  18  20
HETATM   20  C10 UNL     1      54.466  -5.336   6.738  1.00  0.00     0.047 C 
HETATM   21  C11 UNL     1      54.601  -3.842   6.375  1.00  0.00     0.037 C 
HETATM   22  C12 UNL     1      56.002  -3.542   5.987  1.00  0.00    -0.012 C 
HETATM   23  C13 UNL     1      56.983  -3.855   7.077  1.00  0.00     0.009 C 
HETATM   24  C17 UNL     1      56.415  -4.346   4.765  1.00  0.00     0.009 C 
HETATM   25  C14 UNL     1      56.853  -5.321   7.389  1.00  0.00    -0.012 C 
HETATM   26  C15 UNL     1      57.219  -6.160   6.217  1.00  0.00     0.009 C 
HETATM   27  C19 UNL     1      55.431  -5.556   7.859  1.00  0.00     0.037 C 
HETATM   28  C16 UNL     1      56.281  -5.833   5.059  1.00  0.00    -0.012 C 
HETATM   29  C18 UNL     1      54.890  -6.102   5.456  1.00  0.00     0.037 C 
ENDBRANCH  18  20
ENDBRANCH   3  18
TORSDOF 5
ENDMDL
MODEL 3
REMARK VINA RESULT: -8.127734883      0.246      1.455
REMARK  5 active torsions:
REMARK  status: ('A' for Active; 'I' for Inactive)
REMARK    1  A    between atoms: C2_2  and  N1_4 
REMARK       I    between atoms: N1_4  and  C4_6 
REMARK    2  A    between atoms: C4_6  and  C5_8 
REMARK    3  A    between atoms: C8_11  and  C9_12 
REMARK       I    between atoms: C9_12  and  N2_14 
REMARK    4  A    between atoms: N2_14  and  N3_16 
REMARK    5  A    between atoms: N3_16  and  C10_18 
ROOT
HETATM    1  C9  UNL     1      52.232  -8.673   8.823  1.00  0.00     0.269 C 
HETATM    2  O2  UNL     1      53.224  -9.430   8.785  1.00  0.00    -0.266 OA
HETATM    3  N2  UNL     1      52.136  -7.610   7.874  1.00  0.00    -0.269 N 
ATOM      4  H2  UNL     1      51.328  -6.993   7.954  1.00  0.00     0.190 HD
ENDROOT
BRANCH   1   5
HETATM    5  C8  UNL     1      51.174  -8.858   9.802  1.00  0.00     0.033 A 
HETATM    6  C7  UNL     1      51.215  -9.996  10.593  1.00  0.00     0.018 A 
HETATM    7  C6  UNL     1      50.211 -10.250  11.488  1.00  0.00     0.018 A 
HETATM    8  C5  UNL     1      49.155  -9.373  11.601  1.00  0.00     0.032 A 
HETATM    9  C21 UNL     1      49.138  -8.249  10.801  1.00  0.00     0.018 A 
HETATM   10  C20 UNL     1      50.139  -7.977   9.898  1.00  0.00     0.018 A 
BRANCH   8  11
HETATM   11  C4  UNL     1      48.070  -9.623  12.530  1.00  0.00     0.251 C 
HETATM   12  N1  UNL     1      47.804  -8.796  13.672  1.00  0.00    -0.353 N 
ATOM     13  H1  UNL     1      48.387  -7.974  13.829  1.00  0.00     0.163 HD
HETATM   14  O1  UNL     1      47.338 -10.644  12.293  1.00  0.00    -0.268 OA
BRANCH  12  15
HETATM   15  C2  UNL     1      46.750  -9.082  14.600  1.00  0.00     0.076 C 
HETATM   16  C1  UNL     1      46.783  -8.053  15.737  1.00  0.00     0.032 C 
HETATM   17  C3  UNL     1      45.368  -9.150  14.070  1.00  0.00     0.032 C 
ENDBRANCH  12  15
ENDBRANCH   8  11
ENDBRANCH   1   5
BRANCH   3  18
HETATM   18  N3  UNL     1      52.976  -7.353   6.922  1.00  0.00    -0.324 N 
ATOM     19  H3  UNL     1      52.826  -7.968   6.123  1.00  0.00     0.181 HD
BRANCH  18  20
HETATM   20  C10 UNL     1      54.015  -6.482   6.690  1.00  0.00     0.047 C 
HETATM   21  C11 UNL     1      55.289  -7.001   7.389  1.00  0.00     0.037 C 
HETATM   22  C12 UNL     1      56.352  -5.966   7.333  1.00  0.00    -0.012 C 
HETATM   23  C13 UNL     1      56.706  -5.578   5.930  1.00  0.00     0.009 C 
HETATM   24  C17 UNL     1      55.920  -4.700   8.056  1.00  0.00     0.009 C 
HETATM   25  C14 UNL     1      55.456  -5.047   5.282  1.00  0.00    -0.012 C 
HETATM   26  C15 UNL     1      54.970  -3.819   5.965  1.00  0.00     0.009 C 
HETATM   27  C19 UNL     1      54.436  -6.168   5.290  1.00  0.00     0.037 C 
HETATM   28  C16 UNL     1      54.650  -4.153   7.420  1.00  0.00    -0.012 C 
HETATM   29  C18 UNL     1      53.619  -5.201   7.473  1.00  0.00     0.037 C 
ENDBRANCH  18  20
ENDBRANCH   3  18
TORSDOF 5
ENDMDL
MODEL 4
REMARK VINA RESULT: -8.056665739      1.404      2.604
REMARK  5 active torsions:
REMARK  status: ('A' for Active; 'I' for Inactive)
REMARK    1  A    between atoms: C2_2  and  N1_4 
REMARK       I    between atoms: N1_4  and  C4_6 
REMARK    2  A    between atoms: C4_6  and  C5_8 
REMARK    3  A    between atoms: C8_11  and  C9_12 
REMARK       I    between atoms: C9_12  and  N2_14 
REMARK    4  A    between atoms: N2_14  and  N3_16 
REMARK    5  A    between atoms: N3_16  and  C10_18 
ROOT
HETATM    1  C9  UNL     1      53.830  -8.737   8.056  1.00  0.00     0.269 C 
HETATM    2  O2  UNL     1      54.595  -9.639   7.656  1.00  0.00    -0.266 OA
HETATM    3  N2  UNL     1      54.154  -7.377   7.766  1.00  0.00    -0.269 N 
ATOM      4  H2  UNL     1      53.524  -6.665   8.134  1.00  0.00     0.190 HD
ENDROOT
BRANCH   1   5
HETATM    5  C8  UNL     1      52.619  -9.044   8.797  1.00  0.00     0.033 A 
HETATM    6  C7  UNL     1      51.715  -8.016   9.016  1.00  0.00     0.018 A 
HETATM    7  C6  UNL     1      50.587  -8.235   9.760  1.00  0.00     0.018 A 
HETATM    8  C5  UNL     1      50.351  -9.483  10.295  1.00  0.00     0.032 A 
HETATM    9  C21 UNL     1      51.266 -10.488  10.063  1.00  0.00     0.018 A 
HETATM   10  C20 UNL     1      52.404 -10.285   9.316  1.00  0.00     0.018 A 
BRANCH   8  11
HETATM   11  C4  UNL     1      49.172  -9.742  11.099  1.00  0.00     0.251 C 
HETATM   12  N1  UNL     1      48.286  -8.709  11.554  1.00  0.00    -0.353 N 
ATOM     13  H1  UNL     1      48.474  -7.745  11.279  1.00  0.00     0.163 HD
HETATM   14  O1  UNL     1      48.946 -10.962  11.405  1.00  0.00    -0.268 OA
BRANCH  12  15
HETATM   15  C2  UNL     1      47.147  -8.982  12.380  1.00  0.00     0.076 C 
HETATM   16  C1  UNL     1      47.612  -9.212  13.824  1.00  0.00     0.032 C 
HETATM   17  C3  UNL     1      46.053  -7.982  12.395  1.00  0.00     0.032 C 
ENDBRANCH  12  15
ENDBRANCH   8  11
ENDBRANCH   1   5
BRANCH   3  18
HETATM   18  N3  UNL     1      55.172  -6.960   7.081  1.00  0.00    -0.324 N 
ATOM     19  H3  UNL     1      55.951  -7.615   7.143  1.00  0.00     0.181 HD
BRANCH  18  20
HETATM   20  C10 UNL     1      55.492  -5.879   6.294  1.00  0.00     0.047 C 
HETATM   21  C11 UNL     1      55.552  -4.606   7.165  1.00  0.00     0.037 C 
HETATM   22  C12 UNL     1      55.677  -3.407   6.299  1.00  0.00    -0.012 C 
HETATM   23  C13 UNL     1      56.900  -3.447   5.432  1.00  0.00     0.009 C 
HETATM   24  C17 UNL     1      54.476  -3.272   5.377  1.00  0.00     0.009 C 
HETATM   25  C14 UNL     1      56.801  -4.677   4.573  1.00  0.00    -0.012 C 
HETATM   26  C15 UNL     1      55.624  -4.613   3.665  1.00  0.00     0.009 C 
HETATM   27  C19 UNL     1      56.761  -5.873   5.503  1.00  0.00     0.037 C 
HETATM   28  C16 UNL     1      54.354  -4.513   4.506  1.00  0.00    -0.012 C 
HETATM   29  C18 UNL     1      54.247  -5.687   5.386  1.00  0.00     0.037 C 
ENDBRANCH  18  20
ENDBRANCH   3  18
TORSDOF 5
ENDMDL
MODEL 5
REMARK VINA RESULT: -7.989898377      1.235      2.221
REMARK  5 active torsions:
REMARK  status: ('A' for Active; 'I' for Inactive)
REMARK    1  A    between atoms: C2_2  and  N1_4 
REMARK       I    between atoms: N1_4  and  C4_6 
REMARK    2  A    between atoms: C4_6  and  C5_8 
REMARK    3  A    between atoms: C8_11  and  C9_12 
REMARK       I    between atoms: C9_12  and  N2_14 
REMARK    4  A    between atoms: N2_14  and  N3_16 
REMARK    5  A    between atoms: N3_16  and  C10_18 
ROOT
HETATM    1  C9  UNL     1      51.761  -7.029   8.422  1.00  0.00     0.269 C 
HETATM    2  O2  UNL     1      51.647  -5.809   8.181  1.00  0.00    -0.266 OA
HETATM    3  N2  UNL     1      52.804  -7.765   7.783  1.00  0.00    -0.269 N 
ATOM      4  H2  UNL     1      52.849  -8.765   7.979  1.00  0.00     0.190 HD
ENDROOT
BRANCH   1   5
HETATM    5  C8  UNL     1      50.865  -7.706   9.343  1.00  0.00     0.033 A 
HETATM    6  C7  UNL     1      49.644  -7.109   9.616  1.00  0.00     0.018 A 
HETATM    7  C6  UNL     1      48.788  -7.674  10.523  1.00  0.00     0.018 A 
HETATM    8  C5  UNL     1      49.143  -8.838  11.169  1.00  0.00     0.032 A 
HETATM    9  C21 UNL     1      50.364  -9.410  10.880  1.00  0.00     0.018 A 
HETATM   10  C20 UNL     1      51.235  -8.858   9.970  1.00  0.00     0.018 A 
BRANCH   8  11
HETATM   11  C4  UNL     1      48.263  -9.451  12.145  1.00  0.00     0.251 C 
HETATM   12  N1  UNL     1      47.607  -8.715  13.187  1.00  0.00    -0.353 N 
ATOM     13  H1  UNL     1      47.741  -7.705  13.233  1.00  0.00     0.163 HD
HETATM   14  O1  UNL     1      48.092 -10.714  12.046  1.00  0.00    -0.268 OA
BRANCH  12  15
HETATM   15  C2  UNL     1      46.771  -9.346  14.166  1.00  0.00     0.076 C 
HETATM   16  C1  UNL     1      46.560  -8.388  15.345  1.00  0.00     0.032 C 
HETATM   17  C3  UNL     1      45.447  -9.842  13.722  1.00  0.00     0.032 C 
ENDBRANCH  12  15
ENDBRANCH   8  11
ENDBRANCH   1   5
BRANCH   3  18
HETATM   18  N3  UNL     1      53.699  -7.287   6.977  1.00  0.00    -0.324 N 
ATOM     19  H3  UNL     1      53.342  -7.227   6.024  1.00  0.00     0.181 HD
BRANCH  18  20
HETATM   20  C10 UNL     1      54.996  -6.838   7.051  1.00  0.00     0.047 C 
HETATM   21  C11 UNL     1      55.038  -5.511   7.839  1.00  0.00     0.037 C 
HETATM   22  C12 UNL     1      56.390  -4.907   7.737  1.00  0.00    -0.012 C 
HETATM   23  C13 UNL     1      57.466  -5.806   8.265  1.00  0.00     0.009 C 
HETATM   24  C17 UNL     1      56.738  -4.589   6.292  1.00  0.00     0.009 C 
HETATM   25  C14 UNL     1      57.424  -7.077   7.461  1.00  0.00    -0.012 C 
HETATM   26  C15 UNL     1      57.732  -6.823   6.029  1.00  0.00     0.009 C 
HETATM   27  C19 UNL     1      56.055  -7.694   7.669  1.00  0.00     0.037 C 
HETATM   28  C16 UNL     1      56.692  -5.862   5.460  1.00  0.00    -0.012 C 
HETATM   29  C18 UNL     1      55.349  -6.450   5.590  1.00  0.00     0.037 C 
ENDBRANCH  18  20
ENDBRANCH   3  18
TORSDOF 5
ENDMDL
