MODEL 1
REMARK VINA RESULT: -9.375237428      0.000      0.000
REMARK  6 active torsions:
REMARK  status: ('A' for Active; 'I' for Inactive)
REMARK    1  A    between atoms: C2_2  and  C3_3 
REMARK    2  A    between atoms: C6_6  and  C7_7 
REMARK    3  A    between atoms: C8_8  and  C9_9 
REMARK    4  A    between atoms: C10_10  and  C11_11 
REMARK    5  A    between atoms: C11_11  and  O1_12 
REMARK    6  A    between atoms: N1_14  and  O2_16 
ROOT
HETATM    1  C3  UNL     1      54.510 -10.697  12.881  1.00  0.00    -0.028 A 
HETATM    2  C4  UNL     1      54.210 -10.922  11.559  1.00  0.00     0.010 A 
HETATM    3  C5  UNL     1      52.922 -10.944  11.119  1.00  0.00     0.012 A 
HETATM    4  C6  UNL     1      51.837 -10.742  11.974  1.00  0.00    -0.036 A 
HETATM    5  C12 UNL     1      52.116 -10.520  13.307  1.00  0.00     0.012 A 
HETATM    6  C13 UNL     1      53.463 -10.501  13.739  1.00  0.00     0.010 A 
ENDROOT
BRANCH   1   7
HETATM    7  C2  UNL     1      55.873 -10.623  13.379  1.00  0.00     0.084 C 
HETATM    8  C1  UNL     1      56.450 -12.066  13.536  1.00  0.00     0.046 C 
HETATM    9  N2  UNL     1      56.741 -10.005  12.413  1.00  0.00    -0.328 N 
HETATM   10  C14 UNL     1      57.963  -9.702  13.124  1.00  0.00     0.317 C 
ATOM     11  H2  UNL     1      56.537  -9.819  11.431  1.00  0.00     0.165 HD
HETATM   12  O3  UNL     1      59.101  -9.711  12.688  1.00  0.00    -0.247 OA
HETATM   13  N3  UNL     1      57.515  -9.375  14.470  1.00  0.00    -0.331 N 
HETATM   14  C15 UNL     1      56.179  -9.918  14.612  1.00  0.00     0.068 C 
ATOM     15  H3  UNL     1      58.041  -8.863  15.178  1.00  0.00     0.165 HD
HETATM   16  C16 UNL     1      55.231  -8.920  15.170  1.00  0.00     0.039 C 
HETATM   17  C21 UNL     1      56.134 -10.705  15.908  1.00  0.00     0.021 C 
HETATM   18  C17 UNL     1      55.462  -9.511  16.550  1.00  0.00    -0.006 C 
HETATM   19  C18 UNL     1      56.451  -8.811  17.414  1.00  0.00     0.005 C 
HETATM   20  C19 UNL     1      57.559  -9.825  17.666  1.00  0.00     0.001 C 
HETATM   21  C20 UNL     1      57.456 -10.893  16.601  1.00  0.00     0.007 C 
ENDBRANCH   1   7
BRANCH   4  22
HETATM   22  C7  UNL     1      50.461 -10.670  11.511  1.00  0.00     0.011 C 
HETATM   23  C8  UNL     1      49.631  -9.788  12.034  1.00  0.00     0.001 C 
BRANCH  23  24
HETATM   24  C9  UNL     1      48.267  -9.694  11.581  1.00  0.00     0.004 C 
HETATM   25  C10 UNL     1      47.182  -9.541  12.270  1.00  0.00     0.057 C 
BRANCH  25  26
HETATM   26  C11 UNL     1      46.998  -9.436  13.671  1.00  0.00     0.159 C 
HETATM   27  N1  UNL     1      46.944  -8.389  14.345  1.00  0.00    -0.248 N 
ATOM     28  H1  UNL     1      47.032  -7.497  13.860  1.00  0.00     0.196 HD
BRANCH  26  29
HETATM   29  O1  UNL     1      46.861 -10.691  14.424  1.00  0.00    -0.345 OA
ATOM     30  H1  UNL     1      46.482 -10.636  15.294  1.00  0.00     0.219 HD
ENDBRANCH  26  29
BRANCH  27  31
HETATM   31  O2  UNL     1      46.767  -8.375  15.737  1.00  0.00    -0.288 OA
ATOM     32  H2  UNL     1      47.032  -9.089  16.304  1.00  0.00     0.244 HD
ENDBRANCH  27  31
ENDBRANCH  25  26
ENDBRANCH  23  24
ENDBRANCH   4  22
TORSDOF 6
ENDMDL
MODEL 2
REMARK VINA RESULT: -9.194153807      7.330      9.020
REMARK  6 active torsions:
REMARK  status: ('A' for Active; 'I' for Inactive)
REMARK    1  A    between atoms: C2_2  and  C3_3 
REMARK    2  A    between atoms: C6_6  and  C7_7 
REMARK    3  A    between atoms: C8_8  and  C9_9 
REMARK    4  A    between atoms: C10_10  and  C11_11 
REMARK    5  A    between atoms: C11_11  and  O1_12 
REMARK    6  A    between atoms: N1_14  and  O2_16 
ROOT
HETATM    1  C3  UNL     1      52.484  -6.700   6.334  1.00  0.00    -0.028 A 
HETATM    2  C4  UNL     1      51.260  -6.238   6.754  1.00  0.00     0.010 A 
HETATM    3  C5  UNL     1      50.716  -6.644   7.934  1.00  0.00     0.012 A 
HETATM    4  C6  UNL     1      51.361  -7.546   8.782  1.00  0.00    -0.036 A 
HETATM    5  C12 UNL     1      52.588  -8.028   8.376  1.00  0.00     0.012 A 
HETATM    6  C13 UNL     1      53.133  -7.589   7.147  1.00  0.00     0.010 A 
ENDROOT
BRANCH   1   7
HETATM    7  C2  UNL     1      53.116  -6.256   5.104  1.00  0.00     0.084 C 
HETATM    8  C1  UNL     1      53.867  -7.455   4.440  1.00  0.00     0.046 C 
HETATM    9  N2  UNL     1      52.131  -5.880   4.126  1.00  0.00    -0.328 N 
HETATM   10  C14 UNL     1      52.855  -5.172   3.093  1.00  0.00     0.317 C 
ATOM     11  H2  UNL     1      51.129  -6.073   4.154  1.00  0.00     0.165 HD
HETATM   12  O3  UNL     1      52.623  -5.158   1.897  1.00  0.00    -0.247 OA
HETATM   13  N3  UNL     1      53.910  -4.479   3.817  1.00  0.00    -0.331 N 
HETATM   14  C15 UNL     1      54.042  -5.136   5.102  1.00  0.00     0.068 C 
ATOM     15  H3  UNL     1      54.454  -3.683   3.483  1.00  0.00     0.165 HD
HETATM   16  C16 UNL     1      54.055  -4.163   6.224  1.00  0.00     0.039 C 
HETATM   17  C21 UNL     1      55.513  -5.432   5.323  1.00  0.00     0.021 C 
HETATM   18  C17 UNL     1      55.574  -4.207   6.209  1.00  0.00    -0.006 C 
HETATM   19  C18 UNL     1      56.261  -3.114   5.468  1.00  0.00     0.005 C 
HETATM   20  C19 UNL     1      57.022  -3.802   4.344  1.00  0.00     0.001 C 
HETATM   21  C20 UNL     1      56.412  -5.171   4.145  1.00  0.00     0.007 C 
ENDBRANCH   1   7
BRANCH   4  22
HETATM   22  C7  UNL     1      50.842  -7.923  10.086  1.00  0.00     0.011 C 
HETATM   23  C8  UNL     1      50.178  -9.053  10.233  1.00  0.00     0.001 C 
BRANCH  23  24
HETATM   24  C9  UNL     1      49.665  -9.450  11.519  1.00  0.00     0.004 C 
HETATM   25  C10 UNL     1      48.572  -9.094  12.113  1.00  0.00     0.057 C 
BRANCH  25  26
HETATM   26  C11 UNL     1      47.557  -8.197  11.695  1.00  0.00     0.159 C 
HETATM   27  N1  UNL     1      47.689  -7.214  10.940  1.00  0.00    -0.248 N 
ATOM     28  H1  UNL     1      48.615  -7.014  10.564  1.00  0.00     0.196 HD
BRANCH  26  29
HETATM   29  O1  UNL     1      46.199  -8.439  12.202  1.00  0.00    -0.345 OA
ATOM     30  H1  UNL     1      46.017  -8.178  13.098  1.00  0.00     0.219 HD
ENDBRANCH  26  29
BRANCH  27  31
HETATM   31  O2  UNL     1      46.628  -6.370  10.581  1.00  0.00    -0.288 OA
ATOM     32  H2  UNL     1      46.701  -5.693   9.918  1.00  0.00     0.244 HD
ENDBRANCH  27  31
ENDBRANCH  25  26
ENDBRANCH  23  24
ENDBRANCH   4  22
TORSDOF 6
ENDMDL
MODEL 3
REMARK VINA RESULT: -9.135951725      5.988      7.591
REMARK  6 active torsions:
REMARK  status: ('A' for Active; 'I' for Inactive)
REMARK    1  A    between atoms: C2_2  and  C3_3 
REMARK    2  A    between atoms: C6_6  and  C7_7 
REMARK    3  A    between atoms: C8_8  and  C9_9 
REMARK    4  A    between atoms: C10_10  and  C11_11 
REMARK    5  A    between atoms: C11_11  and  O1_12 
REMARK    6  A    between atoms: N1_14  and  O2_16 
ROOT
HETATM    1  C3  UNL     1      52.731  -7.186   7.841  1.00  0.00    -0.028 A 
HETATM    2  C4  UNL     1      53.168  -8.468   8.069  1.00  0.00     0.010 A 
HETATM    3  C5  UNL     1      52.529  -9.289   8.948  1.00  0.00     0.012 A 
HETATM    4  C6  UNL     1      51.402  -8.881   9.665  1.00  0.00    -0.036 A 
HETATM    5  C12 UNL     1      50.951  -7.595   9.456  1.00  0.00     0.012 A 
HETATM    6  C13 UNL     1      51.631  -6.763   8.536  1.00  0.00     0.010 A 
ENDROOT
BRANCH   1   7
HETATM    7  C2  UNL     1      53.360  -6.297   6.879  1.00  0.00     0.084 C 
HETATM    8  C1  UNL     1      52.744  -6.541   5.464  1.00  0.00     0.046 C 
HETATM    9  N2  UNL     1      53.043  -4.924   7.162  1.00  0.00    -0.328 N 
HETATM   10  C14 UNL     1      53.956  -4.138   6.362  1.00  0.00     0.317 C 
ATOM     11  H2  UNL     1      52.324  -4.575   7.796  1.00  0.00     0.165 HD
HETATM   12  O3  UNL     1      53.749  -3.057   5.840  1.00  0.00    -0.247 OA
HETATM   13  N3  UNL     1      55.174  -4.935   6.336  1.00  0.00    -0.331 N 
HETATM   14  C15 UNL     1      54.802  -6.286   6.706  1.00  0.00     0.068 C 
ATOM     15  H3  UNL     1      56.110  -4.605   6.101  1.00  0.00     0.165 HD
HETATM   16  C16 UNL     1      55.695  -6.839   7.756  1.00  0.00     0.039 C 
HETATM   17  C21 UNL     1      55.401  -7.229   5.680  1.00  0.00     0.021 C 
HETATM   18  C17 UNL     1      56.511  -7.516   6.668  1.00  0.00    -0.006 C 
HETATM   19  C18 UNL     1      57.743  -6.808   6.225  1.00  0.00     0.005 C 
HETATM   20  C19 UNL     1      57.519  -6.488   4.753  1.00  0.00     0.001 C 
HETATM   21  C20 UNL     1      56.034  -6.572   4.484  1.00  0.00     0.007 C 
ENDBRANCH   1   7
BRANCH   4  22
HETATM   22  C7  UNL     1      50.652  -9.768  10.539  1.00  0.00     0.011 C 
HETATM   23  C8  UNL     1      49.424  -9.454  10.905  1.00  0.00     0.001 C 
BRANCH  23  24
HETATM   24  C9  UNL     1      48.660 -10.325  11.761  1.00  0.00     0.004 C 
HETATM   25  C10 UNL     1      47.613 -10.062  12.475  1.00  0.00     0.057 C 
BRANCH  25  26
HETATM   26  C11 UNL     1      46.910  -8.843  12.650  1.00  0.00     0.159 C 
HETATM   27  N1  UNL     1      46.382  -8.425  13.698  1.00  0.00    -0.248 N 
ATOM     28  H1  UNL     1      46.454  -8.999  14.538  1.00  0.00     0.196 HD
BRANCH  26  29
HETATM   29  O1  UNL     1      46.779  -7.971  11.474  1.00  0.00    -0.345 OA
ATOM     30  H1  UNL     1      46.712  -7.037  11.632  1.00  0.00     0.219 HD
ENDBRANCH  26  29
BRANCH  27  31
HETATM   31  O2  UNL     1      45.695  -7.205  13.783  1.00  0.00    -0.288 OA
ATOM     32  H2  UNL     1      44.771  -7.140  13.990  1.00  0.00     0.244 HD
ENDBRANCH  27  31
ENDBRANCH  25  26
ENDBRANCH  23  24
ENDBRANCH   4  22
TORSDOF 6
ENDMDL
MODEL 4
REMARK VINA RESULT: -9.076586872      2.248      3.950
REMARK  6 active torsions:
REMARK  status: ('A' for Active; 'I' for Inactive)
REMARK    1  A    between atoms: C2_2  and  C3_3 
REMARK    2  A    between atoms: C6_6  and  C7_7 
REMARK    3  A    between atoms: C8_8  and  C9_9 
REMARK    4  A    between atoms: C10_10  and  C11_11 
REMARK    5  A    between atoms: C11_11  and  O1_12 
REMARK    6  A    between atoms: N1_14  and  O2_16 
ROOT
HETATM    1  C3  UNL     1      53.113 -10.859  11.768  1.00  0.00    -0.028 A 
HETATM    2  C4  UNL     1      52.709 -10.571  10.487  1.00  0.00     0.010 A 
HETATM    3  C5  UNL     1      51.465 -10.082  10.230  1.00  0.00     0.012 A 
HETATM    4  C6  UNL     1      50.532  -9.847  11.242  1.00  0.00    -0.036 A 
HETATM    5  C12 UNL     1      50.915 -10.136  12.534  1.00  0.00     0.012 A 
HETATM    6  C13 UNL     1      52.214 -10.641  12.775  1.00  0.00     0.010 A 
ENDROOT
BRANCH   1   7
HETATM    7  C2  UNL     1      54.447 -11.340  12.085  1.00  0.00     0.084 C 
HETATM    8  C1  UNL     1      55.465 -10.784  11.037  1.00  0.00     0.046 C 
HETATM    9  N2  UNL     1      54.907 -10.798  13.335  1.00  0.00    -0.328 N 
HETATM   10  C14 UNL     1      56.073 -11.575  13.693  1.00  0.00     0.317 C 
ATOM     11  H2  UNL     1      54.495 -10.026  13.861  1.00  0.00     0.165 HD
HETATM   12  O3  UNL     1      57.068 -11.196  14.286  1.00  0.00    -0.247 OA
HETATM   13  N3  UNL     1      55.774 -12.908  13.191  1.00  0.00    -0.331 N 
HETATM   14  C15 UNL     1      54.717 -12.762  12.210  1.00  0.00     0.068 C 
ATOM     15  H3  UNL     1      56.223 -13.779  13.476  1.00  0.00     0.165 HD
HETATM   16  C16 UNL     1      53.611 -13.726  12.438  1.00  0.00     0.039 C 
HETATM   17  C21 UNL     1      55.136 -13.516  10.963  1.00  0.00     0.021 C 
HETATM   18  C17 UNL     1      54.241 -14.651  11.410  1.00  0.00    -0.006 C 
HETATM   19  C18 UNL     1      55.090 -15.752  11.942  1.00  0.00     0.005 C 
HETATM   20  C19 UNL     1      56.485 -15.490  11.389  1.00  0.00     0.001 C 
HETATM   21  C20 UNL     1      56.546 -14.041  10.963  1.00  0.00     0.007 C 
ENDBRANCH   1   7
BRANCH   4  22
HETATM   22  C7  UNL     1      49.232  -9.241  11.001  1.00  0.00     0.011 C 
HETATM   23  C8  UNL     1      48.514  -8.791  12.011  1.00  0.00     0.001 C 
BRANCH  23  24
HETATM   24  C9  UNL     1      47.229  -8.178  11.793  1.00  0.00     0.004 C 
HETATM   25  C10 UNL     1      46.199  -8.127  12.576  1.00  0.00     0.057 C 
BRANCH  25  26
HETATM   26  C11 UNL     1      46.012  -8.669  13.872  1.00  0.00     0.159 C 
HETATM   27  N1  UNL     1      46.618  -8.352  14.913  1.00  0.00    -0.248 N 
ATOM     28  H1  UNL     1      47.328  -7.622  14.855  1.00  0.00     0.196 HD
BRANCH  26  29
HETATM   29  O1  UNL     1      44.997  -9.723  14.017  1.00  0.00    -0.345 OA
ATOM     30  H1  UNL     1      44.549 -10.005  13.228  1.00  0.00     0.219 HD
ENDBRANCH  26  29
BRANCH  27  31
HETATM   31  O2  UNL     1      46.375  -8.946  16.160  1.00  0.00    -0.288 OA
ATOM     32  H2  UNL     1      46.958  -8.856  16.904  1.00  0.00     0.244 HD
ENDBRANCH  27  31
ENDBRANCH  25  26
ENDBRANCH  23  24
ENDBRANCH   4  22
TORSDOF 6
ENDMDL
MODEL 5
REMARK VINA RESULT: -9.064571672      5.955      8.230
REMARK  6 active torsions:
REMARK  status: ('A' for Active; 'I' for Inactive)
REMARK    1  A    between atoms: C2_2  and  C3_3 
REMARK    2  A    between atoms: C6_6  and  C7_7 
REMARK    3  A    between atoms: C8_8  and  C9_9 
REMARK    4  A    between atoms: C10_10  and  C11_11 
REMARK    5  A    between atoms: C11_11  and  O1_12 
REMARK    6  A    between atoms: N1_14  and  O2_16 
ROOT
HETATM    1  C3  UNL     1      53.209  -7.442   7.882  1.00  0.00    -0.028 A 
HETATM    2  C4  UNL     1      52.061  -6.933   8.441  1.00  0.00     0.010 A 
HETATM    3  C5  UNL     1      51.260  -7.697   9.234  1.00  0.00     0.012 A 
HETATM    4  C6  UNL     1      51.552  -9.031   9.525  1.00  0.00    -0.036 A 
HETATM    5  C12 UNL     1      52.696  -9.563   8.969  1.00  0.00     0.012 A 
HETATM    6  C13 UNL     1      53.513  -8.749   8.150  1.00  0.00     0.010 A 
ENDROOT
BRANCH   1   7
HETATM    7  C2  UNL     1      54.111  -6.645   7.068  1.00  0.00     0.084 C 
HETATM    8  C1  UNL     1      54.223  -5.207   7.668  1.00  0.00     0.046 C 
HETATM    9  N2  UNL     1      55.454  -7.155   7.137  1.00  0.00    -0.328 N 
HETATM   10  C14 UNL     1      56.176  -6.501   6.068  1.00  0.00     0.317 C 
ATOM     11  H2  UNL     1      55.821  -7.836   7.802  1.00  0.00     0.165 HD
HETATM   12  O3  UNL     1      57.348  -6.168   6.055  1.00  0.00    -0.247 OA
HETATM   13  N3  UNL     1      55.182  -6.345   5.017  1.00  0.00    -0.331 N 
HETATM   14  C15 UNL     1      53.881  -6.482   5.643  1.00  0.00     0.068 C 
ATOM     15  H3  UNL     1      55.365  -6.173   4.028  1.00  0.00     0.165 HD
HETATM   16  C16 UNL     1      53.006  -7.426   4.904  1.00  0.00     0.039 C 
HETATM   17  C21 UNL     1      53.025  -5.313   5.192  1.00  0.00     0.021 C 
HETATM   18  C17 UNL     1      52.377  -6.242   4.189  1.00  0.00    -0.006 C 
HETATM   19  C18 UNL     1      52.906  -5.929   2.833  1.00  0.00     0.005 C 
HETATM   20  C19 UNL     1      53.500  -4.531   2.943  1.00  0.00     0.001 C 
HETATM   21  C20 UNL     1      53.741  -4.247   4.408  1.00  0.00     0.007 C 
ENDBRANCH   1   7
BRANCH   4  22
HETATM   22  C7  UNL     1      50.761  -9.837  10.440  1.00  0.00     0.011 C 
HETATM   23  C8  UNL     1      49.498  -9.532  10.669  1.00  0.00     0.001 C 
BRANCH  23  24
HETATM   24  C9  UNL     1      48.694 -10.324  11.563  1.00  0.00     0.004 C 
HETATM   25  C10 UNL     1      47.738  -9.955  12.353  1.00  0.00     0.057 C 
BRANCH  25  26
HETATM   26  C11 UNL     1      47.201  -8.666  12.595  1.00  0.00     0.159 C 
HETATM   27  N1  UNL     1      46.189  -8.388  13.268  1.00  0.00    -0.248 N 
ATOM     28  H1  UNL     1      45.677  -9.152  13.707  1.00  0.00     0.196 HD
BRANCH  26  29
HETATM   29  O1  UNL     1      47.901  -7.524  11.989  1.00  0.00    -0.345 OA
ATOM     30  H1  UNL     1      47.494  -6.670  12.076  1.00  0.00     0.219 HD
ENDBRANCH  26  29
BRANCH  27  31
HETATM   31  O2  UNL     1      45.719  -7.079  13.451  1.00  0.00    -0.288 OA
ATOM     32  H2  UNL     1      46.069  -6.486  14.104  1.00  0.00     0.244 HD
ENDBRANCH  27  31
ENDBRANCH  25  26
ENDBRANCH  23  24
ENDBRANCH   4  22
TORSDOF 6
ENDMDL
