MODEL 1
REMARK VINA RESULT: -7.149463629      0.000      0.000
REMARK  6 active torsions:
REMARK  status: ('A' for Active; 'I' for Inactive)
REMARK    1  A    between atoms: C10_10  and  O1_11 
REMARK    2  A    between atoms: C12_14  and  O2_15 
REMARK    3  A    between atoms: C16_20  and  C17_21 
REMARK    4  A    between atoms: C17_21  and  C18_22 
REMARK    5  A    between atoms: C18_22  and  O3_24 
REMARK    6  A    between atoms: C21_27  and  C22_28 
ROOT
HETATM    1  C1  UNL     1      55.429 -12.646  12.352  1.00  0.00     0.014 C 
HETATM    2  C2  UNL     1      54.114 -12.804  12.381  1.00  0.00    -0.085 C 
HETATM    3  C3  UNL     1      53.431 -14.123  12.414  1.00  0.00     0.034 C 
HETATM    4  C4  UNL     1      51.972 -13.839  12.339  1.00  0.00     0.013 C 
HETATM    5  C5  UNL     1      51.750 -12.387  12.072  1.00  0.00     0.033 C 
HETATM    6  C6  UNL     1      53.081 -11.760  12.387  1.00  0.00     0.022 C 
HETATM    7  C7  UNL     1      53.388 -10.579  11.482  1.00  0.00     0.018 C 
HETATM    8  C8  UNL     1      53.364 -10.918  10.039  1.00  0.00     0.019 C 
HETATM    9  C9  UNL     1      52.567 -12.220   9.790  1.00  0.00     0.052 C 
HETATM   10  C10 UNL     1      51.347 -12.104  10.616  1.00  0.00     0.093 C 
HETATM   11  C11 UNL     1      50.754 -10.742  10.513  1.00  0.00     0.021 A 
HETATM   12  C12 UNL     1      49.496 -10.659  11.134  1.00  0.00     0.076 A 
HETATM   13  C13 UNL     1      48.850  -9.476  11.192  1.00  0.00     0.044 A 
HETATM   14  C14 UNL     1      49.405  -8.338  10.649  1.00  0.00    -0.052 A 
HETATM   15  C15 UNL     1      48.628  -7.085  10.668  1.00  0.00     0.049 C 
HETATM   16  C16 UNL     1      50.654  -8.421  10.035  1.00  0.00    -0.038 A 
HETATM   17  C20 UNL     1      51.367  -9.614   9.938  1.00  0.00    -0.014 A 
HETATM   18  C21 UNL     1      52.551  -9.886   9.220  1.00  0.00    -0.065 C 
ENDROOT
BRANCH  16  19
HETATM   19  C17 UNL     1      51.215  -7.192   9.548  1.00  0.00     0.071 C 
BRANCH  19  20
HETATM   20  C18 UNL     1      51.001  -6.797   8.103  1.00  0.00     0.118 C 
HETATM   21  C19 UNL     1      52.150  -6.079   7.453  1.00  0.00     0.039 C 
BRANCH  20  22
HETATM   22  O3  UNL     1      49.808  -6.261   7.743  1.00  0.00    -0.396 OA
ATOM     23  H3  UNL     1      49.247  -6.750   7.152  1.00  0.00     0.210 HD
ENDBRANCH  20  22
ENDBRANCH  19  20
ENDBRANCH  16  19
BRANCH  18  24
HETATM   24  C22 UNL     1      53.477  -9.133   8.455  1.00  0.00     0.031 C 
HETATM   25  C23 UNL     1      54.693 -10.041   8.086  1.00  0.00     0.010 C 
ENDBRANCH  18  24
BRANCH  12  26
HETATM   26  O2  UNL     1      48.883 -11.764  11.698  1.00  0.00    -0.360 OA
ATOM     27  H2  UNL     1      48.560 -11.759  12.591  1.00  0.00     0.217 HD
ENDBRANCH  12  26
BRANCH  10  28
HETATM   28  O1  UNL     1      50.380 -13.046  10.292  1.00  0.00    -0.384 OA
ATOM     29  H1  UNL     1      49.871 -12.669   9.585  1.00  0.00     0.211 HD
ENDBRANCH  10  28
TORSDOF 6
ENDMDL
MODEL 2
REMARK VINA RESULT: -7.032986265      2.887      5.087
REMARK  6 active torsions:
REMARK  status: ('A' for Active; 'I' for Inactive)
REMARK    1  A    between atoms: C10_10  and  O1_11 
REMARK    2  A    between atoms: C12_14  and  O2_15 
REMARK    3  A    between atoms: C16_20  and  C17_21 
REMARK    4  A    between atoms: C17_21  and  C18_22 
REMARK    5  A    between atoms: C18_22  and  O3_24 
REMARK    6  A    between atoms: C21_27  and  C22_28 
ROOT
HETATM    1  C1  UNL     1      52.340 -15.148   8.267  1.00  0.00     0.014 C 
HETATM    2  C2  UNL     1      51.631 -14.302   8.999  1.00  0.00    -0.085 C 
HETATM    3  C3  UNL     1      50.297 -13.774   8.610  1.00  0.00     0.034 C 
HETATM    4  C4  UNL     1      49.915 -12.792   9.660  1.00  0.00     0.013 C 
HETATM    5  C5  UNL     1      51.064 -12.565  10.585  1.00  0.00     0.033 C 
HETATM    6  C6  UNL     1      51.985 -13.720  10.299  1.00  0.00     0.022 C 
HETATM    7  C7  UNL     1      53.449 -13.333  10.428  1.00  0.00     0.018 C 
HETATM    8  C8  UNL     1      53.839 -12.200   9.556  1.00  0.00     0.019 C 
HETATM    9  C9  UNL     1      52.599 -11.387   9.116  1.00  0.00     0.052 C 
HETATM   10  C10 UNL     1      51.777 -11.227  10.334  1.00  0.00     0.093 C 
HETATM   11  C11 UNL     1      52.619 -10.875  11.510  1.00  0.00     0.021 A 
HETATM   12  C12 UNL     1      51.849 -10.532  12.634  1.00  0.00     0.076 A 
HETATM   13  C13 UNL     1      52.456 -10.252  13.807  1.00  0.00     0.044 A 
HETATM   14  C14 UNL     1      53.828 -10.297  13.923  1.00  0.00    -0.052 A 
HETATM   15  C15 UNL     1      54.450  -9.908  15.202  1.00  0.00     0.049 C 
HETATM   16  C16 UNL     1      54.591 -10.639  12.808  1.00  0.00    -0.038 A 
HETATM   17  C20 UNL     1      54.024 -10.932  11.569  1.00  0.00    -0.014 A 
HETATM   18  C21 UNL     1      54.660 -11.138  10.327  1.00  0.00    -0.065 C 
ENDROOT
BRANCH  16  19
HETATM   19  C17 UNL     1      56.010 -10.738  13.004  1.00  0.00     0.071 C 
BRANCH  19  20
HETATM   20  C18 UNL     1      56.614 -12.062  13.416  1.00  0.00     0.118 C 
HETATM   21  C19 UNL     1      57.951 -12.380  12.805  1.00  0.00     0.039 C 
BRANCH  20  22
HETATM   22  O3  UNL     1      55.816 -13.157  13.467  1.00  0.00    -0.396 OA
ATOM     23  H3  UNL     1      56.132 -13.972  13.097  1.00  0.00     0.210 HD
ENDBRANCH  20  22
ENDBRANCH  19  20
ENDBRANCH  16  19
BRANCH  18  24
HETATM   24  C22 UNL     1      55.998 -11.225   9.866  1.00  0.00     0.031 C 
HETATM   25  C23 UNL     1      56.306  -9.995   8.955  1.00  0.00     0.010 C 
ENDBRANCH  18  24
BRANCH  12  26
HETATM   26  O2  UNL     1      50.468 -10.468  12.585  1.00  0.00    -0.360 OA
ATOM     27  H2  UNL     1      49.919 -11.003  13.145  1.00  0.00     0.217 HD
ENDBRANCH  12  26
BRANCH  10  28
HETATM   28  O1  UNL     1      50.776 -10.276  10.191  1.00  0.00    -0.384 OA
ATOM     29  H1  UNL     1      51.104  -9.483  10.599  1.00  0.00     0.211 HD
ENDBRANCH  10  28
TORSDOF 6
ENDMDL
MODEL 3
REMARK VINA RESULT: -6.623733584      3.694      5.568
REMARK  6 active torsions:
REMARK  status: ('A' for Active; 'I' for Inactive)
REMARK    1  A    between atoms: C10_10  and  O1_11 
REMARK    2  A    between atoms: C12_14  and  O2_15 
REMARK    3  A    between atoms: C16_20  and  C17_21 
REMARK    4  A    between atoms: C17_21  and  C18_22 
REMARK    5  A    between atoms: C18_22  and  O3_24 
REMARK    6  A    between atoms: C21_27  and  C22_28 
ROOT
HETATM    1  C1  UNL     1      54.721 -15.716  10.483  1.00  0.00     0.014 C 
HETATM    2  C2  UNL     1      53.849 -14.948  11.117  1.00  0.00    -0.085 C 
HETATM    3  C3  UNL     1      52.388 -14.935  10.840  1.00  0.00     0.034 C 
HETATM    4  C4  UNL     1      51.810 -13.867  11.700  1.00  0.00     0.013 C 
HETATM    5  C5  UNL     1      52.905 -13.098  12.361  1.00  0.00     0.033 C 
HETATM    6  C6  UNL     1      54.113 -13.979  12.189  1.00  0.00     0.022 C 
HETATM    7  C7  UNL     1      55.388 -13.175  11.997  1.00  0.00     0.018 C 
HETATM    8  C8  UNL     1      55.329 -12.238  10.850  1.00  0.00     0.019 C 
HETATM    9  C9  UNL     1      53.864 -11.948  10.447  1.00  0.00     0.052 C 
HETATM   10  C10 UNL     1      53.141 -11.722  11.716  1.00  0.00     0.093 C 
HETATM   11  C11 UNL     1      53.927 -10.861  12.640  1.00  0.00     0.021 A 
HETATM   12  C12 UNL     1      53.188 -10.476  13.771  1.00  0.00     0.076 A 
HETATM   13  C13 UNL     1      53.775  -9.747  14.744  1.00  0.00     0.044 A 
HETATM   14  C14 UNL     1      55.097  -9.372  14.649  1.00  0.00    -0.052 A 
HETATM   15  C15 UNL     1      55.673  -8.512  15.699  1.00  0.00     0.049 C 
HETATM   16  C16 UNL     1      55.830  -9.756  13.527  1.00  0.00    -0.038 A 
HETATM   17  C20 UNL     1      55.280 -10.502  12.487  1.00  0.00    -0.014 A 
HETATM   18  C21 UNL     1      55.839 -10.828  11.234  1.00  0.00    -0.065 C 
ENDROOT
BRANCH  16  19
HETATM   19  C17 UNL     1      57.220  -9.397  13.513  1.00  0.00     0.071 C 
BRANCH  19  20
HETATM   20  C18 UNL     1      58.216 -10.243  14.276  1.00  0.00     0.118 C 
HETATM   21  C19 UNL     1      57.774 -11.648  14.575  1.00  0.00     0.039 C 
BRANCH  20  22
HETATM   22  O3  UNL     1      58.873  -9.691  15.327  1.00  0.00    -0.396 OA
ATOM     23  H3  UNL     1      59.038 -10.226  16.094  1.00  0.00     0.210 HD
ENDBRANCH  20  22
ENDBRANCH  19  20
ENDBRANCH  16  19
BRANCH  18  24
HETATM   24  C22 UNL     1      57.093 -10.647  10.597  1.00  0.00     0.031 C 
HETATM   25  C23 UNL     1      56.906  -9.725   9.351  1.00  0.00     0.010 C 
ENDBRANCH  18  24
BRANCH  12  26
HETATM   26  O2  UNL     1      51.857 -10.819  13.928  1.00  0.00    -0.360 OA
ATOM     27  H2  UNL     1      51.332 -10.482  14.645  1.00  0.00     0.217 HD
ENDBRANCH  12  26
BRANCH  10  28
HETATM   28  O1  UNL     1      51.884 -11.162  11.532  1.00  0.00    -0.384 OA
ATOM     29  H1  UNL     1      52.008 -10.418  10.954  1.00  0.00     0.211 HD
ENDBRANCH  10  28
TORSDOF 6
ENDMDL
MODEL 4
REMARK VINA RESULT: -6.597302574      5.288      8.201
REMARK  6 active torsions:
REMARK  status: ('A' for Active; 'I' for Inactive)
REMARK    1  A    between atoms: C10_10  and  O1_11 
REMARK    2  A    between atoms: C12_14  and  O2_15 
REMARK    3  A    between atoms: C16_20  and  C17_21 
REMARK    4  A    between atoms: C17_21  and  C18_22 
REMARK    5  A    between atoms: C18_22  and  O3_24 
REMARK    6  A    between atoms: C21_27  and  C22_28 
ROOT
HETATM    1  C1  UNL     1      57.753  -7.961   9.059  1.00  0.00     0.014 C 
HETATM    2  C2  UNL     1      57.738  -6.863   8.319  1.00  0.00    -0.085 C 
HETATM    3  C3  UNL     1      58.347  -5.570   8.728  1.00  0.00     0.034 C 
HETATM    4  C4  UNL     1      58.013  -4.594   7.655  1.00  0.00     0.013 C 
HETATM    5  C5  UNL     1      57.056  -5.209   6.689  1.00  0.00     0.033 C 
HETATM    6  C6  UNL     1      57.144  -6.681   6.989  1.00  0.00     0.022 C 
HETATM    7  C7  UNL     1      55.810  -7.385   6.804  1.00  0.00     0.018 C 
HETATM    8  C8  UNL     1      54.719  -6.808   7.623  1.00  0.00     0.019 C 
HETATM    9  C9  UNL     1      55.064  -5.368   8.070  1.00  0.00     0.052 C 
HETATM   10  C10 UNL     1      55.616  -4.703   6.872  1.00  0.00     0.093 C 
HETATM   11  C11 UNL     1      54.813  -5.019   5.660  1.00  0.00     0.021 A 
HETATM   12  C12 UNL     1      55.200  -4.254   4.547  1.00  0.00     0.076 A 
HETATM   13  C13 UNL     1      54.618  -4.464   3.348  1.00  0.00     0.044 A 
HETATM   14  C14 UNL     1      53.642  -5.425   3.193  1.00  0.00    -0.052 A 
HETATM   15  C15 UNL     1      52.980  -5.566   1.883  1.00  0.00     0.049 C 
HETATM   16  C16 UNL     1      53.260  -6.185   4.297  1.00  0.00    -0.038 A 
HETATM   17  C20 UNL     1      53.819  -6.011   5.561  1.00  0.00    -0.014 A 
HETATM   18  C21 UNL     1      53.433  -6.584   6.791  1.00  0.00    -0.065 C 
ENDROOT
BRANCH  16  19
HETATM   19  C17 UNL     1      52.290  -7.218   4.063  1.00  0.00     0.071 C 
BRANCH  19  20
HETATM   20  C18 UNL     1      50.818  -6.907   4.228  1.00  0.00     0.118 C 
HETATM   21  C19 UNL     1      49.917  -7.458   3.158  1.00  0.00     0.039 C 
BRANCH  20  22
HETATM   22  O3  UNL     1      50.452  -5.653   4.591  1.00  0.00    -0.396 OA
ATOM     23  H3  UNL     1      50.701  -4.924   4.035  1.00  0.00     0.210 HD
ENDBRANCH  20  22
ENDBRANCH  19  20
ENDBRANCH  16  19
BRANCH  18  24
HETATM   24  C22 UNL     1      52.484  -7.549   7.215  1.00  0.00     0.031 C 
HETATM   25  C23 UNL     1      51.709  -6.996   8.453  1.00  0.00     0.010 C 
ENDBRANCH  18  24
BRANCH  12  26
HETATM   26  O2  UNL     1      56.172  -3.273   4.635  1.00  0.00    -0.360 OA
ATOM     27  H2  UNL     1      56.715  -3.035   3.893  1.00  0.00     0.217 HD
ENDBRANCH  12  26
BRANCH  10  28
HETATM   28  O1  UNL     1      55.706  -3.324   7.010  1.00  0.00    -0.384 OA
ATOM     29  H1  UNL     1      56.601  -3.094   6.788  1.00  0.00     0.211 HD
ENDBRANCH  10  28
TORSDOF 6
ENDMDL
MODEL 5
REMARK VINA RESULT: -6.488180779      6.670      9.020
REMARK  6 active torsions:
REMARK  status: ('A' for Active; 'I' for Inactive)
REMARK    1  A    between atoms: C10_10  and  O1_11 
REMARK    2  A    between atoms: C12_14  and  O2_15 
REMARK    3  A    between atoms: C16_20  and  C17_21 
REMARK    4  A    between atoms: C17_21  and  C18_22 
REMARK    5  A    between atoms: C18_22  and  O3_24 
REMARK    6  A    between atoms: C21_27  and  C22_28 
ROOT
HETATM    1  C1  UNL     1      52.684  -8.769   0.527  1.00  0.00     0.014 C 
HETATM    2  C2  UNL     1      52.110  -8.481   1.685  1.00  0.00    -0.085 C 
HETATM    3  C3  UNL     1      50.641  -8.472   1.912  1.00  0.00     0.034 C 
HETATM    4  C4  UNL     1      50.438  -8.003   3.309  1.00  0.00     0.013 C 
HETATM    5  C5  UNL     1      51.736  -7.545   3.885  1.00  0.00     0.033 C 
HETATM    6  C6  UNL     1      52.764  -8.121   2.950  1.00  0.00     0.022 C 
HETATM    7  C7  UNL     1      53.968  -7.209   2.788  1.00  0.00     0.018 C 
HETATM    8  C8  UNL     1      53.620  -5.849   2.314  1.00  0.00     0.019 C 
HETATM    9  C9  UNL     1      52.127  -5.538   2.572  1.00  0.00     0.052 C 
HETATM   10  C10 UNL     1      51.854  -6.013   3.945  1.00  0.00     0.093 C 
HETATM   11  C11 UNL     1      52.949  -5.628   4.877  1.00  0.00     0.021 A 
HETATM   12  C12 UNL     1      52.630  -5.899   6.218  1.00  0.00     0.076 A 
HETATM   13  C13 UNL     1      53.541  -5.673   7.187  1.00  0.00     0.044 A 
HETATM   14  C14 UNL     1      54.791  -5.177   6.883  1.00  0.00    -0.052 A 
HETATM   15  C15 UNL     1      55.725  -4.873   7.982  1.00  0.00     0.049 C 
HETATM   16  C16 UNL     1      55.107  -4.910   5.552  1.00  0.00    -0.038 A 
HETATM   17  C20 UNL     1      54.208  -5.116   4.509  1.00  0.00    -0.014 A 
HETATM   18  C21 UNL     1      54.323  -4.752   3.150  1.00  0.00    -0.065 C 
ENDROOT
BRANCH  16  19
HETATM   19  C17 UNL     1      56.445  -4.460   5.286  1.00  0.00     0.071 C 
BRANCH  19  20
HETATM   20  C18 UNL     1      56.779  -2.991   5.432  1.00  0.00     0.118 C 
HETATM   21  C19 UNL     1      57.350  -2.334   4.207  1.00  0.00     0.039 C 
BRANCH  20  22
HETATM   22  O3  UNL     1      57.403  -2.572   6.560  1.00  0.00    -0.396 OA
ATOM     23  H3  UNL     1      57.408  -1.644   6.763  1.00  0.00     0.210 HD
ENDBRANCH  20  22
ENDBRANCH  19  20
ENDBRANCH  16  19
BRANCH  18  24
HETATM   24  C22 UNL     1      55.324  -4.174   2.329  1.00  0.00     0.031 C 
HETATM   25  C23 UNL     1      54.696  -3.783   0.954  1.00  0.00     0.010 C 
ENDBRANCH  18  24
BRANCH  12  26
HETATM   26  O2  UNL     1      51.394  -6.397   6.590  1.00  0.00    -0.360 OA
ATOM     27  H2  UNL     1      50.716  -6.588   5.954  1.00  0.00     0.217 HD
ENDBRANCH  12  26
BRANCH  10  28
HETATM   28  O1  UNL     1      50.646  -5.551   4.449  1.00  0.00    -0.384 OA
ATOM     29  H1  UNL     1      50.162  -6.321   4.722  1.00  0.00     0.211 HD
ENDBRANCH  10  28
TORSDOF 6
ENDMDL
