MODEL 1
REMARK VINA RESULT: -6.265003662      0.000      0.000
REMARK  7 active torsions:
REMARK  status: ('A' for Active; 'I' for Inactive)
REMARK    1  A    between atoms: C4_4  and  C5_5 
REMARK    2  A    between atoms: C7_10  and  O1_11 
REMARK    3  A    between atoms: C11_16  and  C12_17 
REMARK    4  A    between atoms: C13_18  and  C14_19 
REMARK    5  A    between atoms: C15_20  and  O2_22 
REMARK    6  A    between atoms: C20_27  and  C22_29 
REMARK    7  A    between atoms: C22_29  and  N2_30 
ROOT
HETATM    1  C12 UNL     1      52.665  -8.150   8.277  1.00  0.00    -0.020 C 
HETATM    2  C13 UNL     1      52.655  -8.902   9.343  1.00  0.00     0.003 C 
ENDROOT
BRANCH   1   3
HETATM    3  C11 UNL     1      53.293  -6.878   7.991  1.00  0.00     0.032 C 
HETATM    4  C5  UNL     1      54.464  -6.792   7.096  1.00  0.00     0.065 C 
HETATM    5  C6  UNL     1      53.917  -7.249   5.793  1.00  0.00     0.018 C 
HETATM    6  N1  UNL     1      54.320  -8.023   4.894  1.00  0.00    -0.403 N 
HETATM    7  C7  UNL     1      52.601  -6.507   5.716  1.00  0.00     0.172 C 
ATOM      8  H12 UNL     1      55.207  -8.524   4.946  1.00  0.00     0.155 HD
ATOM      9  H11 UNL     1      53.944  -8.337   4.000  1.00  0.00     0.155 HD
HETATM   10  C8  UNL     1      52.304  -6.044   7.128  1.00  0.00    -0.009 C 
HETATM   11  C9  UNL     1      50.889  -6.376   7.544  1.00  0.00     0.018 C 
HETATM   12  C10 UNL     1      52.536  -4.574   7.324  1.00  0.00     0.018 C 
BRANCH   4  13
HETATM   13  C4  UNL     1      55.729  -7.343   7.510  1.00  0.00    -0.014 C 
HETATM   14  C2  UNL     1      56.708  -6.532   7.900  1.00  0.00    -0.091 C 
HETATM   15  C1  UNL     1      56.506  -5.052   7.912  1.00  0.00     0.042 C 
HETATM   16  C3  UNL     1      58.024  -7.084   8.332  1.00  0.00     0.042 C 
ENDBRANCH   4  13
BRANCH   7  17
HETATM   17  O1  UNL     1      51.604  -7.250   5.140  1.00  0.00    -0.389 OA
ATOM     18  H1  UNL     1      51.262  -6.857   4.345  1.00  0.00     0.210 HD
ENDBRANCH   7  17
ENDBRANCH   1   3
BRANCH   2  19
HETATM   19  C14 UNL     1      51.962 -10.207   9.522  1.00  0.00    -0.037 C 
HETATM   20  C15 UNL     1      52.823 -11.415   9.564  1.00  0.00     0.078 C 
HETATM   21  C16 UNL     1      53.723 -11.468   8.342  1.00  0.00     0.051 C 
HETATM   22  C17 UNL     1      51.897 -12.629   9.381  1.00  0.00     0.042 C 
HETATM   23  C18 UNL     1      50.762 -12.639  10.343  1.00  0.00     0.004 C 
HETATM   24  C19 UNL     1      49.949 -11.360  10.282  1.00  0.00     0.015 C 
HETATM   25  C20 UNL     1      50.854 -10.146  10.506  1.00  0.00     0.006 C 
HETATM   26  C21 UNL     1      49.987  -8.934  10.145  1.00  0.00     0.022 C 
BRANCH  20  27
HETATM   27  O2  UNL     1      53.524 -11.639  10.720  1.00  0.00    -0.386 OA
ATOM     28  H2  UNL     1      53.024 -11.678  11.528  1.00  0.00     0.211 HD
ENDBRANCH  20  27
BRANCH  25  29
HETATM   29  C22 UNL     1      51.205 -10.068  11.934  1.00  0.00     0.243 C 
BRANCH  29  30
HETATM   30  N2  UNL     1      49.978 -10.105  12.745  1.00  0.00    -0.078 N 
ATOM     31  H23 UNL     1      49.158  -9.806  12.217  1.00  0.00     0.274 HD
ATOM     32  H22 UNL     1      49.681 -11.059  12.949  1.00  0.00     0.274 HD
ATOM     33  H21 UNL     1      50.112  -9.555  13.593  1.00  0.00     0.274 HD
ENDBRANCH  29  30
ENDBRANCH  25  29
ENDBRANCH   2  19
TORSDOF 7
ENDMDL
MODEL 2
REMARK VINA RESULT: -6.082632756      4.146      7.335
REMARK  7 active torsions:
REMARK  status: ('A' for Active; 'I' for Inactive)
REMARK    1  A    between atoms: C4_4  and  C5_5 
REMARK    2  A    between atoms: C7_10  and  O1_11 
REMARK    3  A    between atoms: C11_16  and  C12_17 
REMARK    4  A    between atoms: C13_18  and  C14_19 
REMARK    5  A    between atoms: C15_20  and  O2_22 
REMARK    6  A    between atoms: C20_27  and  C22_29 
REMARK    7  A    between atoms: C22_29  and  N2_30 
ROOT
HETATM    1  C12 UNL     1      53.764 -11.592  12.406  1.00  0.00    -0.020 C 
HETATM    2  C13 UNL     1      54.303 -10.414  12.567  1.00  0.00     0.003 C 
ENDROOT
BRANCH   1   3
HETATM    3  C11 UNL     1      52.573 -12.029  11.712  1.00  0.00     0.032 C 
HETATM    4  C5  UNL     1      52.220 -11.481  10.386  1.00  0.00     0.065 C 
HETATM    5  C6  UNL     1      53.348 -11.934   9.533  1.00  0.00     0.018 C 
HETATM    6  N1  UNL     1      54.058 -11.392   8.655  1.00  0.00    -0.403 N 
HETATM    7  C7  UNL     1      53.514 -13.377   9.954  1.00  0.00     0.172 C 
ATOM      8  H12 UNL     1      53.947 -10.418   8.371  1.00  0.00     0.155 HD
ATOM      9  H11 UNL     1      54.833 -11.703   8.069  1.00  0.00     0.155 HD
HETATM   10  C8  UNL     1      52.790 -13.506  11.279  1.00  0.00    -0.009 C 
HETATM   11  C9  UNL     1      53.638 -14.202  12.319  1.00  0.00     0.018 C 
HETATM   12  C10 UNL     1      51.477 -14.226  11.163  1.00  0.00     0.018 C 
BRANCH   4  13
HETATM   13  C4  UNL     1      51.810 -10.105  10.262  1.00  0.00    -0.014 C 
HETATM   14  C2  UNL     1      50.525  -9.785  10.380  1.00  0.00    -0.091 C 
HETATM   15  C1  UNL     1      49.502 -10.842  10.642  1.00  0.00     0.042 C 
HETATM   16  C3  UNL     1      50.081  -8.367  10.255  1.00  0.00     0.042 C 
ENDBRANCH   4  13
BRANCH   7  17
HETATM   17  O1  UNL     1      54.825 -13.777   9.981  1.00  0.00    -0.389 OA
ATOM     18  H1  UNL     1      54.925 -14.702  10.175  1.00  0.00     0.210 HD
ENDBRANCH   7  17
ENDBRANCH   1   3
BRANCH   2  19
HETATM   19  C14 UNL     1      55.547 -10.084  13.315  1.00  0.00    -0.037 C 
HETATM   20  C15 UNL     1      55.458 -10.117  14.796  1.00  0.00     0.078 C 
HETATM   21  C16 UNL     1      54.315  -9.242  15.279  1.00  0.00     0.051 C 
HETATM   22  C17 UNL     1      56.708  -9.400  15.333  1.00  0.00     0.042 C 
HETATM   23  C18 UNL     1      57.973  -9.949  14.771  1.00  0.00     0.004 C 
HETATM   24  C19 UNL     1      57.982  -9.929  13.255  1.00  0.00     0.015 C 
HETATM   25  C20 UNL     1      56.763 -10.677  12.709  1.00  0.00     0.006 C 
HETATM   26  C21 UNL     1      56.735 -10.348  11.211  1.00  0.00     0.022 C 
BRANCH  20  27
HETATM   27  O2  UNL     1      55.440 -11.351  15.392  1.00  0.00    -0.386 OA
ATOM     28  H2  UNL     1      56.277 -11.781  15.520  1.00  0.00     0.211 HD
ENDBRANCH  20  27
BRANCH  25  29
HETATM   29  C22 UNL     1      56.977 -12.125  12.871  1.00  0.00     0.243 C 
BRANCH  29  30
HETATM   30  N2  UNL     1      57.159 -12.746  11.550  1.00  0.00    -0.078 N 
ATOM     31  H23 UNL     1      57.431 -12.067  10.839  1.00  0.00     0.274 HD
ATOM     32  H22 UNL     1      57.989 -13.338  11.513  1.00  0.00     0.274 HD
ATOM     33  H21 UNL     1      56.313 -13.255  11.293  1.00  0.00     0.274 HD
ENDBRANCH  29  30
ENDBRANCH  25  29
ENDBRANCH   2  19
TORSDOF 7
ENDMDL
MODEL 3
REMARK VINA RESULT: -5.989141889      1.991      6.704
REMARK  7 active torsions:
REMARK  status: ('A' for Active; 'I' for Inactive)
REMARK    1  A    between atoms: C4_4  and  C5_5 
REMARK    2  A    between atoms: C7_10  and  O1_11 
REMARK    3  A    between atoms: C11_16  and  C12_17 
REMARK    4  A    between atoms: C13_18  and  C14_19 
REMARK    5  A    between atoms: C15_20  and  O2_22 
REMARK    6  A    between atoms: C20_27  and  C22_29 
REMARK    7  A    between atoms: C22_29  and  N2_30 
ROOT
HETATM    1  C12 UNL     1      52.554  -9.849   9.280  1.00  0.00    -0.020 C 
HETATM    2  C13 UNL     1      53.104  -9.412   8.181  1.00  0.00     0.003 C 
ENDROOT
BRANCH   1   3
HETATM    3  C11 UNL     1      51.576 -10.885   9.531  1.00  0.00     0.032 C 
HETATM    4  C5  UNL     1      51.994 -12.257   9.884  1.00  0.00     0.065 C 
HETATM    5  C6  UNL     1      52.689 -12.065  11.183  1.00  0.00     0.018 C 
HETATM    6  N1  UNL     1      53.755 -12.494  11.681  1.00  0.00    -0.403 N 
HETATM    7  C7  UNL     1      51.749 -11.135  11.918  1.00  0.00     0.172 C 
ATOM      8  H12 UNL     1      54.389 -13.121  11.184  1.00  0.00     0.155 HD
ATOM      9  H11 UNL     1      54.232 -12.362  12.572  1.00  0.00     0.155 HD
HETATM   10  C8  UNL     1      50.846 -10.537  10.858  1.00  0.00    -0.009 C 
HETATM   11  C9  UNL     1      50.747  -9.034  10.984  1.00  0.00     0.018 C 
HETATM   12  C10 UNL     1      49.461 -11.118  10.873  1.00  0.00     0.018 C 
BRANCH   4  13
HETATM   13  C4  UNL     1      52.646 -13.086   8.903  1.00  0.00    -0.014 C 
HETATM   14  C2  UNL     1      51.934 -13.954   8.191  1.00  0.00    -0.091 C 
HETATM   15  C1  UNL     1      50.459 -14.075   8.399  1.00  0.00     0.042 C 
HETATM   16  C3  UNL     1      52.591 -14.820   7.171  1.00  0.00     0.042 C 
ENDBRANCH   4  13
BRANCH   7  17
HETATM   17  O1  UNL     1      52.408 -10.213  12.689  1.00  0.00    -0.389 OA
ATOM     18  H1  UNL     1      52.662 -10.555  13.539  1.00  0.00     0.210 HD
ENDBRANCH   7  17
ENDBRANCH   1   3
BRANCH   2  19
HETATM   19  C14 UNL     1      54.111  -8.323   8.045  1.00  0.00    -0.037 C 
HETATM   20  C15 UNL     1      55.456  -8.721   7.561  1.00  0.00     0.078 C 
HETATM   21  C16 UNL     1      56.017  -9.843   8.417  1.00  0.00     0.051 C 
HETATM   22  C17 UNL     1      56.400  -7.543   7.852  1.00  0.00     0.042 C 
HETATM   23  C18 UNL     1      55.898  -6.253   7.306  1.00  0.00     0.004 C 
HETATM   24  C19 UNL     1      54.502  -5.926   7.803  1.00  0.00     0.015 C 
HETATM   25  C20 UNL     1      53.544  -7.075   7.480  1.00  0.00     0.006 C 
HETATM   26  C21 UNL     1      52.266  -6.756   8.265  1.00  0.00     0.022 C 
BRANCH  20  27
HETATM   27  O2  UNL     1      55.582  -8.991   6.224  1.00  0.00    -0.386 OA
ATOM     28  H2  UNL     1      55.985  -9.818   5.986  1.00  0.00     0.211 HD
ENDBRANCH  20  27
BRANCH  25  29
HETATM   29  C22 UNL     1      53.233  -7.050   6.041  1.00  0.00     0.243 C 
BRANCH  29  30
HETATM   30  N2  UNL     1      51.820  -6.689   5.849  1.00  0.00    -0.078 N 
ATOM     31  H23 UNL     1      51.364  -6.440   6.727  1.00  0.00     0.274 HD
ATOM     32  H22 UNL     1      51.712  -5.796   5.369  1.00  0.00     0.274 HD
ATOM     33  H21 UNL     1      51.337  -7.446   5.365  1.00  0.00     0.274 HD
ENDBRANCH  29  30
ENDBRANCH  25  29
ENDBRANCH   2  19
TORSDOF 7
ENDMDL
MODEL 4
REMARK VINA RESULT: -5.906666884      3.926      5.825
REMARK  7 active torsions:
REMARK  status: ('A' for Active; 'I' for Inactive)
REMARK    1  A    between atoms: C4_4  and  C5_5 
REMARK    2  A    between atoms: C7_10  and  O1_11 
REMARK    3  A    between atoms: C11_16  and  C12_17 
REMARK    4  A    between atoms: C13_18  and  C14_19 
REMARK    5  A    between atoms: C15_20  and  O2_22 
REMARK    6  A    between atoms: C20_27  and  C22_29 
REMARK    7  A    between atoms: C22_29  and  N2_30 
ROOT
HETATM    1  C12 UNL     1      53.413 -10.797  11.678  1.00  0.00    -0.020 C 
HETATM    2  C13 UNL     1      54.654 -10.557  12.001  1.00  0.00     0.003 C 
ENDROOT
BRANCH   1   3
HETATM    3  C11 UNL     1      52.561 -10.268  10.636  1.00  0.00     0.032 C 
HETATM    4  C5  UNL     1      52.797 -10.603   9.216  1.00  0.00     0.065 C 
HETATM    5  C6  UNL     1      52.575 -12.071   9.183  1.00  0.00     0.018 C 
HETATM    6  N1  UNL     1      53.173 -13.038   8.657  1.00  0.00    -0.403 N 
HETATM    7  C7  UNL     1      51.313 -12.226  10.002  1.00  0.00     0.172 C 
ATOM      8  H12 UNL     1      54.024 -12.933   8.105  1.00  0.00     0.155 HD
ATOM      9  H11 UNL     1      53.020 -14.046   8.634  1.00  0.00     0.155 HD
HETATM   10  C8  UNL     1      51.164 -10.935  10.781  1.00  0.00    -0.009 C 
HETATM   11  C9  UNL     1      50.892 -11.189  12.246  1.00  0.00     0.018 C 
HETATM   12  C10 UNL     1      50.088 -10.041  10.235  1.00  0.00     0.018 C 
BRANCH   4  13
HETATM   13  C4  UNL     1      53.965 -10.096   8.542  1.00  0.00    -0.014 C 
HETATM   14  C2  UNL     1      53.944  -8.880   8.006  1.00  0.00    -0.091 C 
HETATM   15  C1  UNL     1      52.718  -8.032   8.098  1.00  0.00     0.042 C 
HETATM   16  C3  UNL     1      55.144  -8.339   7.304  1.00  0.00     0.042 C 
ENDBRANCH   4  13
BRANCH   7  17
HETATM   17  O1  UNL     1      51.315 -13.359  10.774  1.00  0.00    -0.389 OA
ATOM     18  H1  UNL     1      51.793 -14.077  10.376  1.00  0.00     0.210 HD
ENDBRANCH   7  17
ENDBRANCH   1   3
BRANCH   2  19
HETATM   19  C14 UNL     1      55.434 -11.170  13.111  1.00  0.00    -0.037 C 
HETATM   20  C15 UNL     1      56.683 -11.878  12.732  1.00  0.00     0.078 C 
HETATM   21  C16 UNL     1      56.400 -12.916  11.661  1.00  0.00     0.051 C 
HETATM   22  C17 UNL     1      57.102 -12.721  13.947  1.00  0.00     0.042 C 
HETATM   23  C18 UNL     1      57.194 -11.923  15.200  1.00  0.00     0.004 C 
HETATM   24  C19 UNL     1      55.902 -11.190  15.507  1.00  0.00     0.015 C 
HETATM   25  C20 UNL     1      55.497 -10.313  14.319  1.00  0.00     0.006 C 
HETATM   26  C21 UNL     1      54.066  -9.859  14.634  1.00  0.00     0.022 C 
BRANCH  20  27
HETATM   27  O2  UNL     1      57.765 -11.101  12.413  1.00  0.00    -0.386 OA
ATOM     28  H2  UNL     1      58.396 -11.468  11.804  1.00  0.00     0.211 HD
ENDBRANCH  20  27
BRANCH  25  29
HETATM   29  C22 UNL     1      56.371  -9.128  14.278  1.00  0.00     0.243 C 
BRANCH  29  30
HETATM   30  N2  UNL     1      55.997  -8.204  15.360  1.00  0.00    -0.078 N 
ATOM     31  H23 UNL     1      55.229  -7.588  15.092  1.00  0.00     0.274 HD
ATOM     32  H22 UNL     1      55.537  -8.683  16.135  1.00  0.00     0.274 HD
ATOM     33  H21 UNL     1      56.820  -7.684  15.664  1.00  0.00     0.274 HD
ENDBRANCH  29  30
ENDBRANCH  25  29
ENDBRANCH   2  19
TORSDOF 7
ENDMDL
MODEL 5
REMARK VINA RESULT: -5.717091719      4.713      8.831
REMARK  7 active torsions:
REMARK  status: ('A' for Active; 'I' for Inactive)
REMARK    1  A    between atoms: C4_4  and  C5_5 
REMARK    2  A    between atoms: C7_10  and  O1_11 
REMARK    3  A    between atoms: C11_16  and  C12_17 
REMARK    4  A    between atoms: C13_18  and  C14_19 
REMARK    5  A    between atoms: C15_20  and  O2_22 
REMARK    6  A    between atoms: C20_27  and  C22_29 
REMARK    7  A    between atoms: C22_29  and  N2_30 
ROOT
HETATM    1  C12 UNL     1      55.462  -5.103   4.687  1.00  0.00    -0.020 C 
HETATM    2  C13 UNL     1      56.021  -5.122   3.508  1.00  0.00     0.003 C 
ENDROOT
BRANCH   1   3
HETATM    3  C11 UNL     1      55.389  -6.088   5.744  1.00  0.00     0.032 C 
HETATM    4  C5  UNL     1      56.473  -6.220   6.738  1.00  0.00     0.065 C 
HETATM    5  C6  UNL     1      56.441  -4.909   7.435  1.00  0.00     0.018 C 
HETATM    6  N1  UNL     1      57.314  -4.092   7.810  1.00  0.00    -0.403 N 
HETATM    7  C7  UNL     1      54.961  -4.698   7.662  1.00  0.00     0.172 C 
ATOM      8  H12 UNL     1      58.312  -4.234   7.657  1.00  0.00     0.155 HD
ATOM      9  H11 UNL     1      57.292  -3.192   8.288  1.00  0.00     0.155 HD
HETATM   10  C8  UNL     1      54.258  -5.654   6.719  1.00  0.00    -0.009 C 
HETATM   11  C9  UNL     1      53.166  -4.968   5.930  1.00  0.00     0.018 C 
HETATM   12  C10 UNL     1      53.674  -6.846   7.421  1.00  0.00     0.018 C 
BRANCH   4  13
HETATM   13  C4  UNL     1      57.762  -6.722   6.336  1.00  0.00    -0.014 C 
HETATM   14  C2  UNL     1      58.355  -7.671   7.053  1.00  0.00    -0.091 C 
HETATM   15  C1  UNL     1      57.695  -8.222   8.275  1.00  0.00     0.042 C 
HETATM   16  C3  UNL     1      59.689  -8.204   6.653  1.00  0.00     0.042 C 
ENDBRANCH   4  13
BRANCH   7  17
HETATM   17  O1  UNL     1      54.583  -3.387   7.527  1.00  0.00    -0.389 OA
ATOM     18  H1  UNL     1      55.116  -2.911   6.901  1.00  0.00     0.210 HD
ENDBRANCH   7  17
ENDBRANCH   1   3
BRANCH   2  19
HETATM   19  C14 UNL     1      56.029  -4.033   2.493  1.00  0.00    -0.037 C 
HETATM   20  C15 UNL     1      57.206  -3.129   2.500  1.00  0.00     0.078 C 
HETATM   21  C16 UNL     1      57.421  -2.548   3.886  1.00  0.00     0.051 C 
HETATM   22  C17 UNL     1      56.829  -1.903   1.651  1.00  0.00     0.042 C 
HETATM   23  C18 UNL     1      56.332  -2.269   0.297  1.00  0.00     0.004 C 
HETATM   24  C19 UNL     1      55.159  -3.229   0.359  1.00  0.00     0.015 C 
HETATM   25  C20 UNL     1      55.536  -4.473   1.166  1.00  0.00     0.006 C 
HETATM   26  C21 UNL     1      54.212  -5.215   1.391  1.00  0.00     0.022 C 
BRANCH  20  27
HETATM   27  O2  UNL     1      58.369  -3.619   1.968  1.00  0.00    -0.386 OA
ATOM     28  H2  UNL     1      59.117  -3.033   1.952  1.00  0.00     0.211 HD
ENDBRANCH  20  27
BRANCH  25  29
HETATM   29  C22 UNL     1      56.421  -5.323   0.350  1.00  0.00     0.243 C 
BRANCH  29  30
HETATM   30  N2  UNL     1      55.889  -6.694   0.313  1.00  0.00    -0.078 N 
ATOM     31  H23 UNL     1      56.625  -7.389   0.186  1.00  0.00     0.274 HD
ATOM     32  H22 UNL     1      55.553  -7.002   1.226  1.00  0.00     0.274 HD
ATOM     33  H21 UNL     1      55.167  -6.761  -0.405  1.00  0.00     0.274 HD
ENDBRANCH  29  30
ENDBRANCH  25  29
ENDBRANCH   2  19
TORSDOF 7
ENDMDL
