MODEL 1
REMARK VINA RESULT: -8.792287248      0.000      0.000
REMARK  4 active torsions:
REMARK  status: ('A' for Active; 'I' for Inactive)
REMARK    1  A    between atoms: C2_2  and  C5_5 
REMARK    2  A    between atoms: C5_5  and  C6_6 
REMARK    3  A    between atoms: C6_6  and  C7_7 
REMARK    4  A    between atoms: C8_10  and  C9_11 
ROOT
HETATM    1  C7  UNL     1      50.329  92.296  36.495  1.00  0.00     0.118 C 
HETATM    2  N1  UNL     1      49.540  91.482  37.440  1.00  0.00    -0.370 N 
ATOM      3  H1  UNL     1      49.334  91.917  38.339  1.00  0.00     0.161 HD
HETATM    4  C8  UNL     1      49.046  90.208  37.261  1.00  0.00     0.085 C 
HETATM    5  N2  UNL     1      49.444  89.494  36.290  1.00  0.00    -0.345 N 
ATOM      6  H2  UNL     1      49.084  88.549  36.158  1.00  0.00     0.167 HD
HETATM    7  C13 UNL     1      50.401  90.037  35.392  1.00  0.00     0.043 A 
HETATM    8  C14 UNL     1      50.881  89.138  34.424  1.00  0.00     0.055 A 
HETATM    9  C15 UNL     1      51.875  89.492  33.572  1.00  0.00     0.058 A 
HETATM   10 CL1  UNL     1      52.493  88.394  32.357  1.00  0.00    -0.082 Cl
HETATM   11  C16 UNL     1      52.398  90.754  33.683  1.00  0.00     0.056 A 
HETATM   12 CL2  UNL     1      53.688  91.244  32.597  1.00  0.00    -0.083 Cl
HETATM   13  C17 UNL     1      51.913  91.640  34.647  1.00  0.00     0.037 A 
HETATM   14  C18 UNL     1      50.907  91.311  35.520  1.00  0.00    -0.007 A 
ENDROOT
BRANCH   1  15
HETATM   15  C6  UNL     1      49.345  93.216  35.817  1.00  0.00     0.031 C 
BRANCH  15  16
HETATM   16  C5  UNL     1      49.735  94.548  35.388  1.00  0.00     0.011 C 
BRANCH  16  17
HETATM   17  C2  UNL     1      49.009  95.264  34.334  1.00  0.00    -0.051 C 
HETATM   18  C1  UNL     1      49.738  96.050  33.315  1.00  0.00     0.014 C 
HETATM   19  C3  UNL     1      48.223  94.182  33.543  1.00  0.00     0.014 C 
HETATM   20  C4  UNL     1      47.908  96.175  34.887  1.00  0.00     0.014 C 
ENDBRANCH  16  17
ENDBRANCH  15  16
ENDBRANCH   1  15
BRANCH   4  21
HETATM   21  C9  UNL     1      48.032  89.616  38.188  1.00  0.00     0.007 C 
HETATM   22  C10 UNL     1      48.397  88.192  38.528  1.00  0.00     0.022 C 
HETATM   23  C11 UNL     1      48.100  90.434  39.476  1.00  0.00     0.022 C 
HETATM   24  C12 UNL     1      46.654  89.615  37.596  1.00  0.00     0.022 C 
ENDBRANCH   4  21
TORSDOF 4
ENDMDL
MODEL 2
REMARK VINA RESULT: -8.755231807      2.826      5.032
REMARK  4 active torsions:
REMARK  status: ('A' for Active; 'I' for Inactive)
REMARK    1  A    between atoms: C2_2  and  C5_5 
REMARK    2  A    between atoms: C5_5  and  C6_6 
REMARK    3  A    between atoms: C6_6  and  C7_7 
REMARK    4  A    between atoms: C8_10  and  C9_11 
ROOT
HETATM    1  C7  UNL     1      49.497  90.566  34.075  1.00  0.00     0.118 C 
HETATM    2  N1  UNL     1      48.610  89.553  34.677  1.00  0.00    -0.370 N 
ATOM      3  H1  UNL     1      48.722  88.600  34.331  1.00  0.00     0.161 HD
HETATM    4  C8  UNL     1      47.648  89.731  35.649  1.00  0.00     0.085 C 
HETATM    5  N2  UNL     1      47.266  90.897  35.968  1.00  0.00    -0.345 N 
ATOM      6  H2  UNL     1      46.551  91.032  36.683  1.00  0.00     0.167 HD
HETATM    7  C13 UNL     1      47.852  92.012  35.311  1.00  0.00     0.043 A 
HETATM    8  C14 UNL     1      47.282  93.256  35.632  1.00  0.00     0.055 A 
HETATM    9  C15 UNL     1      47.672  94.389  34.998  1.00  0.00     0.058 A 
HETATM   10 CL1  UNL     1      46.981  95.952  35.376  1.00  0.00    -0.082 Cl
HETATM   11  C16 UNL     1      48.641  94.285  34.033  1.00  0.00     0.056 A 
HETATM   12 CL2  UNL     1      49.169  95.732  33.191  1.00  0.00    -0.083 Cl
HETATM   13  C17 UNL     1      49.202  93.045  33.724  1.00  0.00     0.037 A 
HETATM   14  C18 UNL     1      48.829  91.882  34.349  1.00  0.00    -0.007 A 
ENDROOT
BRANCH   1  15
HETATM   15  C6  UNL     1      50.809  90.460  34.811  1.00  0.00     0.031 C 
BRANCH  15  16
HETATM   16  C5  UNL     1      52.036  90.992  34.242  1.00  0.00     0.011 C 
BRANCH  16  17
HETATM   17  C2  UNL     1      52.707  90.345  33.112  1.00  0.00    -0.051 C 
HETATM   18  C1  UNL     1      52.386  88.951  32.739  1.00  0.00     0.014 C 
HETATM   19  C3  UNL     1      52.363  91.200  31.860  1.00  0.00     0.014 C 
HETATM   20  C4  UNL     1      54.234  90.435  33.199  1.00  0.00     0.014 C 
ENDBRANCH  16  17
ENDBRANCH  15  16
ENDBRANCH   1  15
BRANCH   4  21
HETATM   21  C9  UNL     1      47.022  88.575  36.361  1.00  0.00     0.007 C 
HETATM   22  C10 UNL     1      48.082  87.729  37.025  1.00  0.00     0.022 C 
HETATM   23  C11 UNL     1      46.148  89.172  37.462  1.00  0.00     0.022 C 
HETATM   24  C12 UNL     1      46.236  87.694  35.436  1.00  0.00     0.022 C 
ENDBRANCH   4  21
TORSDOF 4
ENDMDL
MODEL 3
REMARK VINA RESULT: -8.712683815      2.942      5.078
REMARK  4 active torsions:
REMARK  status: ('A' for Active; 'I' for Inactive)
REMARK    1  A    between atoms: C2_2  and  C5_5 
REMARK    2  A    between atoms: C5_5  and  C6_6 
REMARK    3  A    between atoms: C6_6  and  C7_7 
REMARK    4  A    between atoms: C8_10  and  C9_11 
ROOT
HETATM    1  C7  UNL     1      48.938  91.463  33.728  1.00  0.00     0.118 C 
HETATM    2  N1  UNL     1      50.167  91.080  33.008  1.00  0.00    -0.370 N 
ATOM      3  H1  UNL     1      50.267  91.457  32.065  1.00  0.00     0.161 HD
HETATM    4  C8  UNL     1      51.197  90.277  33.446  1.00  0.00     0.085 C 
HETATM    5  N2  UNL     1      51.062  89.571  34.492  1.00  0.00    -0.345 N 
ATOM      6  H2  UNL     1      51.820  88.972  34.817  1.00  0.00     0.167 HD
HETATM    7  C13 UNL     1      49.832  89.633  35.202  1.00  0.00     0.043 A 
HETATM    8  C14 UNL     1      49.720  88.727  36.271  1.00  0.00     0.055 A 
HETATM    9  C15 UNL     1      48.562  88.604  36.965  1.00  0.00     0.058 A 
HETATM   10 CL1  UNL     1      48.393  87.485  38.301  1.00  0.00    -0.082 Cl
HETATM   11  C16 UNL     1      47.502  89.389  36.592  1.00  0.00     0.056 A 
HETATM   12 CL2  UNL     1      45.987  89.254  37.468  1.00  0.00    -0.083 Cl
HETATM   13  C17 UNL     1      47.625  90.287  35.530  1.00  0.00     0.037 A 
HETATM   14  C18 UNL     1      48.784  90.435  34.811  1.00  0.00    -0.007 A 
ENDROOT
BRANCH   1  15
HETATM   15  C6  UNL     1      49.206  92.829  34.310  1.00  0.00     0.031 C 
BRANCH  15  16
HETATM   16  C5  UNL     1      48.603  94.021  33.739  1.00  0.00     0.011 C 
BRANCH  16  17
HETATM   17  C2  UNL     1      48.967  95.365  34.196  1.00  0.00    -0.051 C 
HETATM   18  C1  UNL     1      47.968  96.236  34.853  1.00  0.00     0.014 C 
HETATM   19  C3  UNL     1      50.102  95.173  35.239  1.00  0.00     0.014 C 
HETATM   20  C4  UNL     1      49.626  96.206  33.098  1.00  0.00     0.014 C 
ENDBRANCH  16  17
ENDBRANCH  15  16
ENDBRANCH   1  15
BRANCH   4  21
HETATM   21  C9  UNL     1      52.504  90.201  32.722  1.00  0.00     0.007 C 
HETATM   22  C10 UNL     1      53.642  90.545  33.653  1.00  0.00     0.022 C 
HETATM   23  C11 UNL     1      52.675  88.744  32.298  1.00  0.00     0.022 C 
HETATM   24  C12 UNL     1      52.561  91.137  31.552  1.00  0.00     0.022 C 
ENDBRANCH   4  21
TORSDOF 4
ENDMDL
MODEL 4
REMARK VINA RESULT: -8.670943241      1.938      4.775
REMARK  4 active torsions:
REMARK  status: ('A' for Active; 'I' for Inactive)
REMARK    1  A    between atoms: C2_2  and  C5_5 
REMARK    2  A    between atoms: C5_5  and  C6_6 
REMARK    3  A    between atoms: C6_6  and  C7_7 
REMARK    4  A    between atoms: C8_10  and  C9_11 
ROOT
HETATM    1  C7  UNL     1      48.898  90.516  33.453  1.00  0.00     0.118 C 
HETATM    2  N1  UNL     1      48.489  91.918  33.660  1.00  0.00    -0.370 N 
ATOM      3  H1  UNL     1      47.522  92.140  33.422  1.00  0.00     0.161 HD
HETATM    4  C8  UNL     1      49.247  92.966  34.135  1.00  0.00     0.085 C 
HETATM    5  N2  UNL     1      50.508  92.857  34.230  1.00  0.00    -0.345 N 
ATOM      6  H2  UNL     1      51.072  93.632  34.576  1.00  0.00     0.167 HD
HETATM    7  C13 UNL     1      51.117  91.632  33.844  1.00  0.00     0.043 A 
HETATM    8  C14 UNL     1      52.522  91.640  33.860  1.00  0.00     0.055 A 
HETATM    9  C15 UNL     1      53.233  90.575  33.412  1.00  0.00     0.058 A 
HETATM   10 CL1  UNL     1      54.984  90.556  33.420  1.00  0.00    -0.082 Cl
HETATM   11  C16 UNL     1      52.539  89.490  32.945  1.00  0.00     0.056 A 
HETATM   12 CL2  UNL     1      53.428  88.095  32.356  1.00  0.00    -0.083 Cl
HETATM   13  C17 UNL     1      51.143  89.491  32.936  1.00  0.00     0.037 A 
HETATM   14  C18 UNL     1      50.398  90.553  33.383  1.00  0.00    -0.007 A 
ENDROOT
BRANCH   1  15
HETATM   15  C6  UNL     1      48.431  89.762  34.673  1.00  0.00     0.031 C 
BRANCH  15  16
HETATM   16  C5  UNL     1      47.038  89.792  35.088  1.00  0.00     0.011 C 
BRANCH  16  17
HETATM   17  C2  UNL     1      46.622  90.407  36.351  1.00  0.00    -0.051 C 
HETATM   18  C1  UNL     1      47.537  91.298  37.096  1.00  0.00     0.014 C 
HETATM   19  C3  UNL     1      45.376  91.274  36.018  1.00  0.00     0.014 C 
HETATM   20  C4  UNL     1      46.088  89.385  37.360  1.00  0.00     0.014 C 
ENDBRANCH  16  17
ENDBRANCH  15  16
ENDBRANCH   1  15
BRANCH   4  21
HETATM   21  C9  UNL     1      48.629  94.262  34.556  1.00  0.00     0.007 C 
HETATM   22  C10 UNL     1      48.972  95.353  33.571  1.00  0.00     0.022 C 
HETATM   23  C11 UNL     1      47.118  94.051  34.508  1.00  0.00     0.022 C 
HETATM   24  C12 UNL     1      49.092  94.698  35.914  1.00  0.00     0.022 C 
ENDBRANCH   4  21
TORSDOF 4
ENDMDL
MODEL 5
REMARK VINA RESULT: -8.582034870      3.082      5.180
REMARK  4 active torsions:
REMARK  status: ('A' for Active; 'I' for Inactive)
REMARK    1  A    between atoms: C2_2  and  C5_5 
REMARK    2  A    between atoms: C5_5  and  C6_6 
REMARK    3  A    between atoms: C6_6  and  C7_7 
REMARK    4  A    between atoms: C8_10  and  C9_11 
ROOT
HETATM    1  C7  UNL     1      48.766  91.358  33.695  1.00  0.00     0.118 C 
HETATM    2  N1  UNL     1      50.018  90.994  33.005  1.00  0.00    -0.370 N 
ATOM      3  H1  UNL     1      50.102  91.310  32.038  1.00  0.00     0.161 HD
HETATM    4  C8  UNL     1      51.089  90.282  33.500  1.00  0.00     0.085 C 
HETATM    5  N2  UNL     1      50.987  89.645  34.593  1.00  0.00    -0.345 N 
ATOM      6  H2  UNL     1      51.776  89.113  34.959  1.00  0.00     0.167 HD
HETATM    7  C13 UNL     1      49.753  89.687  35.295  1.00  0.00     0.043 A 
HETATM    8  C14 UNL     1      49.685  88.853  36.424  1.00  0.00     0.055 A 
HETATM    9  C15 UNL     1      48.532  88.714  37.123  1.00  0.00     0.058 A 
HETATM   10 CL1  UNL     1      48.418  87.683  38.534  1.00  0.00    -0.082 Cl
HETATM   11  C16 UNL     1      47.433  89.411  36.695  1.00  0.00     0.056 A 
HETATM   12 CL2  UNL     1      45.922  89.253  37.576  1.00  0.00    -0.083 Cl
HETATM   13  C17 UNL     1      47.510  90.238  35.573  1.00  0.00     0.037 A 
HETATM   14  C18 UNL     1      48.663  90.400  34.848  1.00  0.00    -0.007 A 
ENDROOT
BRANCH   1  15
HETATM   15  C6  UNL     1      48.955  92.773  34.181  1.00  0.00     0.031 C 
BRANCH  15  16
HETATM   16  C5  UNL     1      47.938  93.787  33.956  1.00  0.00     0.011 C 
BRANCH  16  17
HETATM   17  C2  UNL     1      47.102  94.299  35.046  1.00  0.00    -0.051 C 
HETATM   18  C1  UNL     1      45.666  93.957  35.119  1.00  0.00     0.014 C 
HETATM   19  C3  UNL     1      47.728  93.754  36.360  1.00  0.00     0.014 C 
HETATM   20  C4  UNL     1      47.201  95.819  35.204  1.00  0.00     0.014 C 
ENDBRANCH  16  17
ENDBRANCH  15  16
ENDBRANCH   1  15
BRANCH   4  21
HETATM   21  C9  UNL     1      52.401  90.229  32.785  1.00  0.00     0.007 C 
HETATM   22  C10 UNL     1      53.527  90.594  33.723  1.00  0.00     0.022 C 
HETATM   23  C11 UNL     1      52.601  88.775  32.363  1.00  0.00     0.022 C 
HETATM   24  C12 UNL     1      52.450  91.165  31.614  1.00  0.00     0.022 C 
ENDBRANCH   4  21
TORSDOF 4
ENDMDL
