MODEL 1
REMARK VINA RESULT: -8.576193880      0.000      0.000
REMARK  3 active torsions:
REMARK  status: ('A' for Active; 'I' for Inactive)
REMARK    1  A    between atoms: C8_9  and  C9_10 
REMARK    2  A    between atoms: C9_10  and  C10_12 
REMARK    3  A    between atoms: N1_13  and  C11_15 
ROOT
HETATM    1  C9  UNL     1      49.016  91.884  35.402  1.00  0.00     0.104 C 
HETATM    2 BR1  UNL     1      50.892  91.596  35.306  1.00  0.00    -0.085 Br
ENDROOT
BRANCH   1   3
HETATM    3  C8  UNL     1      48.242  91.160  36.411  1.00  0.00     0.035 C 
HETATM    4  C2  UNL     1      47.487  89.957  36.096  1.00  0.00    -0.063 C 
HETATM    5  C1  UNL     1      47.910  88.976  35.358  1.00  0.00     0.087 C 
HETATM    6  C3  UNL     1      46.090  89.698  36.631  1.00  0.00     0.035 C 
HETATM    7 CL1  UNL     1      46.902  87.576  35.085  1.00  0.00    -0.097 Cl
HETATM    8  C4  UNL     1      46.146  89.391  38.102  1.00  0.00     0.004 C 
HETATM    9  C5  UNL     1      47.560  89.280  38.620  1.00  0.00     0.000 C 
HETATM   10  C6  UNL     1      48.272  90.590  38.754  1.00  0.00     0.001 C 
HETATM   11  C7  UNL     1      49.196  90.741  37.558  1.00  0.00     0.010 C 
ENDBRANCH   1   3
BRANCH   1  12
HETATM   12  C10 UNL     1      48.374  91.799  34.048  1.00  0.00     0.077 C 
HETATM   13  N1  UNL     1      48.032  92.844  33.409  1.00  0.00    -0.368 N 
ATOM     14  H1  UNL     1      47.602  92.704  32.496  1.00  0.00     0.165 HD
BRANCH  13  15
HETATM   15  C11 UNL     1      48.190  94.185  33.842  1.00  0.00     0.031 A 
HETATM   16  C12 UNL     1      47.371  94.777  34.779  1.00  0.00     0.029 A 
HETATM   17  C13 UNL     1      47.606  96.105  35.144  1.00  0.00     0.002 A 
HETATM   18  C14 UNL     1      48.621  96.849  34.609  1.00  0.00     0.000 A 
HETATM   19  C15 UNL     1      49.439  96.246  33.669  1.00  0.00     0.002 A 
HETATM   20  C16 UNL     1      49.209  94.932  33.305  1.00  0.00     0.029 A 
ENDBRANCH  13  15
ENDBRANCH   1  12
TORSDOF 3
ENDMDL
MODEL 2
REMARK VINA RESULT: -8.545813067      1.659      2.294
REMARK  3 active torsions:
REMARK  status: ('A' for Active; 'I' for Inactive)
REMARK    1  A    between atoms: C8_9  and  C9_10 
REMARK    2  A    between atoms: C9_10  and  C10_12 
REMARK    3  A    between atoms: N1_13  and  C11_15 
ROOT
HETATM    1  C9  UNL     1      48.954  91.554  35.306  1.00  0.00     0.104 C 
HETATM    2 BR1  UNL     1      50.850  91.669  35.378  1.00  0.00    -0.085 Br
ENDROOT
BRANCH   1   3
HETATM    3  C8  UNL     1      48.275  90.555  36.133  1.00  0.00     0.035 C 
HETATM    4  C2  UNL     1      48.255  90.632  37.585  1.00  0.00    -0.063 C 
HETATM    5  C1  UNL     1      48.043  91.709  38.278  1.00  0.00     0.087 C 
HETATM    6  C3  UNL     1      48.460  89.419  38.477  1.00  0.00     0.035 C 
HETATM    7 CL1  UNL     1      48.020  91.648  40.023  1.00  0.00    -0.097 Cl
HETATM    8  C4  UNL     1      47.257  88.519  38.413  1.00  0.00     0.004 C 
HETATM    9  C5  UNL     1      46.126  89.114  37.609  1.00  0.00     0.000 C 
HETATM   10  C6  UNL     1      46.349  89.105  36.129  1.00  0.00     0.001 C 
HETATM   11  C7  UNL     1      46.784  90.500  35.716  1.00  0.00     0.010 C 
ENDBRANCH   1   3
BRANCH   1  12
HETATM   12  C10 UNL     1      48.456  91.529  33.890  1.00  0.00     0.077 C 
HETATM   13  N1  UNL     1      48.083  92.591  33.299  1.00  0.00    -0.368 N 
ATOM     14  H1  UNL     1      47.757  92.492  32.338  1.00  0.00     0.165 HD
BRANCH  13  15
HETATM   15  C11 UNL     1      48.076  93.899  33.844  1.00  0.00     0.031 A 
HETATM   16  C12 UNL     1      47.114  94.344  34.726  1.00  0.00     0.029 A 
HETATM   17  C13 UNL     1      47.191  95.652  35.211  1.00  0.00     0.002 A 
HETATM   18  C14 UNL     1      48.186  96.517  34.849  1.00  0.00     0.000 A 
HETATM   19  C15 UNL     1      49.148  96.062  33.963  1.00  0.00     0.002 A 
HETATM   20  C16 UNL     1      49.075  94.768  33.480  1.00  0.00     0.029 A 
ENDBRANCH  13  15
ENDBRANCH   1  12
TORSDOF 3
ENDMDL
MODEL 3
REMARK VINA RESULT: -8.499890610      1.673      2.544
REMARK  3 active torsions:
REMARK  status: ('A' for Active; 'I' for Inactive)
REMARK    1  A    between atoms: C8_9  and  C9_10 
REMARK    2  A    between atoms: C9_10  and  C10_12 
REMARK    3  A    between atoms: N1_13  and  C11_15 
ROOT
HETATM    1  C9  UNL     1      48.943  91.553  35.322  1.00  0.00     0.104 C 
HETATM    2 BR1  UNL     1      50.839  91.656  35.385  1.00  0.00    -0.085 Br
ENDROOT
BRANCH   1   3
HETATM    3  C8  UNL     1      48.262  90.567  36.163  1.00  0.00     0.035 C 
HETATM    4  C2  UNL     1      48.242  90.664  37.614  1.00  0.00    -0.063 C 
HETATM    5  C1  UNL     1      48.034  91.752  38.292  1.00  0.00     0.087 C 
HETATM    6  C3  UNL     1      48.444  89.464  38.523  1.00  0.00     0.035 C 
HETATM    7 CL1  UNL     1      48.011  91.715  40.038  1.00  0.00    -0.097 Cl
HETATM    8  C4  UNL     1      47.239  88.565  38.472  1.00  0.00     0.004 C 
HETATM    9  C5  UNL     1      46.109  89.153  37.660  1.00  0.00     0.000 C 
HETATM   10  C6  UNL     1      46.331  89.122  36.180  1.00  0.00     0.001 C 
HETATM   11  C7  UNL     1      46.770  90.511  35.748  1.00  0.00     0.010 C 
ENDBRANCH   1   3
BRANCH   1  12
HETATM   12  C10 UNL     1      48.438  91.516  33.909  1.00  0.00     0.077 C 
HETATM   13  N1  UNL     1      48.095  92.577  33.299  1.00  0.00    -0.368 N 
ATOM     14  H1  UNL     1      47.762  92.470  32.341  1.00  0.00     0.165 HD
BRANCH  13  15
HETATM   15  C11 UNL     1      48.130  93.895  33.819  1.00  0.00     0.031 A 
HETATM   16  C12 UNL     1      49.124  94.801  33.513  1.00  0.00     0.029 A 
HETATM   17  C13 UNL     1      49.072  96.080  34.073  1.00  0.00     0.002 A 
HETATM   18  C14 UNL     1      48.072  96.477  34.917  1.00  0.00     0.000 A 
HETATM   19  C15 UNL     1      47.078  95.562  35.218  1.00  0.00     0.002 A 
HETATM   20  C16 UNL     1      47.125  94.295  34.666  1.00  0.00     0.029 A 
ENDBRANCH  13  15
ENDBRANCH   1  12
TORSDOF 3
ENDMDL
MODEL 4
REMARK VINA RESULT: -8.409451847      1.514      1.989
REMARK  3 active torsions:
REMARK  status: ('A' for Active; 'I' for Inactive)
REMARK    1  A    between atoms: C8_9  and  C9_10 
REMARK    2  A    between atoms: C9_10  and  C10_12 
REMARK    3  A    between atoms: N1_13  and  C11_15 
ROOT
HETATM    1  C9  UNL     1      48.934  91.592  35.159  1.00  0.00     0.104 C 
HETATM    2 BR1  UNL     1      50.787  91.714  35.565  1.00  0.00    -0.085 Br
ENDROOT
BRANCH   1   3
HETATM    3  C8  UNL     1      48.146  90.524  35.775  1.00  0.00     0.035 C 
HETATM    4  C2  UNL     1      46.776  90.727  36.219  1.00  0.00    -0.063 C 
HETATM    5  C1  UNL     1      45.857  91.360  35.557  1.00  0.00     0.087 C 
HETATM    6  C3  UNL     1      46.247  90.181  37.535  1.00  0.00     0.035 C 
HETATM    7 CL1  UNL     1      44.240  91.503  36.202  1.00  0.00    -0.097 Cl
HETATM    8  C4  UNL     1      46.101  88.686  37.456  1.00  0.00     0.004 C 
HETATM    9  C5  UNL     1      46.375  88.147  36.072  1.00  0.00     0.000 C 
HETATM   10  C6  UNL     1      47.821  88.136  35.689  1.00  0.00     0.001 C 
HETATM   11  C7  UNL     1      48.072  89.333  34.787  1.00  0.00     0.010 C 
ENDBRANCH   1   3
BRANCH   1  12
HETATM   12  C10 UNL     1      48.686  91.679  33.681  1.00  0.00     0.077 C 
HETATM   13  N1  UNL     1      48.419  92.787  33.118  1.00  0.00    -0.368 N 
ATOM     14  H1  UNL     1      48.263  92.765  32.110  1.00  0.00     0.165 HD
BRANCH  13  15
HETATM   15  C11 UNL     1      48.319  94.051  33.751  1.00  0.00     0.031 A 
HETATM   16  C12 UNL     1      47.290  94.387  34.606  1.00  0.00     0.029 A 
HETATM   17  C13 UNL     1      47.277  95.659  35.185  1.00  0.00     0.002 A 
HETATM   18  C14 UNL     1      48.246  96.592  34.941  1.00  0.00     0.000 A 
HETATM   19  C15 UNL     1      49.275  96.246  34.082  1.00  0.00     0.002 A 
HETATM   20  C16 UNL     1      49.292  94.988  33.506  1.00  0.00     0.029 A 
ENDBRANCH  13  15
ENDBRANCH   1  12
TORSDOF 3
ENDMDL
MODEL 5
REMARK VINA RESULT: -8.379633753      2.225      2.760
REMARK  3 active torsions:
REMARK  status: ('A' for Active; 'I' for Inactive)
REMARK    1  A    between atoms: C8_9  and  C9_10 
REMARK    2  A    between atoms: C9_10  and  C10_12 
REMARK    3  A    between atoms: N1_13  and  C11_15 
ROOT
HETATM    1  C9  UNL     1      47.465  92.684  36.244  1.00  0.00     0.104 C 
HETATM    2 BR1  UNL     1      45.798  93.387  35.660  1.00  0.00    -0.085 Br
ENDROOT
BRANCH   1   3
HETATM    3  C8  UNL     1      47.576  91.246  36.491  1.00  0.00     0.035 C 
HETATM    4  C2  UNL     1      48.481  90.395  35.735  1.00  0.00    -0.063 C 
HETATM    5  C1  UNL     1      49.709  90.687  35.429  1.00  0.00     0.087 C 
HETATM    6  C3  UNL     1      48.087  89.018  35.228  1.00  0.00     0.035 C 
HETATM    7 CL1  UNL     1      50.692  89.553  34.536  1.00  0.00    -0.097 Cl
HETATM    8  C4  UNL     1      47.984  88.052  36.375  1.00  0.00     0.004 C 
HETATM    9  C5  UNL     1      48.432  88.654  37.686  1.00  0.00     0.000 C 
HETATM   10  C6  UNL     1      47.465  89.630  38.278  1.00  0.00     0.001 C 
HETATM   11  C7  UNL     1      47.972  91.029  37.974  1.00  0.00     0.010 C 
ENDBRANCH   1   3
BRANCH   1  12
HETATM   12  C10 UNL     1      48.034  93.485  37.379  1.00  0.00     0.077 C 
HETATM   13  N1  UNL     1      48.717  94.537  37.171  1.00  0.00    -0.368 N 
ATOM     14  H1  UNL     1      49.070  95.026  37.994  1.00  0.00     0.165 HD
BRANCH  13  15
HETATM   15  C11 UNL     1      49.036  95.098  35.909  1.00  0.00     0.031 A 
HETATM   16  C12 UNL     1      49.995  94.572  35.070  1.00  0.00     0.029 A 
HETATM   17  C13 UNL     1      50.239  95.194  33.843  1.00  0.00     0.002 A 
HETATM   18  C14 UNL     1      49.563  96.311  33.434  1.00  0.00     0.000 A 
HETATM   19  C15 UNL     1      48.603  96.832  34.283  1.00  0.00     0.002 A 
HETATM   20  C16 UNL     1      48.358  96.219  35.499  1.00  0.00     0.029 A 
ENDBRANCH  13  15
ENDBRANCH   1  12
TORSDOF 3
ENDMDL
