MODEL 1
REMARK VINA RESULT: -4.588314268      0.000      0.000
REMARK  2 active torsions:
REMARK  status: ('A' for Active; 'I' for Inactive)
REMARK    1  A    between atoms: O1_1  and  C1_3 
REMARK    2  A    between atoms: C7_9  and  O2_10 
ROOT
HETATM    1  C1  UNL     1      28.797  21.403  85.327  1.00  0.00     0.124 C 
HETATM    2  C2  UNL     1      29.948  22.338  85.424  1.00  0.00     0.032 C 
HETATM    3  C3  UNL     1      31.061  22.080  84.474  1.00  0.00     0.010 C 
HETATM    4  C4  UNL     1      30.931  20.773  83.757  1.00  0.00     0.015 C 
HETATM    5  C5  UNL     1      30.478  19.651  84.684  1.00  0.00     0.017 C 
HETATM    6  C6  UNL     1      29.076  20.191  84.497  1.00  0.00     0.044 C 
HETATM    7  C7  UNL     1      29.539  20.687  83.124  1.00  0.00     0.128 C 
ENDROOT
BRANCH   1   8
HETATM    8  O1  UNL     1      27.740  22.096  84.697  1.00  0.00    -0.395 OA
ATOM      9  H1  UNL     1      27.612  21.705  83.841  1.00  0.00     0.210 HD
ENDBRANCH   1   8
BRANCH   7  10
HETATM   10  O2  UNL     1      29.523  19.720  82.133  1.00  0.00    -0.395 OA
ATOM     11  H2  UNL     1      28.957  19.990  81.419  1.00  0.00     0.210 HD
ENDBRANCH   7  10
TORSDOF 2
ENDMDL
MODEL 2
REMARK VINA RESULT: -4.163680711      1.544      2.334
REMARK  2 active torsions:
REMARK  status: ('A' for Active; 'I' for Inactive)
REMARK    1  A    between atoms: O1_1  and  C1_3 
REMARK    2  A    between atoms: C7_9  and  O2_10 
ROOT
HETATM    1  C1  UNL     1      30.255  21.974  85.293  1.00  0.00     0.124 C 
HETATM    2  C2  UNL     1      31.019  21.217  84.268  1.00  0.00     0.032 C 
HETATM    3  C3  UNL     1      30.197  20.427  83.315  1.00  0.00     0.010 C 
HETATM    4  C4  UNL     1      28.758  20.338  83.713  1.00  0.00     0.015 C 
HETATM    5  C5  UNL     1      28.587  20.097  85.209  1.00  0.00     0.017 C 
HETATM    6  C6  UNL     1      28.813  21.585  85.378  1.00  0.00     0.044 C 
HETATM    7  C7  UNL     1      28.223  21.750  83.974  1.00  0.00     0.128 C 
ENDROOT
BRANCH   1   8
HETATM    8  O1  UNL     1      30.290  23.338  84.927  1.00  0.00    -0.395 OA
ATOM      9  H1  UNL     1      29.818  23.824  85.593  1.00  0.00     0.210 HD
ENDBRANCH   1   8
BRANCH   7  10
HETATM   10  O2  UNL     1      26.839  21.753  83.934  1.00  0.00    -0.395 OA
ATOM     11  H2  UNL     1      26.491  22.287  84.638  1.00  0.00     0.210 HD
ENDBRANCH   7  10
TORSDOF 2
ENDMDL
MODEL 3
REMARK VINA RESULT: -4.157782229      1.401      2.918
REMARK  2 active torsions:
REMARK  status: ('A' for Active; 'I' for Inactive)
REMARK    1  A    between atoms: O1_1  and  C1_3 
REMARK    2  A    between atoms: C7_9  and  O2_10 
ROOT
HETATM    1  C1  UNL     1      28.653  20.815  83.352  1.00  0.00     0.124 C 
HETATM    2  C2  UNL     1      30.037  20.281  83.417  1.00  0.00     0.032 C 
HETATM    3  C3  UNL     1      30.768  20.554  84.681  1.00  0.00     0.010 C 
HETATM    4  C4  UNL     1      30.065  21.534  85.567  1.00  0.00     0.015 C 
HETATM    5  C5  UNL     1      29.485  22.705  84.783  1.00  0.00     0.017 C 
HETATM    6  C6  UNL     1      28.331  21.785  84.444  1.00  0.00     0.044 C 
HETATM    7  C7  UNL     1      28.618  21.074  85.770  1.00  0.00     0.128 C 
ENDROOT
BRANCH   1   8
HETATM    8  O1  UNL     1      27.769  19.724  83.500  1.00  0.00    -0.395 OA
ATOM      9  H1  UNL     1      26.976  20.051  83.908  1.00  0.00     0.210 HD
ENDBRANCH   1   8
BRANCH   7  10
HETATM   10  O2  UNL     1      28.070  21.695  86.880  1.00  0.00    -0.395 OA
ATOM     11  H2  UNL     1      28.759  22.035  87.440  1.00  0.00     0.210 HD
ENDBRANCH   7  10
TORSDOF 2
ENDMDL
MODEL 4
REMARK VINA RESULT: -4.097261254      1.673      2.845
REMARK  2 active torsions:
REMARK  status: ('A' for Active; 'I' for Inactive)
REMARK    1  A    between atoms: O1_1  and  C1_3 
REMARK    2  A    between atoms: C7_9  and  O2_10 
ROOT
HETATM    1  C1  UNL     1      30.894  21.008  85.084  1.00  0.00     0.124 C 
HETATM    2  C2  UNL     1      30.917  20.337  83.759  1.00  0.00     0.032 C 
HETATM    3  C3  UNL     1      29.636  20.366  83.006  1.00  0.00     0.010 C 
HETATM    4  C4  UNL     1      28.483  20.850  83.827  1.00  0.00     0.015 C 
HETATM    5  C5  UNL     1      28.497  20.272  85.238  1.00  0.00     0.017 C 
HETATM    6  C6  UNL     1      29.517  21.342  85.564  1.00  0.00     0.044 C 
HETATM    7  C7  UNL     1      28.856  22.188  84.472  1.00  0.00     0.128 C 
ENDROOT
BRANCH   1   8
HETATM    8  O1  UNL     1      31.589  22.230  84.953  1.00  0.00    -0.395 OA
ATOM      9  H1  UNL     1      31.882  22.487  85.819  1.00  0.00     0.210 HD
ENDBRANCH   1   8
BRANCH   7  10
HETATM   10  O2  UNL     1      27.715  22.857  84.882  1.00  0.00    -0.395 OA
ATOM     11  H2  UNL     1      27.933  23.741  85.154  1.00  0.00     0.210 HD
ENDBRANCH   7  10
TORSDOF 2
ENDMDL
MODEL 5
REMARK VINA RESULT: -4.028303885      1.692      3.277
REMARK  2 active torsions:
REMARK  status: ('A' for Active; 'I' for Inactive)
REMARK    1  A    between atoms: O1_1  and  C1_3 
REMARK    2  A    between atoms: C7_9  and  O2_10 
ROOT
HETATM    1  C1  UNL     1      30.795  20.460  84.679  1.00  0.00     0.124 C 
HETATM    2  C2  UNL     1      29.521  20.054  84.033  1.00  0.00     0.032 C 
HETATM    3  C3  UNL     1      28.460  21.094  84.004  1.00  0.00     0.010 C 
HETATM    4  C4  UNL     1      28.779  22.283  84.853  1.00  0.00     0.015 C 
HETATM    5  C5  UNL     1      29.387  21.887  86.194  1.00  0.00     0.017 C 
HETATM    6  C6  UNL     1      30.697  21.739  85.449  1.00  0.00     0.044 C 
HETATM    7  C7  UNL     1      30.171  22.803  84.482  1.00  0.00     0.128 C 
ENDROOT
BRANCH   1   8
HETATM    8  O1  UNL     1      31.743  20.671  83.654  1.00  0.00    -0.395 OA
ATOM      9  H1  UNL     1      31.853  21.610  83.556  1.00  0.00     0.210 HD
ENDBRANCH   1   8
BRANCH   7  10
HETATM   10  O2  UNL     1      30.330  24.105  84.925  1.00  0.00    -0.395 OA
ATOM     11  H2  UNL     1      30.498  24.684  84.190  1.00  0.00     0.210 HD
ENDBRANCH   7  10
TORSDOF 2
ENDMDL
