MODEL 1
REMARK VINA RESULT: -3.644663222      0.000      0.000
REMARK  1 active torsions:
REMARK  status: ('A' for Active; 'I' for Inactive)
REMARK    1  A    between atoms: N1_8  and  O1_9 
ROOT
HETATM    1  C1  UNL     1      24.082  19.033  84.260  1.00  0.00     0.029 C 
HETATM    2  C2  UNL     1      25.396  19.424  83.570  1.00  0.00     0.082 C 
HETATM    3  C3  UNL     1      25.662  18.461  82.469  1.00  0.00     0.022 C 
HETATM    4  C4  UNL     1      26.589  18.952  81.409  1.00  0.00     0.003 C 
HETATM    5  C5  UNL     1      26.465  20.396  81.080  1.00  0.00     0.022 C 
HETATM    6  C6  UNL     1      25.381  21.113  81.844  1.00  0.00     0.082 C 
HETATM    7  C7  UNL     1      24.070  20.912  81.164  1.00  0.00     0.029 C 
HETATM    8  N1  UNL     1      25.419  20.795  83.224  1.00  0.00    -0.191 NA
ENDROOT
BRANCH   8   9
HETATM    9  O1  UNL     1      26.496  21.443  83.756  1.00  0.00    -0.312 OA
ATOM     10  H1  UNL     1      26.260  22.282  84.133  1.00  0.00     0.237 HD
ENDBRANCH   8   9
TORSDOF 1
ENDMDL
MODEL 2
REMARK VINA RESULT: -3.447098439      1.739      2.173
REMARK  1 active torsions:
REMARK  status: ('A' for Active; 'I' for Inactive)
REMARK    1  A    between atoms: N1_8  and  O1_9 
ROOT
HETATM    1  C1  UNL     1      26.241  20.138  83.656  1.00  0.00     0.029 C 
HETATM    2  C2  UNL     1      26.204  20.788  82.267  1.00  0.00     0.082 C 
HETATM    3  C3  UNL     1      27.084  20.013  81.353  1.00  0.00     0.022 C 
HETATM    4  C4  UNL     1      26.796  20.185  79.900  1.00  0.00     0.003 C 
HETATM    5  C5  UNL     1      25.358  20.331  79.554  1.00  0.00     0.022 C 
HETATM    6  C6  UNL     1      24.424  20.228  80.733  1.00  0.00     0.082 C 
HETATM    7  C7  UNL     1      24.142  18.795  81.028  1.00  0.00     0.029 C 
HETATM    8  N1  UNL     1      24.878  21.009  81.825  1.00  0.00    -0.191 NA
ENDROOT
BRANCH   8   9
HETATM    9  O1  UNL     1      24.651  22.316  81.507  1.00  0.00    -0.312 OA
ATOM     10  H1  UNL     1      24.732  22.888  82.261  1.00  0.00     0.237 HD
ENDBRANCH   8   9
TORSDOF 1
ENDMDL
MODEL 3
REMARK VINA RESULT: -3.406123686      1.550      3.025
REMARK  1 active torsions:
REMARK  status: ('A' for Active; 'I' for Inactive)
REMARK    1  A    between atoms: N1_8  and  O1_9 
ROOT
HETATM    1  C1  UNL     1      27.297  20.089  79.937  1.00  0.00     0.029 C 
HETATM    2  C2  UNL     1      26.111  19.951  80.901  1.00  0.00     0.082 C 
HETATM    3  C3  UNL     1      26.133  18.589  81.495  1.00  0.00     0.022 C 
HETATM    4  C4  UNL     1      25.387  18.445  82.777  1.00  0.00     0.003 C 
HETATM    5  C5  UNL     1      25.456  19.621  83.684  1.00  0.00     0.022 C 
HETATM    6  C6  UNL     1      26.318  20.746  83.172  1.00  0.00     0.082 C 
HETATM    7  C7  UNL     1      27.745  20.482  83.510  1.00  0.00     0.029 C 
HETATM    8  N1  UNL     1      26.045  21.032  81.810  1.00  0.00    -0.191 NA
ENDROOT
BRANCH   8   9
HETATM    9  O1  UNL     1      24.839  21.670  81.767  1.00  0.00    -0.312 OA
ATOM     10  H1  UNL     1      24.438  21.622  80.908  1.00  0.00     0.237 HD
ENDBRANCH   8   9
TORSDOF 1
ENDMDL
MODEL 4
REMARK VINA RESULT: -3.381085661      1.826      2.332
REMARK  1 active torsions:
REMARK  status: ('A' for Active; 'I' for Inactive)
REMARK    1  A    between atoms: N1_8  and  O1_9 
ROOT
HETATM    1  C1  UNL     1      27.289  20.192  84.086  1.00  0.00     0.029 C 
HETATM    2  C2  UNL     1      26.975  20.687  82.668  1.00  0.00     0.082 C 
HETATM    3  C3  UNL     1      27.959  20.093  81.726  1.00  0.00     0.022 C 
HETATM    4  C4  UNL     1      27.528  20.057  80.299  1.00  0.00     0.003 C 
HETATM    5  C5  UNL     1      26.082  19.791  80.082  1.00  0.00     0.022 C 
HETATM    6  C6  UNL     1      25.301  19.550  81.349  1.00  0.00     0.082 C 
HETATM    7  C7  UNL     1      25.436  18.124  81.760  1.00  0.00     0.029 C 
HETATM    8  N1  UNL     1      25.610  20.514  82.342  1.00  0.00    -0.191 NA
ENDROOT
BRANCH   8   9
HETATM    9  O1  UNL     1      25.017  21.683  81.964  1.00  0.00    -0.312 OA
ATOM     10  H1  UNL     1      24.325  21.944  82.560  1.00  0.00     0.237 HD
ENDBRANCH   8   9
TORSDOF 1
ENDMDL
MODEL 5
REMARK VINA RESULT: -3.338204802      2.486      3.301
REMARK  1 active torsions:
REMARK  status: ('A' for Active; 'I' for Inactive)
REMARK    1  A    between atoms: N1_8  and  O1_9 
ROOT
HETATM    1  C1  UNL     1      29.776  19.953  84.560  1.00  0.00     0.029 C 
HETATM    2  C2  UNL     1      28.811  20.804  83.724  1.00  0.00     0.082 C 
HETATM    3  C3  UNL     1      28.556  20.111  82.435  1.00  0.00     0.022 C 
HETATM    4  C4  UNL     1      27.306  20.519  81.733  1.00  0.00     0.003 C 
HETATM    5  C5  UNL     1      26.153  20.824  82.620  1.00  0.00     0.022 C 
HETATM    6  C6  UNL     1      26.431  20.617  84.087  1.00  0.00     0.082 C 
HETATM    7  C7  UNL     1      26.239  19.182  84.438  1.00  0.00     0.029 C 
HETATM    8  N1  UNL     1      27.671  21.189  84.467  1.00  0.00    -0.191 NA
ENDROOT
BRANCH   8   9
HETATM    9  O1  UNL     1      27.500  22.543  84.487  1.00  0.00    -0.312 OA
ATOM     10  H1  UNL     1      28.320  23.009  84.373  1.00  0.00     0.237 HD
ENDBRANCH   8   9
TORSDOF 1
ENDMDL
