MODEL 1
REMARK VINA RESULT: -4.865898378      0.000      0.000
REMARK  2 active torsions:
REMARK  status: ('A' for Active; 'I' for Inactive)
REMARK    1  A    between atoms: C4_4  and  O1_5 
REMARK    2  A    between atoms: C7_9  and  O2_10 
ROOT
HETATM    1  C1  UNL     1      32.747  22.350  84.377  1.00  0.00     0.012 C 
HETATM    2  C2  UNL     1      31.537  21.485  84.710  1.00  0.00     0.013 C 
HETATM    3  C3  UNL     1      31.204  20.701  83.472  1.00  0.00     0.038 C 
HETATM    4  C4  UNL     1      29.991  19.828  83.625  1.00  0.00     0.118 C 
HETATM    5  C5  UNL     1      28.860  20.504  84.328  1.00  0.00     0.034 C 
HETATM    6  C6  UNL     1      29.073  21.962  84.582  1.00  0.00     0.034 C 
HETATM    7  C7  UNL     1      30.383  22.299  85.208  1.00  0.00     0.122 C 
ENDROOT
BRANCH   4   8
HETATM    8  O1  UNL     1      29.640  19.408  82.322  1.00  0.00    -0.396 OA
ATOM      9  H1  UNL     1      29.495  20.200  81.819  1.00  0.00     0.210 HD
ENDBRANCH   4   8
BRANCH   7  10
HETATM   10  O2  UNL     1      30.607  23.677  84.984  1.00  0.00    -0.395 OA
ATOM     11  H2  UNL     1      30.343  24.189  85.740  1.00  0.00     0.210 HD
ENDBRANCH   7  10
TORSDOF 2
ENDMDL
MODEL 2
REMARK VINA RESULT: -4.734885605      0.542      3.834
REMARK  2 active torsions:
REMARK  status: ('A' for Active; 'I' for Inactive)
REMARK    1  A    between atoms: C4_4  and  O1_5 
REMARK    2  A    between atoms: C7_9  and  O2_10 
ROOT
HETATM    1  C1  UNL     1      27.653  20.200  83.684  1.00  0.00     0.012 C 
HETATM    2  C2  UNL     1      28.934  20.552  84.432  1.00  0.00     0.013 C 
HETATM    3  C3  UNL     1      28.996  22.051  84.515  1.00  0.00     0.038 C 
HETATM    4  C4  UNL     1      30.239  22.562  85.188  1.00  0.00     0.118 C 
HETATM    5  C5  UNL     1      31.480  21.851  84.757  1.00  0.00     0.034 C 
HETATM    6  C6  UNL     1      31.286  20.902  83.618  1.00  0.00     0.034 C 
HETATM    7  C7  UNL     1      30.145  19.957  83.783  1.00  0.00     0.122 C 
ENDROOT
BRANCH   4   8
HETATM    8  O1  UNL     1      30.292  23.947  84.919  1.00  0.00    -0.396 OA
ATOM      9  H1  UNL     1      30.964  24.303  85.488  1.00  0.00     0.210 HD
ENDBRANCH   4   8
BRANCH   7  10
HETATM   10  O2  UNL     1      29.833  19.456  82.499  1.00  0.00    -0.395 OA
ATOM     11  H2  UNL     1      29.186  20.004  82.070  1.00  0.00     0.210 HD
ENDBRANCH   7  10
TORSDOF 2
ENDMDL
MODEL 3
REMARK VINA RESULT: -4.604194413      1.885      2.754
REMARK  2 active torsions:
REMARK  status: ('A' for Active; 'I' for Inactive)
REMARK    1  A    between atoms: C4_4  and  O1_5 
REMARK    2  A    between atoms: C7_9  and  O2_10 
ROOT
HETATM    1  C1  UNL     1      31.000  19.156  82.933  1.00  0.00     0.012 C 
HETATM    2  C2  UNL     1      30.506  19.877  84.181  1.00  0.00     0.013 C 
HETATM    3  C3  UNL     1      29.150  20.438  83.855  1.00  0.00     0.038 C 
HETATM    4  C4  UNL     1      28.543  21.228  84.981  1.00  0.00     0.118 C 
HETATM    5  C5  UNL     1      29.515  22.140  85.655  1.00  0.00     0.034 C 
HETATM    6  C6  UNL     1      30.845  22.235  84.979  1.00  0.00     0.034 C 
HETATM    7  C7  UNL     1      31.470  20.924  84.646  1.00  0.00     0.122 C 
ENDROOT
BRANCH   4   8
HETATM    8  O1  UNL     1      27.447  21.925  84.427  1.00  0.00    -0.396 OA
ATOM      9  H1  UNL     1      27.271  21.519  83.586  1.00  0.00     0.210 HD
ENDBRANCH   4   8
BRANCH   7  10
HETATM   10  O2  UNL     1      32.456  21.171  83.664  1.00  0.00    -0.395 OA
ATOM     11  H2  UNL     1      32.681  22.093  83.636  1.00  0.00     0.210 HD
ENDBRANCH   7  10
TORSDOF 2
ENDMDL
MODEL 4
REMARK VINA RESULT: -4.513172651      1.528      2.893
REMARK  2 active torsions:
REMARK  status: ('A' for Active; 'I' for Inactive)
REMARK    1  A    between atoms: C4_4  and  O1_5 
REMARK    2  A    between atoms: C7_9  and  O2_10 
ROOT
HETATM    1  C1  UNL     1      32.504  21.246  84.699  1.00  0.00     0.012 C 
HETATM    2  C2  UNL     1      31.073  21.563  84.280  1.00  0.00     0.013 C 
HETATM    3  C3  UNL     1      30.262  21.675  85.540  1.00  0.00     0.038 C 
HETATM    4  C4  UNL     1      28.804  21.939  85.291  1.00  0.00     0.118 C 
HETATM    5  C5  UNL     1      28.233  21.115  84.183  1.00  0.00     0.034 C 
HETATM    6  C6  UNL     1      29.156  20.063  83.657  1.00  0.00     0.034 C 
HETATM    7  C7  UNL     1      30.527  20.546  83.327  1.00  0.00     0.122 C 
ENDROOT
BRANCH   4   8
HETATM    8  O1  UNL     1      28.147  21.715  86.521  1.00  0.00    -0.396 OA
ATOM      9  H1  UNL     1      27.497  21.041  86.356  1.00  0.00     0.210 HD
ENDBRANCH   4   8
BRANCH   7  10
HETATM   10  O2  UNL     1      31.365  19.409  83.270  1.00  0.00    -0.395 OA
ATOM     11  H2  UNL     1      31.320  18.999  82.414  1.00  0.00     0.210 HD
ENDBRANCH   7  10
TORSDOF 2
ENDMDL
MODEL 5
REMARK VINA RESULT: -4.508354677      1.466      3.261
REMARK  2 active torsions:
REMARK  status: ('A' for Active; 'I' for Inactive)
REMARK    1  A    between atoms: C4_4  and  O1_5 
REMARK    2  A    between atoms: C7_9  and  O2_10 
ROOT
HETATM    1  C1  UNL     1      30.660  19.116  82.998  1.00  0.00     0.012 C 
HETATM    2  C2  UNL     1      30.575  20.600  83.338  1.00  0.00     0.013 C 
HETATM    3  C3  UNL     1      31.896  20.987  83.943  1.00  0.00     0.038 C 
HETATM    4  C4  UNL     1      31.954  22.423  84.381  1.00  0.00     0.118 C 
HETATM    5  C5  UNL     1      30.720  22.877  85.089  1.00  0.00     0.034 C 
HETATM    6  C6  UNL     1      29.743  21.786  85.390  1.00  0.00     0.034 C 
HETATM    7  C7  UNL     1      29.415  20.907  84.232  1.00  0.00     0.122 C 
ENDROOT
BRANCH   4   8
HETATM    8  O1  UNL     1      33.110  22.544  85.184  1.00  0.00    -0.396 OA
ATOM      9  H1  UNL     1      32.841  22.328  86.069  1.00  0.00     0.210 HD
ENDBRANCH   4   8
BRANCH   7  10
HETATM   10  O2  UNL     1      28.857  19.720  84.758  1.00  0.00    -0.395 OA
ATOM     11  H2  UNL     1      29.075  19.622  85.678  1.00  0.00     0.210 HD
ENDBRANCH   7  10
TORSDOF 2
ENDMDL
