MODEL 1
REMARK VINA RESULT: -5.143845818      0.000      0.000
REMARK  6 active torsions:
REMARK  status: ('A' for Active; 'I' for Inactive)
REMARK    1  A    between atoms: C2_3  and  O1_4 
REMARK    2  A    between atoms: C4_8  and  C5_9 
REMARK    3  A    between atoms: C5_9  and  O3_10 
REMARK    4  A    between atoms: C8_14  and  N2_15 
REMARK    5  A    between atoms: C8_14  and  C9_19 
REMARK    6  A    between atoms: C9_19  and  O4_20 
ROOT
HETATM    1  N1  UNL     1      36.454  62.097   0.440  1.00  0.00    -0.191 NA
HETATM    2  C1  UNL     1      35.647  62.295   1.252  1.00  0.00     0.131 C 
HETATM    3  C2  UNL     1      34.614  62.564   2.275  1.00  0.00     0.279 C 
HETATM    4  C3  UNL     1      33.291  62.211   1.677  1.00  0.00     0.254 C 
HETATM    5  O2  UNL     1      32.742  63.146   0.860  1.00  0.00    -0.366 OA
HETATM    6  C4  UNL     1      32.874  64.460   1.279  1.00  0.00     0.132 C 
HETATM    7  C6  UNL     1      32.627  65.326   0.064  1.00  0.00     0.050 C 
HETATM    8  C7  UNL     1      32.980  66.747   0.382  1.00  0.00     0.074 C 
HETATM    9  C8  UNL     1      34.258  66.939   1.124  1.00  0.00     0.247 C 
HETATM   10  O5  UNL     1      34.443  66.034   2.143  1.00  0.00    -0.319 OA
HETATM   11  C10 UNL     1      34.295  64.721   1.720  1.00  0.00     0.304 C 
HETATM   12  O6  UNL     1      34.688  63.862   2.739  1.00  0.00    -0.308 OA
ENDROOT
BRANCH   3  13
HETATM   13  O1  UNL     1      34.857  61.722   3.374  1.00  0.00    -0.352 OA
ATOM     14  H1  UNL     1      34.038  61.301   3.611  1.00  0.00     0.214 HD
ENDBRANCH   3  13
BRANCH   6  15
HETATM   15  C5  UNL     1      31.870  64.837   2.336  1.00  0.00     0.207 C 
BRANCH  15  16
HETATM   16  O3  UNL     1      32.473  65.086   3.569  1.00  0.00    -0.398 OA
ATOM     17  H3  UNL     1      32.206  65.920   3.937  1.00  0.00     0.209 HD
ENDBRANCH  15  16
ENDBRANCH   6  15
BRANCH   9  18
HETATM   18  N2  UNL     1      34.190  68.267   1.756  1.00  0.00    -0.045 N 
ATOM     19  H23 UNL     1      33.449  68.343   2.453  1.00  0.00     0.278 HD
ATOM     20  H22 UNL     1      34.974  68.456   2.380  1.00  0.00     0.278 HD
ATOM     21  H21 UNL     1      34.103  68.949   1.001  1.00  0.00     0.278 HD
ENDBRANCH   9  18
BRANCH   9  22
HETATM   22  C9  UNL     1      35.438  67.004   0.172  1.00  0.00     0.232 C 
BRANCH  22  23
HETATM   23  O4  UNL     1      36.458  67.718   0.802  1.00  0.00    -0.396 OA
ATOM     24  H4  UNL     1      36.916  67.122   1.383  1.00  0.00     0.209 HD
ENDBRANCH  22  23
ENDBRANCH   9  22
TORSDOF 6
ENDMDL
MODEL 2
REMARK VINA RESULT: -4.939810470      1.882      4.521
REMARK  6 active torsions:
REMARK  status: ('A' for Active; 'I' for Inactive)
REMARK    1  A    between atoms: C2_3  and  O1_4 
REMARK    2  A    between atoms: C4_8  and  C5_9 
REMARK    3  A    between atoms: C5_9  and  O3_10 
REMARK    4  A    between atoms: C8_14  and  N2_15 
REMARK    5  A    between atoms: C8_14  and  C9_19 
REMARK    6  A    between atoms: C9_19  and  O4_20 
ROOT
HETATM    1  N1  UNL     1      36.446  67.588   0.278  1.00  0.00    -0.191 NA
HETATM    2  C1  UNL     1      35.420  67.500   0.817  1.00  0.00     0.131 C 
HETATM    3  C2  UNL     1      34.119  67.368   1.506  1.00  0.00     0.279 C 
HETATM    4  C3  UNL     1      34.396  67.301   2.973  1.00  0.00     0.254 C 
HETATM    5  O2  UNL     1      34.782  66.090   3.447  1.00  0.00    -0.366 OA
HETATM    6  C4  UNL     1      34.116  64.997   2.917  1.00  0.00     0.132 C 
HETATM    7  C6  UNL     1      34.975  63.786   3.210  1.00  0.00     0.050 C 
HETATM    8  C7  UNL     1      34.437  62.601   2.466  1.00  0.00     0.074 C 
HETATM    9  C8  UNL     1      34.053  62.854   1.049  1.00  0.00     0.247 C 
HETATM   10  O5  UNL     1      33.370  64.034   0.868  1.00  0.00    -0.319 OA
HETATM   11  C10 UNL     1      34.035  65.122   1.413  1.00  0.00     0.304 C 
HETATM   12  O6  UNL     1      33.398  66.294   1.025  1.00  0.00    -0.308 OA
ENDROOT
BRANCH   3  13
HETATM   13  O1  UNL     1      33.362  68.522   1.237  1.00  0.00    -0.352 OA
ATOM     14  H1  UNL     1      32.752  68.650   1.954  1.00  0.00     0.214 HD
ENDBRANCH   3  13
BRANCH   6  15
HETATM   15  C5  UNL     1      32.766  64.778   3.545  1.00  0.00     0.207 C 
BRANCH  15  16
HETATM   16  O3  UNL     1      31.724  65.151   2.696  1.00  0.00    -0.398 OA
ATOM     17  H3  UNL     1      31.319  64.402   2.275  1.00  0.00     0.209 HD
ENDBRANCH  15  16
ENDBRANCH   6  15
BRANCH   9  18
HETATM   18  N2  UNL     1      33.129  61.775   0.659  1.00  0.00    -0.045 N 
ATOM     19  H23 UNL     1      32.192  61.889   1.046  1.00  0.00     0.278 HD
ATOM     20  H22 UNL     1      32.866  61.809  -0.327  1.00  0.00     0.278 HD
ATOM     21  H21 UNL     1      33.572  60.896   0.927  1.00  0.00     0.278 HD
ENDBRANCH   9  18
BRANCH   9  22
HETATM   22  C9  UNL     1      35.249  62.717   0.126  1.00  0.00     0.232 C 
BRANCH  22  23
HETATM   23  O4  UNL     1      35.937  61.558   0.486  1.00  0.00    -0.396 OA
ATOM     24  H4  UNL     1      36.862  61.708   0.329  1.00  0.00     0.209 HD
ENDBRANCH  22  23
ENDBRANCH   9  22
TORSDOF 6
ENDMDL
MODEL 3
REMARK VINA RESULT: -4.912165376      2.488      4.456
REMARK  6 active torsions:
REMARK  status: ('A' for Active; 'I' for Inactive)
REMARK    1  A    between atoms: C2_3  and  O1_4 
REMARK    2  A    between atoms: C4_8  and  C5_9 
REMARK    3  A    between atoms: C5_9  and  O3_10 
REMARK    4  A    between atoms: C8_14  and  N2_15 
REMARK    5  A    between atoms: C8_14  and  C9_19 
REMARK    6  A    between atoms: C9_19  and  O4_20 
ROOT
HETATM    1  N1  UNL     1      34.434  67.575   2.456  1.00  0.00    -0.191 NA
HETATM    2  C1  UNL     1      34.209  66.742   3.233  1.00  0.00     0.131 C 
HETATM    3  C2  UNL     1      33.917  65.668   4.207  1.00  0.00     0.279 C 
HETATM    4  C3  UNL     1      35.082  64.733   4.202  1.00  0.00     0.254 C 
HETATM    5  O2  UNL     1      35.108  63.826   3.192  1.00  0.00    -0.366 OA
HETATM    6  C4  UNL     1      33.889  63.258   2.864  1.00  0.00     0.132 C 
HETATM    7  C6  UNL     1      34.048  62.665   1.481  1.00  0.00     0.050 C 
HETATM    8  C7  UNL     1      32.708  62.239   0.962  1.00  0.00     0.074 C 
HETATM    9  C8  UNL     1      31.599  63.210   1.178  1.00  0.00     0.247 C 
HETATM   10  O5  UNL     1      31.603  63.778   2.431  1.00  0.00    -0.319 OA
HETATM   11  C10 UNL     1      32.830  64.332   2.759  1.00  0.00     0.304 C 
HETATM   12  O6  UNL     1      32.709  65.056   3.939  1.00  0.00    -0.308 OA
ENDROOT
BRANCH   3  13
HETATM   13  O1  UNL     1      33.806  66.251   5.482  1.00  0.00    -0.352 OA
ATOM     14  H1  UNL     1      34.587  66.031   5.976  1.00  0.00     0.214 HD
ENDBRANCH   3  13
BRANCH   6  15
HETATM   15  C5  UNL     1      33.489  62.153   3.805  1.00  0.00     0.207 C 
BRANCH  15  16
HETATM   16  O3  UNL     1      34.586  61.411   4.242  1.00  0.00    -0.398 OA
ATOM     17  H3  UNL     1      35.329  61.490   3.655  1.00  0.00     0.209 HD
ENDBRANCH  15  16
ENDBRANCH   6  15
BRANCH   9  18
HETATM   18  N2  UNL     1      30.341  62.452   1.069  1.00  0.00    -0.045 N 
ATOM     19  H23 UNL     1      30.440  61.582   0.545  1.00  0.00     0.278 HD
ATOM     20  H22 UNL     1      30.045  62.036   1.953  1.00  0.00     0.278 HD
ATOM     21  H21 UNL     1      29.648  63.086   0.671  1.00  0.00     0.278 HD
ENDBRANCH   9  18
BRANCH   9  22
HETATM   22  C9  UNL     1      31.549  64.239   0.064  1.00  0.00     0.232 C 
BRANCH  22  23
HETATM   23  O4  UNL     1      30.490  65.108   0.331  1.00  0.00    -0.396 OA
ATOM     24  H4  UNL     1      30.252  65.535  -0.484  1.00  0.00     0.209 HD
ENDBRANCH  22  23
ENDBRANCH   9  22
TORSDOF 6
ENDMDL
MODEL 4
REMARK VINA RESULT: -4.744955010      1.812      4.697
REMARK  6 active torsions:
REMARK  status: ('A' for Active; 'I' for Inactive)
REMARK    1  A    between atoms: C2_3  and  O1_4 
REMARK    2  A    between atoms: C4_8  and  C5_9 
REMARK    3  A    between atoms: C5_9  and  O3_10 
REMARK    4  A    between atoms: C8_14  and  N2_15 
REMARK    5  A    between atoms: C8_14  and  C9_19 
REMARK    6  A    between atoms: C9_19  and  O4_20 
ROOT
HETATM    1  N1  UNL     1      34.551  68.789   3.033  1.00  0.00    -0.191 NA
HETATM    2  C1  UNL     1      34.668  68.065   2.131  1.00  0.00     0.131 C 
HETATM    3  C2  UNL     1      34.808  67.130   0.995  1.00  0.00     0.279 C 
HETATM    4  C3  UNL     1      33.464  67.001   0.355  1.00  0.00     0.254 C 
HETATM    5  O2  UNL     1      32.598  66.150   0.964  1.00  0.00    -0.366 OA
HETATM    6  C4  UNL     1      33.148  64.970   1.436  1.00  0.00     0.132 C 
HETATM    7  C6  UNL     1      32.168  64.409   2.442  1.00  0.00     0.050 C 
HETATM    8  C7  UNL     1      32.797  63.257   3.165  1.00  0.00     0.074 C 
HETATM    9  C8  UNL     1      34.203  63.471   3.610  1.00  0.00     0.247 C 
HETATM   10  O5  UNL     1      34.990  64.086   2.665  1.00  0.00    -0.319 OA
HETATM   11  C10 UNL     1      34.427  65.260   2.187  1.00  0.00     0.304 C 
HETATM   12  O6  UNL     1      35.354  65.926   1.395  1.00  0.00    -0.308 OA
ENDROOT
BRANCH   3  13
HETATM   13  O1  UNL     1      35.701  67.696   0.069  1.00  0.00    -0.352 OA
ATOM     14  H1  UNL     1      35.360  67.542  -0.804  1.00  0.00     0.214 HD
ENDBRANCH   3  13
BRANCH   6  15
HETATM   15  C5  UNL     1      33.345  63.945   0.350  1.00  0.00     0.207 C 
BRANCH  15  16
HETATM   16  O3  UNL     1      34.695  63.704   0.092  1.00  0.00    -0.398 OA
ATOM     17  H3  UNL     1      35.131  64.465  -0.273  1.00  0.00     0.209 HD
ENDBRANCH  15  16
ENDBRANCH   6  15
BRANCH   9  18
HETATM   18  N2  UNL     1      34.787  62.138   3.834  1.00  0.00    -0.045 N 
ATOM     19  H23 UNL     1      34.966  61.627   2.969  1.00  0.00     0.278 HD
ATOM     20  H22 UNL     1      35.751  62.172   4.165  1.00  0.00     0.278 HD
ATOM     21  H21 UNL     1      34.160  61.644   4.470  1.00  0.00     0.278 HD
ENDBRANCH   9  18
BRANCH   9  22
HETATM   22  C9  UNL     1      34.249  64.165   4.959  1.00  0.00     0.232 C 
BRANCH  22  23
HETATM   23  O4  UNL     1      35.007  63.372   5.822  1.00  0.00    -0.396 OA
ATOM     24  H4  UNL     1      34.418  62.764   6.252  1.00  0.00     0.209 HD
ENDBRANCH  22  23
ENDBRANCH   9  22
TORSDOF 6
ENDMDL
MODEL 5
REMARK VINA RESULT: -4.602163859      2.157      3.169
REMARK  6 active torsions:
REMARK  status: ('A' for Active; 'I' for Inactive)
REMARK    1  A    between atoms: C2_3  and  O1_4 
REMARK    2  A    between atoms: C4_8  and  C5_9 
REMARK    3  A    between atoms: C5_9  and  O3_10 
REMARK    4  A    between atoms: C8_14  and  N2_15 
REMARK    5  A    between atoms: C8_14  and  C9_19 
REMARK    6  A    between atoms: C9_19  and  O4_20 
ROOT
HETATM    1  N1  UNL     1      29.995  64.156   0.069  1.00  0.00    -0.191 NA
HETATM    2  C1  UNL     1      30.953  63.575   0.380  1.00  0.00     0.131 C 
HETATM    3  C2  UNL     1      32.179  62.855   0.783  1.00  0.00     0.279 C 
HETATM    4  C3  UNL     1      32.123  62.674   2.265  1.00  0.00     0.254 C 
HETATM    5  O2  UNL     1      32.497  63.748   3.006  1.00  0.00    -0.366 OA
HETATM    6  C4  UNL     1      33.593  64.452   2.533  1.00  0.00     0.132 C 
HETATM    7  C6  UNL     1      33.555  65.809   3.201  1.00  0.00     0.050 C 
HETATM    8  C7  UNL     1      34.572  66.708   2.566  1.00  0.00     0.074 C 
HETATM    9  C8  UNL     1      34.622  66.667   1.077  1.00  0.00     0.247 C 
HETATM   10  O5  UNL     1      34.541  65.395   0.560  1.00  0.00    -0.319 OA
HETATM   11  C10 UNL     1      33.450  64.692   1.048  1.00  0.00     0.304 C 
HETATM   12  O6  UNL     1      33.315  63.503   0.342  1.00  0.00    -0.308 OA
ENDROOT
BRANCH   3  13
HETATM   13  O1  UNL     1      32.165  61.590   0.169  1.00  0.00    -0.352 OA
ATOM     14  H1  UNL     1      32.768  61.026   0.639  1.00  0.00     0.214 HD
ENDBRANCH   3  13
BRANCH   6  15
HETATM   15  C5  UNL     1      34.902  63.793   2.882  1.00  0.00     0.207 C 
BRANCH  15  16
HETATM   16  O3  UNL     1      35.544  63.272   1.758  1.00  0.00    -0.398 OA
ATOM     17  H3  UNL     1      35.140  62.467   1.456  1.00  0.00     0.209 HD
ENDBRANCH  15  16
ENDBRANCH   6  15
BRANCH   9  18
HETATM   18  N2  UNL     1      35.939  67.194   0.681  1.00  0.00    -0.045 N 
ATOM     19  H23 UNL     1      35.925  67.675  -0.219  1.00  0.00     0.278 HD
ATOM     20  H22 UNL     1      36.241  67.987   1.246  1.00  0.00     0.278 HD
ATOM     21  H21 UNL     1      36.591  66.410   0.707  1.00  0.00     0.278 HD
ENDBRANCH   9  18
BRANCH   9  22
HETATM   22  C9  UNL     1      33.607  67.617   0.470  1.00  0.00     0.232 C 
BRANCH  22  23
HETATM   23  O4  UNL     1      33.631  68.800   1.211  1.00  0.00    -0.396 OA
ATOM     24  H4  UNL     1      32.734  69.022   1.432  1.00  0.00     0.209 HD
ENDBRANCH  22  23
ENDBRANCH   9  22
TORSDOF 6
ENDMDL
