MODEL 1
REMARK VINA RESULT: -5.873602272      0.000      0.000
REMARK  4 active torsions:
REMARK  status: ('A' for Active; 'I' for Inactive)
REMARK    1  A    between atoms: O1_2  and  C2_3 
REMARK    2  A    between atoms: C3_4  and  N1_5 
REMARK    3  A    between atoms: N1_5  and  O2_6 
REMARK       I    between atoms: N1_5  and  C4_8 
REMARK    4  A    between atoms: C9_18  and  N4_19 
ROOT
HETATM    1  C2  UNL     1      35.121  60.108   9.568  1.00  0.00     0.230 C 
HETATM    2  C3  UNL     1      35.370  61.192   8.570  1.00  0.00     0.273 C 
HETATM    3  N3  UNL     1      34.863  62.386   9.215  1.00  0.00    -0.066 NA
HETATM    4  O4  UNL     1      33.842  62.003   9.999  1.00  0.00    -0.239 OA
HETATM    5  C5  UNL     1      34.121  60.764  10.503  1.00  0.00     0.247 C 
HETATM    6  O5  UNL     1      33.023  59.969  10.826  1.00  0.00    -0.337 OA
HETATM    7  C6  UNL     1      33.008  60.563  12.099  1.00  0.00     0.091 C 
HETATM    8  C7  UNL     1      32.179  61.830  12.065  1.00  0.00     0.048 C 
HETATM    9  C8  UNL     1      32.654  59.641  13.226  1.00  0.00     0.048 C 
HETATM   10  C9  UNL     1      34.491  60.777  11.951  1.00  0.00     0.283 C 
ENDROOT
BRANCH   1  11
HETATM   11  O1  UNL     1      34.455  59.038   8.975  1.00  0.00    -0.381 OA
HETATM   12  C1  UNL     1      35.309  58.009   8.611  1.00  0.00     0.202 C 
ENDBRANCH   1  11
BRANCH  10  13
HETATM   13  N4  UNL     1      35.299  59.708  12.440  1.00  0.00    -0.067 N 
ATOM     14  H43 UNL     1      35.441  59.027  11.695  1.00  0.00     0.275 HD
ATOM     15  H42 UNL     1      36.252  60.044  12.577  1.00  0.00     0.275 HD
ATOM     16  H41 UNL     1      34.989  59.224  13.283  1.00  0.00     0.275 HD
ENDBRANCH  10  13
BRANCH   2  17
HETATM   17  N1  UNL     1      36.727  61.409   8.220  1.00  0.00    -0.187 N 
HETATM   18  C4  UNL     1      37.307  62.673   7.924  1.00  0.00     0.356 C 
HETATM   19  N2  UNL     1      38.674  62.764   7.587  1.00  0.00    -0.038 NA
HETATM   20  O3  UNL     1      36.678  63.761   7.937  1.00  0.00    -0.248 OA
BRANCH  17  21
HETATM   21  O2  UNL     1      37.524  60.314   8.167  1.00  0.00    -0.282 OA
ATOM     22  H2  UNL     1      37.184  59.562   7.698  1.00  0.00     0.245 HD
ENDBRANCH  17  21
ENDBRANCH   2  17
TORSDOF 4
ENDMDL
MODEL 2
REMARK VINA RESULT: -5.520105717      6.484      8.806
REMARK  4 active torsions:
REMARK  status: ('A' for Active; 'I' for Inactive)
REMARK    1  A    between atoms: O1_2  and  C2_3 
REMARK    2  A    between atoms: C3_4  and  N1_5 
REMARK    3  A    between atoms: N1_5  and  O2_6 
REMARK       I    between atoms: N1_5  and  C4_8 
REMARK    4  A    between atoms: C9_18  and  N4_19 
ROOT
HETATM    1  C2  UNL     1      34.464  64.754   2.888  1.00  0.00     0.230 C 
HETATM    2  C3  UNL     1      33.584  65.579   3.770  1.00  0.00     0.273 C 
HETATM    3  N3  UNL     1      32.353  64.820   3.845  1.00  0.00    -0.066 NA
HETATM    4  O4  UNL     1      32.223  64.169   2.677  1.00  0.00    -0.239 OA
HETATM    5  C5  UNL     1      33.466  63.816   2.235  1.00  0.00     0.247 C 
HETATM    6  O5  UNL     1      33.614  63.681   0.856  1.00  0.00    -0.337 OA
HETATM    7  C6  UNL     1      33.197  62.345   0.974  1.00  0.00     0.091 C 
HETATM    8  C7  UNL     1      31.686  62.271   0.897  1.00  0.00     0.048 C 
HETATM    9  C8  UNL     1      33.894  61.378   0.065  1.00  0.00     0.048 C 
HETATM   10  C9  UNL     1      33.756  62.356   2.371  1.00  0.00     0.283 C 
ENDROOT
BRANCH   1  11
HETATM   11  O1  UNL     1      34.997  65.531   1.861  1.00  0.00    -0.381 OA
HETATM   12  C1  UNL     1      34.658  66.869   1.969  1.00  0.00     0.202 C 
ENDBRANCH   1  11
BRANCH  10  13
HETATM   13  N4  UNL     1      35.121  61.955   2.470  1.00  0.00    -0.067 N 
ATOM     14  H43 UNL     1      35.187  61.135   3.072  1.00  0.00     0.275 HD
ATOM     15  H42 UNL     1      35.422  61.565   1.577  1.00  0.00     0.275 HD
ATOM     16  H41 UNL     1      35.800  62.652   2.777  1.00  0.00     0.275 HD
ENDBRANCH  10  13
BRANCH   2  17
HETATM   17  N1  UNL     1      34.061  65.798   5.087  1.00  0.00    -0.187 N 
HETATM   18  C4  UNL     1      34.631  64.805   5.930  1.00  0.00     0.356 C 
HETATM   19  N2  UNL     1      35.071  65.143   7.227  1.00  0.00    -0.038 NA
HETATM   20  O3  UNL     1      34.782  63.601   5.603  1.00  0.00    -0.248 OA
BRANCH  17  21
HETATM   21  O2  UNL     1      33.958  67.061   5.569  1.00  0.00    -0.282 OA
ATOM     22  H2  UNL     1      33.080  67.405   5.677  1.00  0.00     0.245 HD
ENDBRANCH  17  21
ENDBRANCH   2  17
TORSDOF 4
ENDMDL
MODEL 3
REMARK VINA RESULT: -5.355584934      8.019     10.172
REMARK  4 active torsions:
REMARK  status: ('A' for Active; 'I' for Inactive)
REMARK    1  A    between atoms: O1_2  and  C2_3 
REMARK    2  A    between atoms: C3_4  and  N1_5 
REMARK    3  A    between atoms: N1_5  and  O2_6 
REMARK       I    between atoms: N1_5  and  C4_8 
REMARK    4  A    between atoms: C9_18  and  N4_19 
ROOT
HETATM    1  C2  UNL     1      34.026  65.973   2.262  1.00  0.00     0.230 C 
HETATM    2  C3  UNL     1      34.572  66.830   1.167  1.00  0.00     0.273 C 
HETATM    3  N3  UNL     1      34.762  65.911   0.064  1.00  0.00    -0.066 NA
HETATM    4  O4  UNL     1      35.055  64.714   0.598  1.00  0.00    -0.239 OA
HETATM    5  C5  UNL     1      34.361  64.577   1.767  1.00  0.00     0.247 C 
HETATM    6  O5  UNL     1      34.930  63.743   2.727  1.00  0.00    -0.337 OA
HETATM    7  C6  UNL     1      34.273  62.657   2.126  1.00  0.00     0.091 C 
HETATM    8  C7  UNL     1      35.131  62.090   1.014  1.00  0.00     0.048 C 
HETATM    9  C8  UNL     1      33.758  61.619   3.076  1.00  0.00     0.048 C 
HETATM   10  C9  UNL     1      33.213  63.625   1.672  1.00  0.00     0.283 C 
ENDROOT
BRANCH   1  11
HETATM   11  O1  UNL     1      34.754  66.153   3.436  1.00  0.00    -0.381 OA
HETATM   12  C1  UNL     1      33.960  66.119   4.570  1.00  0.00     0.202 C 
ENDBRANCH   1  11
BRANCH  10  13
HETATM   13  N4  UNL     1      32.131  63.795   2.585  1.00  0.00    -0.067 N 
ATOM     14  H43 UNL     1      31.253  63.599   2.105  1.00  0.00     0.275 HD
ATOM     15  H42 UNL     1      32.148  63.039   3.270  1.00  0.00     0.275 HD
ATOM     16  H41 UNL     1      32.055  64.688   3.073  1.00  0.00     0.275 HD
ENDBRANCH  10  13
BRANCH   2  17
HETATM   17  N1  UNL     1      33.731  67.887   0.734  1.00  0.00    -0.187 N 
HETATM   18  C4  UNL     1      33.977  69.271   0.945  1.00  0.00     0.356 C 
HETATM   19  N2  UNL     1      33.063  70.235   0.466  1.00  0.00    -0.038 NA
HETATM   20  O3  UNL     1      34.980  69.729   1.548  1.00  0.00    -0.248 OA
BRANCH  17  21
HETATM   21  O2  UNL     1      32.606  67.534   0.066  1.00  0.00    -0.282 OA
ATOM     22  H2  UNL     1      31.848  68.096   0.181  1.00  0.00     0.245 HD
ENDBRANCH  17  21
ENDBRANCH   2  17
TORSDOF 4
ENDMDL
MODEL 4
REMARK VINA RESULT: -5.332826096      1.946      3.108
REMARK  4 active torsions:
REMARK  status: ('A' for Active; 'I' for Inactive)
REMARK    1  A    between atoms: O1_2  and  C2_3 
REMARK    2  A    between atoms: C3_4  and  N1_5 
REMARK    3  A    between atoms: N1_5  and  O2_6 
REMARK       I    between atoms: N1_5  and  C4_8 
REMARK    4  A    between atoms: C9_18  and  N4_19 
ROOT
HETATM    1  C2  UNL     1      33.851  61.365  10.650  1.00  0.00     0.230 C 
HETATM    2  C3  UNL     1      35.138  60.696  10.290  1.00  0.00     0.273 C 
HETATM    3  N3  UNL     1      35.256  59.621  11.253  1.00  0.00    -0.066 NA
HETATM    4  O4  UNL     1      34.661  60.039  12.382  1.00  0.00    -0.239 OA
HETATM    5  C5  UNL     1      33.596  60.827  12.046  1.00  0.00     0.247 C 
HETATM    6  O5  UNL     1      33.227  61.793  12.980  1.00  0.00    -0.337 OA
HETATM    7  C6  UNL     1      32.412  60.834  13.603  1.00  0.00     0.091 C 
HETATM    8  C7  UNL     1      33.223  60.053  14.617  1.00  0.00     0.048 C 
HETATM    9  C8  UNL     1      31.114  61.354  14.143  1.00  0.00     0.048 C 
HETATM   10  C9  UNL     1      32.273  60.167  12.261  1.00  0.00     0.283 C 
ENDROOT
BRANCH   1  11
HETATM   11  O1  UNL     1      34.034  62.739  10.789  1.00  0.00    -0.381 OA
HETATM   12  C1  UNL     1      34.107  63.396   9.572  1.00  0.00     0.202 C 
ENDBRANCH   1  11
BRANCH  10  13
HETATM   13  N4  UNL     1      31.169  60.622  11.481  1.00  0.00    -0.067 N 
ATOM     14  H43 UNL     1      30.946  61.582  11.743  1.00  0.00     0.275 HD
ATOM     15  H42 UNL     1      31.470  60.750  10.516  1.00  0.00     0.275 HD
ATOM     16  H41 UNL     1      30.315  60.064  11.495  1.00  0.00     0.275 HD
ENDBRANCH  10  13
BRANCH   2  17
HETATM   17  N1  UNL     1      35.203  60.144   8.986  1.00  0.00    -0.187 N 
HETATM   18  C4  UNL     1      35.874  60.730   7.878  1.00  0.00     0.356 C 
HETATM   19  N2  UNL     1      35.869  60.084   6.623  1.00  0.00    -0.038 NA
HETATM   20  O3  UNL     1      36.497  61.821   7.923  1.00  0.00    -0.248 OA
BRANCH  17  21
HETATM   21  O2  UNL     1      34.570  58.961   8.794  1.00  0.00    -0.282 OA
ATOM     22  H2  UNL     1      33.766  58.985   8.288  1.00  0.00     0.245 HD
ENDBRANCH  17  21
ENDBRANCH   2  17
TORSDOF 4
ENDMDL
MODEL 5
REMARK VINA RESULT: -5.327046872      1.579      2.097
REMARK  4 active torsions:
REMARK  status: ('A' for Active; 'I' for Inactive)
REMARK    1  A    between atoms: O1_2  and  C2_3 
REMARK    2  A    between atoms: C3_4  and  N1_5 
REMARK    3  A    between atoms: N1_5  and  O2_6 
REMARK       I    between atoms: N1_5  and  C4_8 
REMARK    4  A    between atoms: C9_18  and  N4_19 
ROOT
HETATM    1  C2  UNL     1      34.156  61.195  10.610  1.00  0.00     0.230 C 
HETATM    2  C3  UNL     1      33.917  62.365   9.713  1.00  0.00     0.273 C 
HETATM    3  N3  UNL     1      33.122  63.268  10.520  1.00  0.00    -0.066 NA
HETATM    4  O4  UNL     1      32.382  62.508  11.343  1.00  0.00    -0.239 OA
HETATM    5  C5  UNL     1      33.110  61.405  11.690  1.00  0.00     0.247 C 
HETATM    6  O5  UNL     1      32.381  60.265  12.020  1.00  0.00    -0.337 OA
HETATM    7  C6  UNL     1      32.317  60.728  13.344  1.00  0.00     0.091 C 
HETATM    8  C7  UNL     1      31.117  61.637  13.513  1.00  0.00     0.048 C 
HETATM    9  C8  UNL     1      32.418  59.665  14.396  1.00  0.00     0.048 C 
HETATM   10  C9  UNL     1      33.618  61.442  13.095  1.00  0.00     0.283 C 
ENDROOT
BRANCH   1  11
HETATM   11  O1  UNL     1      33.818  60.006   9.968  1.00  0.00    -0.381 OA
HETATM   12  C1  UNL     1      34.917  59.202   9.713  1.00  0.00     0.202 C 
ENDBRANCH   1  11
BRANCH  10  13
HETATM   13  N4  UNL     1      34.785  60.680  13.400  1.00  0.00    -0.067 N 
ATOM     14  H43 UNL     1      34.557  59.990  14.115  1.00  0.00     0.275 HD
ATOM     15  H42 UNL     1      35.005  60.074  12.610  1.00  0.00     0.275 HD
ATOM     16  H41 UNL     1      35.625  61.187  13.678  1.00  0.00     0.275 HD
ENDBRANCH  10  13
BRANCH   2  17
HETATM   17  N1  UNL     1      35.077  63.054   9.274  1.00  0.00    -0.187 N 
HETATM   18  C4  UNL     1      35.938  62.628   8.227  1.00  0.00     0.356 C 
HETATM   19  N2  UNL     1      37.067  63.400   7.880  1.00  0.00    -0.038 NA
HETATM   20  O3  UNL     1      35.773  61.577   7.557  1.00  0.00    -0.248 OA
BRANCH  17  21
HETATM   21  O2  UNL     1      35.376  64.210   9.915  1.00  0.00    -0.282 OA
ATOM     22  H2  UNL     1      36.215  64.605   9.712  1.00  0.00     0.245 HD
ENDBRANCH  17  21
ENDBRANCH   2  17
TORSDOF 4
ENDMDL
