MODEL 1
REMARK VINA RESULT: -7.690161617      0.000      0.000
REMARK  3 active torsions:
REMARK  status: ('A' for Active; 'I' for Inactive)
REMARK    1  A    between atoms: N1_1  and  C1_4 
REMARK    2  A    between atoms: C2_7  and  N3_8 
REMARK    3  A    between atoms: C7_18  and  N6_19 
ROOT
HETATM    1  C1  UNL     1      34.527  62.901   9.420  1.00  0.00     0.705 A 
HETATM    2  N2  UNL     1      33.807  62.554  10.472  1.00  0.00    -0.022 N 
ATOM      3  H2  UNL     1      33.334  63.273  11.019  1.00  0.00     0.203 HD
HETATM    4  C2  UNL     1      33.689  61.225  10.842  1.00  0.00     0.709 A 
HETATM    5  N5  UNL     1      34.307  60.304  10.127  1.00  0.00    -0.021 N 
ATOM      6  H5  UNL     1      34.211  59.328  10.406  1.00  0.00     0.203 HD
HETATM    7  C7  UNL     1      35.051  60.589   9.056  1.00  0.00     0.709 A 
HETATM    8  N7  UNL     1      35.140  61.922   8.727  1.00  0.00    -0.022 N 
ATOM      9  H7  UNL     1      35.700  62.183   7.916  1.00  0.00     0.203 HD
ENDROOT
BRANCH   4  10
HETATM   10  N3  UNL     1      32.905  60.893  11.978  1.00  0.00    -0.213 N 
HETATM   11  C3  UNL     1      33.030  59.651  12.724  1.00  0.00     0.168 C 
HETATM   12  C4  UNL     1      33.328  60.092  14.163  1.00  0.00     0.252 C 
HETATM   13  N4  UNL     1      32.182  60.808  14.673  1.00  0.00    -0.072 N 
HETATM   14  C5  UNL     1      31.244  61.218  13.662  1.00  0.00     0.252 C 
ATOM     15  H42 UNL     1      31.712  60.261  15.394  1.00  0.00     0.277 HD
ATOM     16  H41 UNL     1      32.480  61.610  15.228  1.00  0.00     0.277 HD
HETATM   17  C6  UNL     1      31.921  61.862  12.472  1.00  0.00     0.168 C 
ENDBRANCH   4  10
BRANCH   1  18
HETATM   18  N1  UNL     1      34.614  64.140   8.938  1.00  0.00    -0.234 N 
ATOM     19  H12 UNL     1      34.995  64.857   9.554  1.00  0.00     0.174 HD
ATOM     20  H11 UNL     1      34.394  64.405   7.978  1.00  0.00     0.174 HD
ENDBRANCH   1  18
BRANCH   7  21
HETATM   21  N6  UNL     1      35.715  59.637   8.294  1.00  0.00    -0.213 N 
HETATM   22  C8  UNL     1      35.734  58.237   8.590  1.00  0.00     0.167 C 
HETATM   23  C9  UNL     1      35.219  57.556   7.303  1.00  0.00     0.188 C 
HETATM   24  O1  UNL     1      36.131  57.818   6.316  1.00  0.00    -0.388 OA
HETATM   25  C10 UNL     1      36.297  59.124   5.959  1.00  0.00     0.188 C 
HETATM   26  C11 UNL     1      36.452  60.067   7.122  1.00  0.00     0.167 C 
ENDBRANCH   7  21
TORSDOF 3
ENDMDL
MODEL 2
REMARK VINA RESULT: -7.403846485      2.657      5.891
REMARK  3 active torsions:
REMARK  status: ('A' for Active; 'I' for Inactive)
REMARK    1  A    between atoms: N1_1  and  C1_4 
REMARK    2  A    between atoms: C2_7  and  N3_8 
REMARK    3  A    between atoms: C7_18  and  N6_19 
ROOT
HETATM    1  C1  UNL     1      35.588  61.324   8.285  1.00  0.00     0.705 A 
HETATM    2  N2  UNL     1      35.635  60.062   7.898  1.00  0.00    -0.022 N 
ATOM      3  H2  UNL     1      36.059  59.825   7.001  1.00  0.00     0.203 HD
HETATM    4  C2  UNL     1      35.114  59.057   8.696  1.00  0.00     0.709 A 
HETATM    5  N5  UNL     1      34.568  59.378   9.853  1.00  0.00    -0.021 N 
ATOM      6  H5  UNL     1      34.190  58.630  10.434  1.00  0.00     0.203 HD
HETATM    7  C7  UNL     1      34.487  60.632  10.300  1.00  0.00     0.709 A 
HETATM    8  N7  UNL     1      35.017  61.597   9.474  1.00  0.00    -0.022 N 
ATOM      9  H7  UNL     1      34.975  62.569   9.778  1.00  0.00     0.203 HD
ENDROOT
BRANCH   4  10
HETATM   10  N3  UNL     1      35.185  57.714   8.244  1.00  0.00    -0.213 N 
HETATM   11  C3  UNL     1      36.149  56.737   8.728  1.00  0.00     0.168 C 
HETATM   12  C4  UNL     1      35.294  55.579   9.259  1.00  0.00     0.252 C 
HETATM   13  N4  UNL     1      34.576  54.991   8.152  1.00  0.00    -0.072 N 
HETATM   14  C5  UNL     1      34.559  55.799   6.962  1.00  0.00     0.252 C 
ATOM     15  H42 UNL     1      34.939  54.060   7.945  1.00  0.00     0.277 HD
ATOM     16  H41 UNL     1      33.626  54.748   8.431  1.00  0.00     0.277 HD
HETATM   17  C6  UNL     1      34.216  57.244   7.249  1.00  0.00     0.168 C 
ENDBRANCH   4  10
BRANCH   1  18
HETATM   18  N1  UNL     1      36.151  62.338   7.629  1.00  0.00    -0.234 N 
ATOM     19  H12 UNL     1      35.732  63.261   7.743  1.00  0.00     0.174 HD
ATOM     20  H11 UNL     1      37.009  62.269   7.082  1.00  0.00     0.174 HD
ENDBRANCH   1  18
BRANCH   7  21
HETATM   21  N6  UNL     1      33.911  60.992  11.511  1.00  0.00    -0.213 N 
HETATM   22  C8  UNL     1      32.932  62.025  11.663  1.00  0.00     0.167 C 
HETATM   23  C9  UNL     1      31.741  61.336  12.364  1.00  0.00     0.188 C 
HETATM   24  O1  UNL     1      32.173  60.943  13.603  1.00  0.00    -0.388 OA
HETATM   25  C10 UNL     1      33.168  60.010  13.641  1.00  0.00     0.188 C 
HETATM   26  C11 UNL     1      34.320  60.297  12.716  1.00  0.00     0.167 C 
ENDBRANCH   7  21
TORSDOF 3
ENDMDL
MODEL 3
REMARK VINA RESULT: -7.362194868      1.557      2.248
REMARK  3 active torsions:
REMARK  status: ('A' for Active; 'I' for Inactive)
REMARK    1  A    between atoms: N1_1  and  C1_4 
REMARK    2  A    between atoms: C2_7  and  N3_8 
REMARK    3  A    between atoms: C7_18  and  N6_19 
ROOT
HETATM    1  C1  UNL     1      35.521  61.478   8.370  1.00  0.00     0.705 A 
HETATM    2  N2  UNL     1      34.945  61.649   9.547  1.00  0.00    -0.022 N 
ATOM      3  H2  UNL     1      34.849  62.590   9.929  1.00  0.00     0.203 HD
HETATM    4  C2  UNL     1      34.469  60.566  10.267  1.00  0.00     0.709 A 
HETATM    5  N5  UNL     1      34.600  59.355   9.760  1.00  0.00    -0.021 N 
ATOM      6  H5  UNL     1      34.245  58.564  10.297  1.00  0.00     0.203 HD
HETATM    7  C7  UNL     1      35.175  59.114   8.580  1.00  0.00     0.709 A 
HETATM    8  N7  UNL     1      35.632  60.221   7.901  1.00  0.00    -0.022 N 
ATOM      9  H7  UNL     1      36.079  60.081   6.996  1.00  0.00     0.203 HD
ENDROOT
BRANCH   4  10
HETATM   10  N3  UNL     1      33.855  60.793  11.526  1.00  0.00    -0.213 N 
HETATM   11  C3  UNL     1      32.984  61.920  11.820  1.00  0.00     0.168 C 
HETATM   12  C4  UNL     1      31.671  61.281  12.292  1.00  0.00     0.252 C 
HETATM   13  N4  UNL     1      31.920  60.572  13.525  1.00  0.00    -0.072 N 
HETATM   14  C5  UNL     1      33.312  60.350  13.808  1.00  0.00     0.252 C 
ATOM     15  H42 UNL     1      31.468  61.048  14.307  1.00  0.00     0.277 HD
ATOM     16  H41 UNL     1      31.408  59.690  13.539  1.00  0.00     0.277 HD
HETATM   17  C6  UNL     1      34.070  59.827  12.608  1.00  0.00     0.168 C 
ENDBRANCH   4  10
BRANCH   1  18
HETATM   18  N1  UNL     1      35.916  62.468   7.570  1.00  0.00    -0.234 N 
ATOM     19  H12 UNL     1      35.327  63.299   7.527  1.00  0.00     0.174 HD
ATOM     20  H11 UNL     1      36.798  62.482   7.058  1.00  0.00     0.174 HD
ENDBRANCH   1  18
BRANCH   7  21
HETATM   21  N6  UNL     1      35.329  57.848   8.032  1.00  0.00    -0.213 N 
HETATM   22  C8  UNL     1      36.019  56.771   8.674  1.00  0.00     0.167 C 
HETATM   23  C9  UNL     1      34.996  55.615   8.710  1.00  0.00     0.188 C 
HETATM   24  O1  UNL     1      34.732  55.268   7.411  1.00  0.00    -0.388 OA
HETATM   25  C10 UNL     1      34.139  56.215   6.628  1.00  0.00     0.188 C 
HETATM   26  C11 UNL     1      34.771  57.579   6.722  1.00  0.00     0.167 C 
ENDBRANCH   7  21
TORSDOF 3
ENDMDL
MODEL 4
REMARK VINA RESULT: -7.150427388      0.593      1.255
REMARK  3 active torsions:
REMARK  status: ('A' for Active; 'I' for Inactive)
REMARK    1  A    between atoms: N1_1  and  C1_4 
REMARK    2  A    between atoms: C2_7  and  N3_8 
REMARK    3  A    between atoms: C7_18  and  N6_19 
ROOT
HETATM    1  C1  UNL     1      34.816  62.898   8.948  1.00  0.00     0.705 A 
HETATM    2  N2  UNL     1      34.241  62.720  10.125  1.00  0.00    -0.022 N 
ATOM      3  H2  UNL     1      33.869  63.524  10.631  1.00  0.00     0.203 HD
HETATM    4  C2  UNL     1      34.137  61.455  10.679  1.00  0.00     0.709 A 
HETATM    5  N5  UNL     1      34.623  60.425  10.014  1.00  0.00    -0.021 N 
ATOM      6  H5  UNL     1      34.539  59.497  10.429  1.00  0.00     0.203 HD
HETATM    7  C7  UNL     1      35.218  60.537   8.825  1.00  0.00     0.709 A 
HETATM    8  N7  UNL     1      35.298  61.812   8.314  1.00  0.00    -0.022 N 
ATOM      9  H7  UNL     1      35.745  61.942   7.407  1.00  0.00     0.203 HD
ENDROOT
BRANCH   4  10
HETATM   10  N3  UNL     1      33.511  61.307  11.944  1.00  0.00    -0.213 N 
HETATM   11  C3  UNL     1      32.507  62.218  12.471  1.00  0.00     0.168 C 
HETATM   12  C4  UNL     1      31.290  61.328  12.757  1.00  0.00     0.252 C 
HETATM   13  N4  UNL     1      31.638  60.392  13.800  1.00  0.00    -0.072 N 
HETATM   14  C5  UNL     1      33.051  60.287  14.052  1.00  0.00     0.252 C 
ATOM     15  H42 UNL     1      31.138  60.614  14.661  1.00  0.00     0.277 HD
ATOM     16  H41 UNL     1      31.243  59.473  13.601  1.00  0.00     0.277 HD
HETATM   17  C6  UNL     1      33.858  60.153  12.780  1.00  0.00     0.168 C 
ENDBRANCH   4  10
BRANCH   1  18
HETATM   18  N1  UNL     1      34.870  64.060   8.301  1.00  0.00    -0.234 N 
ATOM     19  H12 UNL     1      35.541  64.752   8.633  1.00  0.00     0.174 HD
ATOM     20  H11 UNL     1      34.341  64.278   7.456  1.00  0.00     0.174 HD
ENDBRANCH   1  18
BRANCH   7  21
HETATM   21  N6  UNL     1      35.741  59.466   8.111  1.00  0.00    -0.213 N 
HETATM   22  C8  UNL     1      35.600  58.095   8.497  1.00  0.00     0.167 C 
HETATM   23  C9  UNL     1      34.971  57.404   7.267  1.00  0.00     0.188 C 
HETATM   24  O1  UNL     1      35.879  57.492   6.246  1.00  0.00    -0.388 OA
HETATM   25  C10 UNL     1      36.191  58.744   5.803  1.00  0.00     0.188 C 
HETATM   26  C11 UNL     1      36.491  59.731   6.900  1.00  0.00     0.167 C 
ENDBRANCH   7  21
TORSDOF 3
ENDMDL
MODEL 5
REMARK VINA RESULT: -7.093088270      2.368      6.106
REMARK  3 active torsions:
REMARK  status: ('A' for Active; 'I' for Inactive)
REMARK    1  A    between atoms: N1_1  and  C1_4 
REMARK    2  A    between atoms: C2_7  and  N3_8 
REMARK    3  A    between atoms: C7_18  and  N6_19 
ROOT
HETATM    1  C1  UNL     1      34.265  63.124   9.765  1.00  0.00     0.705 A 
HETATM    2  N2  UNL     1      34.911  62.300   8.959  1.00  0.00    -0.022 N 
ATOM      3  H2  UNL     1      35.456  62.677   8.183  1.00  0.00     0.203 HD
HETATM    4  C2  UNL     1      34.859  60.930   9.156  1.00  0.00     0.709 A 
HETATM    5  N5  UNL     1      34.151  60.456  10.164  1.00  0.00    -0.021 N 
ATOM      6  H5  UNL     1      34.121  59.447  10.302  1.00  0.00     0.203 HD
HETATM    7  C7  UNL     1      33.473  61.234  11.010  1.00  0.00     0.709 A 
HETATM    8  N7  UNL     1      33.555  62.587  10.775  1.00  0.00    -0.022 N 
ATOM      9  H7  UNL     1      33.051  63.217  11.399  1.00  0.00     0.203 HD
ENDROOT
BRANCH   4  10
HETATM   10  N3  UNL     1      35.568  60.079   8.269  1.00  0.00    -0.213 N 
HETATM   11  C3  UNL     1      36.022  58.740   8.609  1.00  0.00     0.168 C 
HETATM   12  C4  UNL     1      35.381  57.833   7.550  1.00  0.00     0.252 C 
HETATM   13  N4  UNL     1      35.925  58.178   6.257  1.00  0.00    -0.072 N 
HETATM   14  C5  UNL     1      36.621  59.437   6.226  1.00  0.00     0.252 C 
ATOM     15  H42 UNL     1      36.527  57.429   5.913  1.00  0.00     0.277 HD
ATOM     16  H41 UNL     1      35.196  58.156   5.545  1.00  0.00     0.277 HD
HETATM   17  C6  UNL     1      35.847  60.543   6.907  1.00  0.00     0.168 C 
ENDBRANCH   4  10
BRANCH   1  18
HETATM   18  N1  UNL     1      34.342  64.453   9.707  1.00  0.00    -0.234 N 
ATOM     19  H12 UNL     1      35.005  64.912  10.331  1.00  0.00     0.174 HD
ATOM     20  H11 UNL     1      33.839  65.034   9.036  1.00  0.00     0.174 HD
ENDBRANCH   1  18
BRANCH   7  21
HETATM   21  N6  UNL     1      32.718  60.756  12.073  1.00  0.00    -0.213 N 
HETATM   22  C8  UNL     1      33.104  59.659  12.907  1.00  0.00     0.167 C 
HETATM   23  C9  UNL     1      33.062  60.224  14.343  1.00  0.00     0.188 C 
HETATM   24  O1  UNL     1      31.759  60.553  14.610  1.00  0.00    -0.388 OA
HETATM   25  C10 UNL     1      31.203  61.537  13.847  1.00  0.00     0.188 C 
HETATM   26  C11 UNL     1      31.446  61.386  12.369  1.00  0.00     0.167 C 
ENDBRANCH   7  21
TORSDOF 3
ENDMDL
