MODEL 1
REMARK VINA RESULT: -6.064271442      0.000      0.000
REMARK  6 active torsions:
REMARK  status: ('A' for Active; 'I' for Inactive)
REMARK    1  A    between atoms: C2_2  and  C3_3 
REMARK    2  A    between atoms: C5_7  and  O3_8 
REMARK    3  A    between atoms: C6_11  and  O5_13 
REMARK    4  A    between atoms: C8_15  and  O6_16 
REMARK    5  A    between atoms: C8_15  and  C9_18 
REMARK    6  A    between atoms: C10_20  and  O8_21 
ROOT
HETATM    1  C3  UNL     1      34.378  59.990  11.374  1.00  0.00     0.291 C 
HETATM    2  O1  UNL     1      35.529  59.450  10.753  1.00  0.00    -0.314 OA
HETATM    3  C4  UNL     1      34.872  59.645   9.543  1.00  0.00     0.262 C 
HETATM    4  O2  UNL     1      33.682  59.633  10.220  1.00  0.00    -0.314 OA
HETATM    5  C5  UNL     1      35.233  60.914   8.818  1.00  0.00     0.327 C 
HETATM    6  O4  UNL     1      35.495  60.569   7.493  1.00  0.00    -0.317 OA
HETATM    7  C6  UNL     1      36.074  59.292   7.580  1.00  0.00     0.203 C 
HETATM    8  C7  UNL     1      36.195  58.640   6.243  1.00  0.00     0.082 C 
HETATM    9  C8  UNL     1      35.086  58.595   8.498  1.00  0.00     0.225 C 
ENDROOT
BRANCH   9  10
HETATM   10  O6  UNL     1      33.960  58.290   7.772  1.00  0.00    -0.375 OA
ATOM     11  H6  UNL     1      33.847  58.821   6.993  1.00  0.00     0.211 HD
ENDBRANCH   9  10
BRANCH   9  12
HETATM   12  C9  UNL     1      35.688  57.382   9.156  1.00  0.00     0.316 C 
HETATM   13  O7  UNL     1      34.689  56.656   9.805  1.00  0.00    -0.305 OA
HETATM   14  C10 UNL     1      35.325  55.502   9.346  1.00  0.00     0.415 C 
HETATM   15  O9  UNL     1      35.853  56.278   8.315  1.00  0.00    -0.305 OA
BRANCH  14  16
HETATM   16  O8  UNL     1      34.467  54.490   8.942  1.00  0.00    -0.349 OA
ATOM     17  H8  UNL     1      34.125  53.954   9.648  1.00  0.00     0.215 HD
ENDBRANCH  14  16
ENDBRANCH   9  12
BRANCH   7  18
HETATM   18  O5  UNL     1      37.308  59.469   8.212  1.00  0.00    -0.363 OA
ATOM     19  H5  UNL     1      37.906  59.775   7.539  1.00  0.00     0.213 HD
ENDBRANCH   7  18
BRANCH   5  20
HETATM   20  O3  UNL     1      34.146  61.777   8.926  1.00  0.00    -0.366 OA
ATOM     21  H3  UNL     1      33.899  62.032   8.044  1.00  0.00     0.212 HD
ENDBRANCH   5  20
BRANCH   1  22
HETATM   22  C2  UNL     1      33.984  59.283  12.595  1.00  0.00     0.023 C 
HETATM   23  C1  UNL     1      33.330  59.933  13.540  1.00  0.00     0.012 C 
ENDBRANCH   1  22
TORSDOF 6
ENDMDL
MODEL 2
REMARK VINA RESULT: -5.298420864      1.286      4.051
REMARK  6 active torsions:
REMARK  status: ('A' for Active; 'I' for Inactive)
REMARK    1  A    between atoms: C2_2  and  C3_3 
REMARK    2  A    between atoms: C5_7  and  O3_8 
REMARK    3  A    between atoms: C6_11  and  O5_13 
REMARK    4  A    between atoms: C8_15  and  O6_16 
REMARK    5  A    between atoms: C8_15  and  C9_18 
REMARK    6  A    between atoms: C10_20  and  O8_21 
ROOT
HETATM    1  C3  UNL     1      34.029  59.410  11.167  1.00  0.00     0.291 C 
HETATM    2  O1  UNL     1      33.699  59.592   9.803  1.00  0.00    -0.314 OA
HETATM    3  C4  UNL     1      34.924  59.001   9.510  1.00  0.00     0.262 C 
HETATM    4  O2  UNL     1      35.360  59.354  10.759  1.00  0.00    -0.314 OA
HETATM    5  C5  UNL     1      34.865  57.530   9.196  1.00  0.00     0.327 C 
HETATM    6  O4  UNL     1      35.603  57.330   8.031  1.00  0.00    -0.317 OA
HETATM    7  C6  UNL     1      35.387  58.500   7.283  1.00  0.00     0.203 C 
HETATM    8  C7  UNL     1      36.299  58.588   6.106  1.00  0.00     0.082 C 
HETATM    9  C8  UNL     1      35.662  59.561   8.334  1.00  0.00     0.225 C 
ENDROOT
BRANCH   9  10
HETATM   10  O6  UNL     1      37.020  59.649   8.516  1.00  0.00    -0.375 OA
ATOM     11  H6  UNL     1      37.507  58.915   8.161  1.00  0.00     0.211 HD
ENDBRANCH   9  10
BRANCH   9  12
HETATM   12  C9  UNL     1      35.046  60.885   7.969  1.00  0.00     0.316 C 
HETATM   13  O7  UNL     1      35.563  61.885   8.793  1.00  0.00    -0.305 OA
HETATM   14  C10 UNL     1      35.590  62.706   7.665  1.00  0.00     0.415 C 
HETATM   15  O9  UNL     1      35.657  61.543   6.898  1.00  0.00    -0.305 OA
BRANCH  14  16
HETATM   16  O8  UNL     1      36.700  63.533   7.578  1.00  0.00    -0.349 OA
ATOM     17  H8  UNL     1      36.734  64.222   8.230  1.00  0.00     0.215 HD
ENDBRANCH  14  16
ENDBRANCH   9  12
BRANCH   7  18
HETATM   18  O5  UNL     1      34.036  58.486   6.924  1.00  0.00    -0.363 OA
ATOM     19  H5  UNL     1      33.934  59.158   6.260  1.00  0.00     0.213 HD
ENDBRANCH   7  18
BRANCH   5  20
HETATM   20  O3  UNL     1      35.413  56.852  10.281  1.00  0.00    -0.366 OA
ATOM     21  H3  UNL     1      35.309  55.922  10.116  1.00  0.00     0.212 HD
ENDBRANCH   5  20
BRANCH   1  22
HETATM   22  C2  UNL     1      33.674  60.552  12.013  1.00  0.00     0.023 C 
HETATM   23  C1  UNL     1      33.106  61.612  11.469  1.00  0.00     0.012 C 
ENDBRANCH   1  22
TORSDOF 6
ENDMDL
MODEL 3
REMARK VINA RESULT: -5.103501366      7.177      9.022
REMARK  6 active torsions:
REMARK  status: ('A' for Active; 'I' for Inactive)
REMARK    1  A    between atoms: C2_2  and  C3_3 
REMARK    2  A    between atoms: C5_7  and  O3_8 
REMARK    3  A    between atoms: C6_11  and  O5_13 
REMARK    4  A    between atoms: C8_15  and  O6_16 
REMARK    5  A    between atoms: C8_15  and  C9_18 
REMARK    6  A    between atoms: C10_20  and  O8_21 
ROOT
HETATM    1  C3  UNL     1      34.640  64.511   5.122  1.00  0.00     0.291 C 
HETATM    2  O1  UNL     1      34.743  64.067   3.783  1.00  0.00    -0.314 OA
HETATM    3  C4  UNL     1      33.749  64.991   3.482  1.00  0.00     0.262 C 
HETATM    4  O2  UNL     1      33.361  64.958   4.795  1.00  0.00    -0.314 OA
HETATM    5  C5  UNL     1      34.243  66.309   2.948  1.00  0.00     0.327 C 
HETATM    6  O4  UNL     1      33.486  66.601   1.814  1.00  0.00    -0.317 OA
HETATM    7  C6  UNL     1      33.232  65.345   1.239  1.00  0.00     0.203 C 
HETATM    8  C7  UNL     1      32.217  65.424   0.148  1.00  0.00     0.082 C 
HETATM    9  C8  UNL     1      32.747  64.572   2.452  1.00  0.00     0.225 C 
ENDROOT
BRANCH   9  10
HETATM   10  O6  UNL     1      31.460  64.964   2.730  1.00  0.00    -0.375 OA
ATOM     11  H6  UNL     1      31.314  65.899   2.648  1.00  0.00     0.211 HD
ENDBRANCH   9  10
BRANCH   9  12
HETATM   12  C9  UNL     1      32.861  63.084   2.252  1.00  0.00     0.316 C 
HETATM   13  O7  UNL     1      31.610  62.557   1.930  1.00  0.00    -0.305 OA
HETATM   14  C10 UNL     1      32.267  61.734   1.015  1.00  0.00     0.415 C 
HETATM   15  O9  UNL     1      33.281  62.692   0.978  1.00  0.00    -0.305 OA
BRANCH  14  16
HETATM   16  O8  UNL     1      31.592  61.545  -0.182  1.00  0.00    -0.349 OA
ATOM     17  H8  UNL     1      30.655  61.418  -0.093  1.00  0.00     0.215 HD
ENDBRANCH  14  16
ENDBRANCH   9  12
BRANCH   7  18
HETATM   18  O5  UNL     1      34.468  64.864   0.798  1.00  0.00    -0.363 OA
ATOM     19  H5  UNL     1      34.599  64.033   1.239  1.00  0.00     0.213 HD
ENDBRANCH   7  18
BRANCH   5  20
HETATM   20  O3  UNL     1      34.063  67.257   3.951  1.00  0.00    -0.366 OA
ATOM     21  H3  UNL     1      34.924  67.569   4.204  1.00  0.00     0.212 HD
ENDBRANCH   5  20
BRANCH   1  22
HETATM   22  C2  UNL     1      34.699  63.427   6.106  1.00  0.00     0.023 C 
HETATM   23  C1  UNL     1      35.026  63.701   7.355  1.00  0.00     0.012 C 
ENDBRANCH   1  22
TORSDOF 6
ENDMDL
MODEL 4
REMARK VINA RESULT: -5.072658763      8.670     10.853
REMARK  6 active torsions:
REMARK  status: ('A' for Active; 'I' for Inactive)
REMARK    1  A    between atoms: C2_2  and  C3_3 
REMARK    2  A    between atoms: C5_7  and  O3_8 
REMARK    3  A    between atoms: C6_11  and  O5_13 
REMARK    4  A    between atoms: C8_15  and  O6_16 
REMARK    5  A    between atoms: C8_15  and  C9_18 
REMARK    6  A    between atoms: C10_20  and  O8_21 
ROOT
HETATM    1  C3  UNL     1      33.808  66.827  -0.072  1.00  0.00     0.291 C 
HETATM    2  O1  UNL     1      33.704  65.422  -0.205  1.00  0.00    -0.314 OA
HETATM    3  C4  UNL     1      32.594  65.505   0.628  1.00  0.00     0.262 C 
HETATM    4  O2  UNL     1      33.077  66.693   1.107  1.00  0.00    -0.314 OA
HETATM    5  C5  UNL     1      31.265  65.541  -0.079  1.00  0.00     0.327 C 
HETATM    6  O4  UNL     1      30.440  64.611   0.549  1.00  0.00    -0.317 OA
HETATM    7  C6  UNL     1      31.315  63.582   0.936  1.00  0.00     0.203 C 
HETATM    8  C7  UNL     1      30.660  62.604   1.853  1.00  0.00     0.082 C 
HETATM    9  C8  UNL     1      32.416  64.385   1.606  1.00  0.00     0.225 C 
ENDROOT
BRANCH   9  10
HETATM   10  O6  UNL     1      31.970  64.786   2.841  1.00  0.00    -0.375 OA
ATOM     11  H6  UNL     1      31.127  65.223   2.826  1.00  0.00     0.211 HD
ENDBRANCH   9  10
BRANCH   9  12
HETATM   12  C9  UNL     1      33.705  63.612   1.686  1.00  0.00     0.316 C 
HETATM   13  O7  UNL     1      34.298  63.817   2.933  1.00  0.00    -0.305 OA
HETATM   14  C10 UNL     1      34.637  62.463   2.919  1.00  0.00     0.415 C 
HETATM   15  O9  UNL     1      33.565  62.269   2.048  1.00  0.00    -0.305 OA
BRANCH  14  16
HETATM   16  O8  UNL     1      34.522  61.825   4.145  1.00  0.00    -0.349 OA
ATOM     17  H8  UNL     1      33.689  61.957   4.584  1.00  0.00     0.215 HD
ENDBRANCH  14  16
ENDBRANCH   9  12
BRANCH   7  18
HETATM   18  O5  UNL     1      31.770  62.996  -0.248  1.00  0.00    -0.363 OA
ATOM     19  H5  UNL     1      30.996  62.677  -0.698  1.00  0.00     0.213 HD
ENDBRANCH   7  18
BRANCH   5  20
HETATM   20  O3  UNL     1      30.770  66.837   0.035  1.00  0.00    -0.366 OA
ATOM     21  H3  UNL     1      30.846  67.090   0.948  1.00  0.00     0.212 HD
ENDBRANCH   5  20
BRANCH   1  22
HETATM   22  C2  UNL     1      35.185  67.300   0.088  1.00  0.00     0.023 C 
HETATM   23  C1  UNL     1      35.432  68.325   0.882  1.00  0.00     0.012 C 
ENDBRANCH   1  22
TORSDOF 6
ENDMDL
MODEL 5
REMARK VINA RESULT: -4.879478907      7.522     10.162
REMARK  6 active torsions:
REMARK  status: ('A' for Active; 'I' for Inactive)
REMARK    1  A    between atoms: C2_2  and  C3_3 
REMARK    2  A    between atoms: C5_7  and  O3_8 
REMARK    3  A    between atoms: C6_11  and  O5_13 
REMARK    4  A    between atoms: C8_15  and  O6_16 
REMARK    5  A    between atoms: C8_15  and  C9_18 
REMARK    6  A    between atoms: C10_20  and  O8_21 
ROOT
HETATM    1  C3  UNL     1      32.891  65.441  -0.201  1.00  0.00     0.291 C 
HETATM    2  O1  UNL     1      33.944  65.153   0.699  1.00  0.00    -0.314 OA
HETATM    3  C4  UNL     1      33.162  64.097   1.153  1.00  0.00     0.262 C 
HETATM    4  O2  UNL     1      32.057  64.747   0.674  1.00  0.00    -0.314 OA
HETATM    5  C5  UNL     1      33.485  62.757   0.548  1.00  0.00     0.327 C 
HETATM    6  O4  UNL     1      33.582  61.845   1.598  1.00  0.00    -0.317 OA
HETATM    7  C6  UNL     1      34.122  62.597   2.655  1.00  0.00     0.203 C 
HETATM    8  C7  UNL     1      34.067  61.860   3.952  1.00  0.00     0.082 C 
HETATM    9  C8  UNL     1      33.219  63.818   2.623  1.00  0.00     0.225 C 
ENDROOT
BRANCH   9  10
HETATM   10  O6  UNL     1      32.008  63.476   3.175  1.00  0.00    -0.375 OA
ATOM     11  H6  UNL     1      32.060  62.784   3.823  1.00  0.00     0.211 HD
ENDBRANCH   9  10
BRANCH   9  12
HETATM   12  C9  UNL     1      33.848  65.000   3.310  1.00  0.00     0.316 C 
HETATM   13  O7  UNL     1      32.917  65.597   4.161  1.00  0.00    -0.305 OA
HETATM   14  C10 UNL     1      33.960  65.766   5.073  1.00  0.00     0.415 C 
HETATM   15  O9  UNL     1      34.593  64.690   4.451  1.00  0.00    -0.305 OA
BRANCH  14  16
HETATM   16  O8  UNL     1      33.610  65.557   6.398  1.00  0.00    -0.349 OA
ATOM     17  H8  UNL     1      32.694  65.351   6.538  1.00  0.00     0.215 HD
ENDBRANCH  14  16
ENDBRANCH   9  12
BRANCH   7  18
HETATM   18  O5  UNL     1      35.424  62.926   2.272  1.00  0.00    -0.363 OA
ATOM     19  H5  UNL     1      35.629  62.367   1.530  1.00  0.00     0.213 HD
ENDBRANCH   7  18
BRANCH   5  20
HETATM   20  O3  UNL     1      32.449  62.435  -0.325  1.00  0.00    -0.366 OA
ATOM     21  H3  UNL     1      32.844  62.127  -1.132  1.00  0.00     0.212 HD
ENDBRANCH   5  20
BRANCH   1  22
HETATM   22  C2  UNL     1      32.613  66.872  -0.339  1.00  0.00     0.023 C 
HETATM   23  C1  UNL     1      33.372  67.746   0.295  1.00  0.00     0.012 C 
ENDBRANCH   1  22
TORSDOF 6
ENDMDL
