MODEL 1
REMARK VINA RESULT: -4.804819154      0.000      0.000
REMARK  7 active torsions:
REMARK  status: ('A' for Active; 'I' for Inactive)
REMARK    1  A    between atoms: C2_2  and  C3_4 
REMARK    2  A    between atoms: C3_4  and  O2_5 
REMARK    3  A    between atoms: C4_7  and  C6_9 
REMARK    4  A    between atoms: C8_12  and  O4_14 
REMARK    5  A    between atoms: C10_16  and  O5_17 
REMARK    6  A    between atoms: C12_21  and  O6_22 
REMARK    7  A    between atoms: C12_21  and  O7_24 
ROOT
HETATM    1  C3  UNL     1      33.006  62.149   1.654  1.00  0.00     0.191 C 
HETATM    2  C4  UNL     1      34.257  62.980   1.724  1.00  0.00     0.056 C 
HETATM    3  C5  UNL     1      35.482  62.199   1.304  1.00  0.00     0.027 C 
HETATM    4  C7  UNL     1      34.166  64.217   0.865  1.00  0.00     0.062 C 
HETATM    5  C8  UNL     1      32.955  65.044   1.135  1.00  0.00     0.105 C 
HETATM    6  C9  UNL     1      32.642  65.805  -0.163  1.00  0.00     0.050 C 
HETATM    7  C10 UNL     1      31.738  64.345   1.563  1.00  0.00     0.237 C 
HETATM    8  C11 UNL     1      30.698  64.363   0.495  1.00  0.00     0.107 C 
HETATM    9  N1  UNL     1      29.866  64.395  -0.339  1.00  0.00    -0.194 NA
HETATM   10  C12 UNL     1      31.851  62.975   2.108  1.00  0.00     0.249 C 
ENDROOT
BRANCH   7  11
HETATM   11  O5  UNL     1      31.141  65.137   2.587  1.00  0.00    -0.368 OA
ATOM     12  H5  UNL     1      31.406  64.762   3.419  1.00  0.00     0.212 HD
ENDBRANCH   7  11
BRANCH   5  13
HETATM   13  O4  UNL     1      33.309  66.034   2.054  1.00  0.00    -0.386 OA
ATOM     14  H4  UNL     1      33.119  65.705   2.924  1.00  0.00     0.210 HD
ENDBRANCH   5  13
BRANCH  10  15
HETATM   15  O6  UNL     1      31.771  63.032   3.519  1.00  0.00    -0.360 OA
ATOM     16  H6  UNL     1      30.970  62.635   3.842  1.00  0.00     0.213 HD
ENDBRANCH  10  15
BRANCH  10  17
HETATM   17  O7  UNL     1      30.687  62.246   1.749  1.00  0.00    -0.360 OA
ATOM     18  H7  UNL     1      29.985  62.595   2.287  1.00  0.00     0.213 HD
ENDBRANCH  10  17
BRANCH   1  19
HETATM   19  C2  UNL     1      32.756  61.578   0.331  1.00  0.00     0.164 C 
HETATM   20  C1  UNL     1      33.808  60.727  -0.339  1.00  0.00     0.094 C 
HETATM   21  O1  UNL     1      31.744  61.715  -0.335  1.00  0.00    -0.295 OA
ENDBRANCH   1  19
BRANCH   1  22
HETATM   22  O2  UNL     1      33.165  61.098   2.565  1.00  0.00    -0.376 OA
ATOM     23  H2  UNL     1      33.707  61.404   3.284  1.00  0.00     0.211 HD
ENDBRANCH   1  22
BRANCH   2  24
HETATM   24  C6  UNL     1      34.482  63.408   3.128  1.00  0.00     0.244 C 
HETATM   25  O3  UNL     1      34.571  62.503   3.959  1.00  0.00    -0.306 OA
ENDBRANCH   2  24
TORSDOF 7
ENDMDL
MODEL 2
REMARK VINA RESULT: -4.492089622      2.090      4.299
REMARK  7 active torsions:
REMARK  status: ('A' for Active; 'I' for Inactive)
REMARK    1  A    between atoms: C2_2  and  C3_4 
REMARK    2  A    between atoms: C3_4  and  O2_5 
REMARK    3  A    between atoms: C4_7  and  C6_9 
REMARK    4  A    between atoms: C8_12  and  O4_14 
REMARK    5  A    between atoms: C10_16  and  O5_17 
REMARK    6  A    between atoms: C12_21  and  O6_22 
REMARK    7  A    between atoms: C12_21  and  O7_24 
ROOT
HETATM    1  C3  UNL     1      32.249  64.636   2.073  1.00  0.00     0.191 C 
HETATM    2  C4  UNL     1      32.880  64.907   0.735  1.00  0.00     0.056 C 
HETATM    3  C5  UNL     1      33.076  66.387   0.490  1.00  0.00     0.027 C 
HETATM    4  C7  UNL     1      34.216  64.223   0.587  1.00  0.00     0.062 C 
HETATM    5  C8  UNL     1      34.172  62.760   0.875  1.00  0.00     0.105 C 
HETATM    6  C9  UNL     1      35.579  62.360   1.345  1.00  0.00     0.050 C 
HETATM    7  C10 UNL     1      33.203  62.294   1.873  1.00  0.00     0.237 C 
HETATM    8  C11 UNL     1      33.884  61.843   3.121  1.00  0.00     0.107 C 
HETATM    9  N1  UNL     1      34.421  61.466   4.100  1.00  0.00    -0.194 NA
HETATM   10  C12 UNL     1      32.063  63.165   2.229  1.00  0.00     0.249 C 
ENDROOT
BRANCH   7  11
HETATM   11  O5  UNL     1      32.642  61.081   1.375  1.00  0.00    -0.368 OA
ATOM     12  H5  UNL     1      33.217  60.375   1.647  1.00  0.00     0.212 HD
ENDBRANCH   7  11
BRANCH   5  13
HETATM   13  O4  UNL     1      33.996  62.091  -0.339  1.00  0.00    -0.386 OA
ATOM     14  H4  UNL     1      34.051  61.158  -0.167  1.00  0.00     0.210 HD
ENDBRANCH   5  13
BRANCH  10  15
HETATM   15  O6  UNL     1      30.906  62.710   1.557  1.00  0.00    -0.360 OA
ATOM     16  H6  UNL     1      30.511  61.968   2.000  1.00  0.00     0.213 HD
ENDBRANCH  10  15
BRANCH  10  17
HETATM   17  O7  UNL     1      31.743  62.957   3.597  1.00  0.00    -0.360 OA
ATOM     18  H7  UNL     1      30.800  63.051   3.661  1.00  0.00     0.213 HD
ENDBRANCH  10  17
BRANCH   1  19
HETATM   19  C2  UNL     1      32.999  65.194   3.198  1.00  0.00     0.164 C 
HETATM   20  C1  UNL     1      34.452  65.569   3.028  1.00  0.00     0.094 C 
HETATM   21  O1  UNL     1      32.570  65.403   4.318  1.00  0.00    -0.295 OA
ENDBRANCH   1  19
BRANCH   1  22
HETATM   22  O2  UNL     1      30.981  65.228   2.051  1.00  0.00    -0.376 OA
ATOM     23  H2  UNL     1      30.333  64.545   1.918  1.00  0.00     0.211 HD
ENDBRANCH   1  22
BRANCH   2  24
HETATM   24  C6  UNL     1      31.983  64.409  -0.338  1.00  0.00     0.244 C 
HETATM   25  O3  UNL     1      30.839  64.864  -0.339  1.00  0.00    -0.306 OA
ENDBRANCH   2  24
TORSDOF 7
ENDMDL
MODEL 3
REMARK VINA RESULT: -4.442466131      1.864      3.754
REMARK  7 active torsions:
REMARK  status: ('A' for Active; 'I' for Inactive)
REMARK    1  A    between atoms: C2_2  and  C3_4 
REMARK    2  A    between atoms: C3_4  and  O2_5 
REMARK    3  A    between atoms: C4_7  and  C6_9 
REMARK    4  A    between atoms: C8_12  and  O4_14 
REMARK    5  A    between atoms: C10_16  and  O5_17 
REMARK    6  A    between atoms: C12_21  and  O6_22 
REMARK    7  A    between atoms: C12_21  and  O7_24 
ROOT
HETATM    1  C3  UNL     1      33.082  63.893   0.807  1.00  0.00     0.191 C 
HETATM    2  C4  UNL     1      33.988  62.694   0.851  1.00  0.00     0.056 C 
HETATM    3  C5  UNL     1      34.920  62.642  -0.339  1.00  0.00     0.027 C 
HETATM    4  C7  UNL     1      34.823  62.657   2.108  1.00  0.00     0.062 C 
HETATM    5  C8  UNL     1      34.021  62.772   3.360  1.00  0.00     0.105 C 
HETATM    6  C9  UNL     1      34.948  63.384   4.422  1.00  0.00     0.050 C 
HETATM    7  C10 UNL     1      32.791  63.570   3.307  1.00  0.00     0.237 C 
HETATM    8  C11 UNL     1      32.936  64.842   4.071  1.00  0.00     0.107 C 
HETATM    9  N1  UNL     1      33.040  65.837   4.692  1.00  0.00    -0.194 NA
HETATM   10  C12 UNL     1      32.178  63.859   1.992  1.00  0.00     0.249 C 
ENDROOT
BRANCH   7  11
HETATM   11  O5  UNL     1      31.806  62.868   4.063  1.00  0.00    -0.368 OA
ATOM     12  H5  UNL     1      32.216  62.073   4.385  1.00  0.00     0.212 HD
ENDBRANCH   7  11
BRANCH   5  13
HETATM   13  O4  UNL     1      33.756  61.479   3.818  1.00  0.00    -0.386 OA
ATOM     14  H4  UNL     1      33.191  61.551   4.578  1.00  0.00     0.210 HD
ENDBRANCH   5  13
BRANCH  10  15
HETATM   15  O6  UNL     1      31.084  62.988   1.791  1.00  0.00    -0.360 OA
ATOM     16  H6  UNL     1      31.206  62.160   2.241  1.00  0.00     0.213 HD
ENDBRANCH  10  15
BRANCH  10  17
HETATM   17  O7  UNL     1      31.565  65.138   2.050  1.00  0.00    -0.360 OA
ATOM     18  H7  UNL     1      31.204  65.215   2.926  1.00  0.00     0.213 HD
ENDBRANCH  10  17
BRANCH   1  19
HETATM   19  C2  UNL     1      33.800  65.166   0.730  1.00  0.00     0.164 C 
HETATM   20  C1  UNL     1      33.444  66.172  -0.338  1.00  0.00     0.094 C 
HETATM   21  O1  UNL     1      34.701  65.532   1.463  1.00  0.00    -0.295 OA
ENDBRANCH   1  19
BRANCH   1  22
HETATM   22  O2  UNL     1      32.290  63.762  -0.339  1.00  0.00    -0.376 OA
ATOM     23  H2  UNL     1      31.636  63.091  -0.177  1.00  0.00     0.211 HD
ENDBRANCH   1  22
BRANCH   2  24
HETATM   24  C6  UNL     1      33.165  61.458   0.806  1.00  0.00     0.244 C 
HETATM   25  O3  UNL     1      33.091  60.901  -0.290  1.00  0.00    -0.306 OA
ENDBRANCH   2  24
TORSDOF 7
ENDMDL
MODEL 4
REMARK VINA RESULT: -4.297133976      1.204      1.395
REMARK  7 active torsions:
REMARK  status: ('A' for Active; 'I' for Inactive)
REMARK    1  A    between atoms: C2_2  and  C3_4 
REMARK    2  A    between atoms: C3_4  and  O2_5 
REMARK    3  A    between atoms: C4_7  and  C6_9 
REMARK    4  A    between atoms: C8_12  and  O4_14 
REMARK    5  A    between atoms: C10_16  and  O5_17 
REMARK    6  A    between atoms: C12_21  and  O6_22 
REMARK    7  A    between atoms: C12_21  and  O7_24 
ROOT
HETATM    1  C3  UNL     1      32.859  62.302   1.241  1.00  0.00     0.191 C 
HETATM    2  C4  UNL     1      34.239  62.583   0.715  1.00  0.00     0.056 C 
HETATM    3  C5  UNL     1      34.740  61.476  -0.184  1.00  0.00     0.027 C 
HETATM    4  C7  UNL     1      34.302  63.881  -0.052  1.00  0.00     0.062 C 
HETATM    5  C8  UNL     1      33.767  65.048   0.705  1.00  0.00     0.105 C 
HETATM    6  C9  UNL     1      33.271  66.062  -0.338  1.00  0.00     0.050 C 
HETATM    7  C10 UNL     1      32.678  64.799   1.657  1.00  0.00     0.237 C 
HETATM    8  C11 UNL     1      31.390  65.369   1.170  1.00  0.00     0.107 C 
HETATM    9  N1  UNL     1      30.375  65.838   0.798  1.00  0.00    -0.194 NA
HETATM   10  C12 UNL     1      32.448  63.419   2.139  1.00  0.00     0.249 C 
ENDROOT
BRANCH   7  11
HETATM   11  O5  UNL     1      32.946  65.588   2.814  1.00  0.00    -0.368 OA
ATOM     12  H5  UNL     1      33.073  64.986   3.538  1.00  0.00     0.212 HD
ENDBRANCH   7  11
BRANCH   5  13
HETATM   13  O4  UNL     1      34.842  65.679   1.335  1.00  0.00    -0.386 OA
ATOM     14  H4  UNL     1      35.162  66.359   0.753  1.00  0.00     0.210 HD
ENDBRANCH   5  13
BRANCH  10  15
HETATM   15  O6  UNL     1      33.002  63.283   3.432  1.00  0.00    -0.360 OA
ATOM     16  H6  UNL     1      33.916  63.543   3.452  1.00  0.00     0.213 HD
ENDBRANCH  10  15
BRANCH  10  17
HETATM   17  O7  UNL     1      31.057  63.244   2.364  1.00  0.00    -0.360 OA
ATOM     18  H7  UNL     1      30.985  62.750   3.173  1.00  0.00     0.213 HD
ENDBRANCH  10  17
BRANCH   1  19
HETATM   19  C2  UNL     1      31.867  62.078   0.191  1.00  0.00     0.164 C 
HETATM   20  C1  UNL     1      31.624  60.685  -0.339  1.00  0.00     0.094 C 
HETATM   21  O1  UNL     1      31.173  62.928  -0.339  1.00  0.00    -0.295 OA
ENDBRANCH   1  19
BRANCH   1  22
HETATM   22  O2  UNL     1      32.950  61.141   2.018  1.00  0.00    -0.376 OA
ATOM     23  H2  UNL     1      32.243  61.148   2.653  1.00  0.00     0.211 HD
ENDBRANCH   1  22
BRANCH   2  24
HETATM   24  C6  UNL     1      35.188  62.673   1.854  1.00  0.00     0.244 C 
HETATM   25  O3  UNL     1      35.565  61.600   2.327  1.00  0.00    -0.306 OA
ENDBRANCH   2  24
TORSDOF 7
ENDMDL
MODEL 5
REMARK VINA RESULT: -4.295940970      1.468      2.128
REMARK  7 active torsions:
REMARK  status: ('A' for Active; 'I' for Inactive)
REMARK    1  A    between atoms: C2_2  and  C3_4 
REMARK    2  A    between atoms: C3_4  and  O2_5 
REMARK    3  A    between atoms: C4_7  and  C6_9 
REMARK    4  A    between atoms: C8_12  and  O4_14 
REMARK    5  A    between atoms: C10_16  and  O5_17 
REMARK    6  A    between atoms: C12_21  and  O6_22 
REMARK    7  A    between atoms: C12_21  and  O7_24 
ROOT
HETATM    1  C3  UNL     1      32.286  63.328   1.889  1.00  0.00     0.191 C 
HETATM    2  C4  UNL     1      33.716  62.910   1.682  1.00  0.00     0.056 C 
HETATM    3  C5  UNL     1      33.826  61.476   1.213  1.00  0.00     0.027 C 
HETATM    4  C7  UNL     1      34.427  63.790   0.683  1.00  0.00     0.062 C 
HETATM    5  C8  UNL     1      34.331  65.245   0.997  1.00  0.00     0.105 C 
HETATM    6  C9  UNL     1      34.462  65.993  -0.339  1.00  0.00     0.050 C 
HETATM    7  C10 UNL     1      33.117  65.715   1.671  1.00  0.00     0.237 C 
HETATM    8  C11 UNL     1      32.271  66.536   0.757  1.00  0.00     0.107 C 
HETATM    9  N1  UNL     1      31.612  67.202   0.043  1.00  0.00    -0.194 NA
HETATM   10  C12 UNL     1      32.261  64.736   2.376  1.00  0.00     0.249 C 
ENDROOT
BRANCH   7  11
HETATM   11  O5  UNL     1      33.525  66.669   2.650  1.00  0.00    -0.368 OA
ATOM     12  H5  UNL     1      32.917  67.398   2.599  1.00  0.00     0.212 HD
ENDBRANCH   7  11
BRANCH   5  13
HETATM   13  O4  UNL     1      35.472  65.602   1.720  1.00  0.00    -0.386 OA
ATOM     14  H4  UNL     1      36.055  66.068   1.132  1.00  0.00     0.210 HD
ENDBRANCH   5  13
BRANCH  10  15
HETATM   15  O6  UNL     1      32.518  64.815   3.764  1.00  0.00    -0.360 OA
ATOM     16  H6  UNL     1      31.826  65.276   4.224  1.00  0.00     0.213 HD
ENDBRANCH  10  15
BRANCH  10  17
HETATM   17  O7  UNL     1      30.909  65.159   2.275  1.00  0.00    -0.360 OA
ATOM     18  H7  UNL     1      30.846  65.632   1.453  1.00  0.00     0.213 HD
ENDBRANCH  10  17
BRANCH   1  19
HETATM   19  C2  UNL     1      31.452  63.168   0.699  1.00  0.00     0.164 C 
HETATM   20  C1  UNL     1      30.347  62.139   0.681  1.00  0.00     0.094 C 
HETATM   21  O1  UNL     1      31.545  63.801  -0.338  1.00  0.00    -0.295 OA
ENDBRANCH   1  19
BRANCH   1  22
HETATM   22  O2  UNL     1      31.769  62.515   2.904  1.00  0.00    -0.376 OA
ATOM     23  H2  UNL     1      32.209  61.673   2.869  1.00  0.00     0.211 HD
ENDBRANCH   1  22
BRANCH   2  24
HETATM   24  C6  UNL     1      34.443  62.995   2.974  1.00  0.00     0.244 C 
HETATM   25  O3  UNL     1      34.283  62.049   3.746  1.00  0.00    -0.306 OA
ENDBRANCH   2  24
TORSDOF 7
ENDMDL
