MODEL 1
REMARK VINA RESULT: -7.971701832      0.000      0.000
REMARK  5 active torsions:
REMARK  status: ('A' for Active; 'I' for Inactive)
REMARK    1  A    between atoms: C2_2  and  C4_4 
REMARK       I    between atoms: C4_4  and  N1_6 
REMARK    2  A    between atoms: N1_6  and  O2_8 
REMARK    3  A    between atoms: O2_8  and  C5_9 
REMARK    4  A    between atoms: C5_9  and  O3_10 
REMARK    5  A    between atoms: C7_14  and  N3_15 
ROOT
HETATM    1  C5  UNL     1      35.945  59.563   7.207  1.00  0.00     0.302 C 
HETATM    2  C6  UNL     1      35.007  58.878   6.237  1.00  0.00     0.262 C 
HETATM    3  N2  UNL     1      34.836  57.562   6.872  1.00  0.00    -0.096 N 
HETATM    4  C7  UNL     1      34.445  56.393   6.341  1.00  0.00     0.697 A 
HETATM    5  N4  UNL     1      34.354  55.277   7.117  1.00  0.00    -0.150 N 
ATOM      6  H4  UNL     1      34.057  54.392   6.704  1.00  0.00     0.188 HD
HETATM    7  C8  UNL     1      34.653  55.341   8.415  1.00  0.00     0.331 A 
HETATM    8  O4  UNL     1      34.582  54.332   9.171  1.00  0.00    -0.261 OA
HETATM    9  C9  UNL     1      35.049  56.521   8.959  1.00  0.00     0.347 A 
HETATM   10  O5  UNL     1      35.341  56.611  10.195  1.00  0.00    -0.259 OA
HETATM   11  N5  UNL     1      35.128  57.616   8.151  1.00  0.00    -0.135 N 
HETATM   12  N6  UNL     1      35.502  58.933   8.449  1.00  0.00    -0.042 NA
ENDROOT
BRANCH   1  13
HETATM   13  O2  UNL     1      35.799  60.922   7.260  1.00  0.00    -0.216 OA
BRANCH  13  14
HETATM   14  N1  UNL     1      34.996  61.285   8.316  1.00  0.00    -0.226 N 
HETATM   15  C4  UNL     1      34.867  62.654   8.670  1.00  0.00     0.270 C 
HETATM   16  O1  UNL     1      35.494  63.517   8.006  1.00  0.00    -0.266 OA
ATOM     17  H1  UNL     1      34.494  60.571   8.844  1.00  0.00     0.198 HD
BRANCH  15  18
HETATM   18  C2  UNL     1      34.042  63.083   9.763  1.00  0.00    -0.002 C 
HETATM   19  C1  UNL     1      33.734  64.350   9.929  1.00  0.00     0.024 C 
HETATM   20  C3  UNL     1      33.531  62.044  10.726  1.00  0.00     0.053 C 
ENDBRANCH  15  18
ENDBRANCH  13  14
ENDBRANCH   1  13
BRANCH   1  21
HETATM   21  O3  UNL     1      37.264  59.143   7.005  1.00  0.00    -0.348 OA
ATOM     22  H3  UNL     1      37.351  58.440   6.372  1.00  0.00     0.214 HD
ENDBRANCH   1  21
BRANCH   4  23
HETATM   23  N3  UNL     1      34.138  56.241   5.095  1.00  0.00    -0.233 N 
ATOM     24  H32 UNL     1      34.604  56.871   4.441  1.00  0.00     0.174 HD
ATOM     25  H31 UNL     1      33.475  55.544   4.758  1.00  0.00     0.174 HD
ENDBRANCH   4  23
TORSDOF 5
ENDMDL
MODEL 2
REMARK VINA RESULT: -7.582533817      3.109      4.891
REMARK  5 active torsions:
REMARK  status: ('A' for Active; 'I' for Inactive)
REMARK    1  A    between atoms: C2_2  and  C4_4 
REMARK       I    between atoms: C4_4  and  N1_6 
REMARK    2  A    between atoms: N1_6  and  O2_8 
REMARK    3  A    between atoms: O2_8  and  C5_9 
REMARK    4  A    between atoms: C5_9  and  O3_10 
REMARK    5  A    between atoms: C7_14  and  N3_15 
ROOT
HETATM    1  C5  UNL     1      35.455  62.989   7.884  1.00  0.00     0.302 C 
HETATM    2  C6  UNL     1      35.479  61.553   7.407  1.00  0.00     0.262 C 
HETATM    3  N2  UNL     1      35.051  60.833   8.616  1.00  0.00    -0.096 N 
HETATM    4  C7  UNL     1      35.230  59.549   8.963  1.00  0.00     0.697 A 
HETATM    5  N4  UNL     1      34.748  59.079  10.148  1.00  0.00    -0.150 N 
ATOM      6  H4  UNL     1      34.888  58.102  10.404  1.00  0.00     0.188 HD
HETATM    7  C8  UNL     1      34.091  59.898  10.972  1.00  0.00     0.331 A 
HETATM    8  O4  UNL     1      33.627  59.504  12.079  1.00  0.00    -0.261 OA
HETATM    9  C9  UNL     1      33.906  61.198  10.626  1.00  0.00     0.347 A 
HETATM   10  O5  UNL     1      33.284  62.001  11.395  1.00  0.00    -0.259 OA
HETATM   11  N5  UNL     1      34.403  61.631   9.434  1.00  0.00    -0.135 N 
HETATM   12  N6  UNL     1      34.355  62.901   8.842  1.00  0.00    -0.042 NA
ENDROOT
BRANCH   1  13
HETATM   13  O2  UNL     1      35.183  63.900   6.900  1.00  0.00    -0.216 OA
BRANCH  13  14
HETATM   14  N1  UNL     1      34.753  63.269   5.757  1.00  0.00    -0.226 N 
HETATM   15  C4  UNL     1      34.089  64.012   4.745  1.00  0.00     0.270 C 
HETATM   16  O1  UNL     1      33.906  65.244   4.914  1.00  0.00    -0.266 OA
ATOM     17  H1  UNL     1      34.910  62.268   5.636  1.00  0.00     0.198 HD
BRANCH  15  18
HETATM   18  C2  UNL     1      33.620  63.400   3.534  1.00  0.00    -0.002 C 
HETATM   19  C1  UNL     1      32.564  63.859   2.902  1.00  0.00     0.024 C 
HETATM   20  C3  UNL     1      34.370  62.208   2.998  1.00  0.00     0.053 C 
ENDBRANCH  15  18
ENDBRANCH  13  14
ENDBRANCH   1  13
BRANCH   1  21
HETATM   21  O3  UNL     1      36.600  63.286   8.630  1.00  0.00    -0.348 OA
ATOM     22  H3  UNL     1      36.848  62.603   9.241  1.00  0.00     0.214 HD
ENDBRANCH   1  21
BRANCH   4  23
HETATM   23  N3  UNL     1      35.854  58.690   8.227  1.00  0.00    -0.233 N 
ATOM     24  H32 UNL     1      35.888  57.736   8.588  1.00  0.00     0.174 HD
ATOM     25  H31 UNL     1      36.295  58.923   7.337  1.00  0.00     0.174 HD
ENDBRANCH   4  23
TORSDOF 5
ENDMDL
MODEL 3
REMARK VINA RESULT: -7.464027926      1.923      6.515
REMARK  5 active torsions:
REMARK  status: ('A' for Active; 'I' for Inactive)
REMARK    1  A    between atoms: C2_2  and  C4_4 
REMARK       I    between atoms: C4_4  and  N1_6 
REMARK    2  A    between atoms: N1_6  and  O2_8 
REMARK    3  A    between atoms: O2_8  and  C5_9 
REMARK    4  A    between atoms: C5_9  and  O3_10 
REMARK    5  A    between atoms: C7_14  and  N3_15 
ROOT
HETATM    1  C5  UNL     1      35.649  58.855   9.288  1.00  0.00     0.302 C 
HETATM    2  C6  UNL     1      34.453  59.146  10.168  1.00  0.00     0.262 C 
HETATM    3  N2  UNL     1      34.304  60.600   9.992  1.00  0.00    -0.096 N 
HETATM    4  C7  UNL     1      33.692  61.504  10.772  1.00  0.00     0.697 A 
HETATM    5  N4  UNL     1      33.672  62.820  10.421  1.00  0.00    -0.150 N 
ATOM      6  H4  UNL     1      33.205  63.501  11.019  1.00  0.00     0.188 HD
HETATM    7  C8  UNL     1      34.264  63.218   9.293  1.00  0.00     0.331 A 
HETATM    8  O4  UNL     1      34.270  64.427   8.929  1.00  0.00    -0.261 OA
HETATM    9  C9  UNL     1      34.885  62.307   8.499  1.00  0.00     0.347 A 
HETATM   10  O5  UNL     1      35.459  62.660   7.418  1.00  0.00    -0.259 OA
HETATM   11  N5  UNL     1      34.884  61.000   8.884  1.00  0.00    -0.135 N 
HETATM   12  N6  UNL     1      35.441  59.874   8.262  1.00  0.00    -0.042 NA
ENDROOT
BRANCH   1  13
HETATM   13  O2  UNL     1      35.650  57.598   8.746  1.00  0.00    -0.216 OA
BRANCH  13  14
HETATM   14  N1  UNL     1      34.857  57.552   7.624  1.00  0.00    -0.226 N 
HETATM   15  C4  UNL     1      34.567  56.302   7.013  1.00  0.00     0.270 C 
HETATM   16  O1  UNL     1      35.045  55.253   7.514  1.00  0.00    -0.266 OA
ATOM     17  H1  UNL     1      34.477  58.413   7.230  1.00  0.00     0.198 HD
BRANCH  15  18
HETATM   18  C2  UNL     1      33.745  56.200   5.841  1.00  0.00    -0.002 C 
HETATM   19  C1  UNL     1      34.243  55.807   4.690  1.00  0.00     0.024 C 
HETATM   20  C3  UNL     1      32.286  56.557   5.957  1.00  0.00     0.053 C 
ENDBRANCH  15  18
ENDBRANCH  13  14
ENDBRANCH   1  13
BRANCH   1  21
HETATM   21  O3  UNL     1      36.840  59.192   9.939  1.00  0.00    -0.348 OA
ATOM     22  H3  UNL     1      37.556  59.397   9.349  1.00  0.00     0.214 HD
ENDBRANCH   1  21
BRANCH   4  23
HETATM   23  N3  UNL     1      33.097  61.207  11.879  1.00  0.00    -0.233 N 
ATOM     24  H32 UNL     1      33.526  60.463  12.431  1.00  0.00     0.174 HD
ATOM     25  H31 UNL     1      32.248  61.669  12.207  1.00  0.00     0.174 HD
ENDBRANCH   4  23
TORSDOF 5
ENDMDL
MODEL 4
REMARK VINA RESULT: -7.202795803      2.090      6.639
REMARK  5 active torsions:
REMARK  status: ('A' for Active; 'I' for Inactive)
REMARK    1  A    between atoms: C2_2  and  C4_4 
REMARK       I    between atoms: C4_4  and  N1_6 
REMARK    2  A    between atoms: N1_6  and  O2_8 
REMARK    3  A    between atoms: O2_8  and  C5_9 
REMARK    4  A    between atoms: C5_9  and  O3_10 
REMARK    5  A    between atoms: C7_14  and  N3_15 
ROOT
HETATM    1  C5  UNL     1      36.007  60.391   7.927  1.00  0.00     0.302 C 
HETATM    2  C6  UNL     1      34.925  60.187   8.965  1.00  0.00     0.262 C 
HETATM    3  N2  UNL     1      34.514  61.573   9.238  1.00  0.00    -0.096 N 
HETATM    4  C7  UNL     1      33.885  62.091  10.305  1.00  0.00     0.697 A 
HETATM    5  N4  UNL     1      33.596  63.421  10.358  1.00  0.00    -0.150 N 
ATOM      6  H4  UNL     1      33.118  63.807  11.173  1.00  0.00     0.188 HD
HETATM    7  C8  UNL     1      33.938  64.219   9.345  1.00  0.00     0.331 A 
HETATM    8  O4  UNL     1      33.690  65.458   9.354  1.00  0.00    -0.261 OA
HETATM    9  C9  UNL     1      34.575  63.701   8.263  1.00  0.00     0.347 A 
HETATM   10  O5  UNL     1      34.914  64.440   7.283  1.00  0.00    -0.259 OA
HETATM   11  N5  UNL     1      34.847  62.366   8.246  1.00  0.00    -0.135 N 
HETATM   12  N6  UNL     1      35.483  61.586   7.270  1.00  0.00    -0.042 NA
ENDROOT
BRANCH   1  13
HETATM   13  O2  UNL     1      36.135  59.354   7.042  1.00  0.00    -0.216 OA
BRANCH  13  14
HETATM   14  N1  UNL     1      35.187  58.389   7.284  1.00  0.00    -0.226 N 
HETATM   15  C4  UNL     1      35.027  57.309   6.374  1.00  0.00     0.270 C 
HETATM   16  O1  UNL     1      35.762  57.257   5.356  1.00  0.00    -0.266 OA
ATOM     17  H1  UNL     1      34.599  58.446   8.116  1.00  0.00     0.198 HD
BRANCH  15  18
HETATM   18  C2  UNL     1      34.052  56.276   6.582  1.00  0.00    -0.002 C 
HETATM   19  C1  UNL     1      34.278  55.282   7.410  1.00  0.00     0.024 C 
HETATM   20  C3  UNL     1      32.753  56.355   5.823  1.00  0.00     0.053 C 
ENDBRANCH  15  18
ENDBRANCH  13  14
ENDBRANCH   1  13
BRANCH   1  21
HETATM   21  O3  UNL     1      37.211  60.771   8.530  1.00  0.00    -0.348 OA
ATOM     22  H3  UNL     1      37.780  61.280   7.964  1.00  0.00     0.214 HD
ENDBRANCH   1  21
BRANCH   4  23
HETATM   23  N3  UNL     1      33.520  61.392  11.328  1.00  0.00    -0.233 N 
ATOM     24  H32 UNL     1      33.644  60.383  11.246  1.00  0.00     0.174 HD
ATOM     25  H31 UNL     1      33.127  61.798  12.178  1.00  0.00     0.174 HD
ENDBRANCH   4  23
TORSDOF 5
ENDMDL
MODEL 5
REMARK VINA RESULT: -7.169851246      2.294      2.769
REMARK  5 active torsions:
REMARK  status: ('A' for Active; 'I' for Inactive)
REMARK    1  A    between atoms: C2_2  and  C4_4 
REMARK       I    between atoms: C4_4  and  N1_6 
REMARK    2  A    between atoms: N1_6  and  O2_8 
REMARK    3  A    between atoms: O2_8  and  C5_9 
REMARK    4  A    between atoms: C5_9  and  O3_10 
REMARK    5  A    between atoms: C7_14  and  N3_15 
ROOT
HETATM    1  C5  UNL     1      35.376  59.373   9.576  1.00  0.00     0.302 C 
HETATM    2  C6  UNL     1      34.768  59.068   8.224  1.00  0.00     0.262 C 
HETATM    3  N2  UNL     1      34.870  57.600   8.180  1.00  0.00    -0.096 N 
HETATM    4  C7  UNL     1      34.862  56.768   7.127  1.00  0.00     0.697 A 
HETATM    5  N4  UNL     1      34.973  55.422   7.309  1.00  0.00    -0.150 N 
ATOM      6  H4  UNL     1      34.966  54.796   6.504  1.00  0.00     0.188 HD
HETATM    7  C8  UNL     1      35.090  54.924   8.541  1.00  0.00     0.331 A 
HETATM    8  O4  UNL     1      35.195  53.683   8.756  1.00  0.00    -0.261 OA
HETATM    9  C9  UNL     1      35.099  55.761   9.610  1.00  0.00     0.347 A 
HETATM   10  O5  UNL     1      35.211  55.312  10.797  1.00  0.00    -0.259 OA
HETATM   11  N5  UNL     1      34.986  57.101   9.388  1.00  0.00    -0.135 N 
HETATM   12  N6  UNL     1      34.968  58.169  10.296  1.00  0.00    -0.042 NA
ENDROOT
BRANCH   1  13
HETATM   13  O2  UNL     1      34.877  60.500  10.171  1.00  0.00    -0.216 OA
BRANCH  13  14
HETATM   14  N1  UNL     1      34.208  60.183  11.329  1.00  0.00    -0.226 N 
HETATM   15  C4  UNL     1      33.199  61.052  11.826  1.00  0.00     0.270 C 
HETATM   16  O1  UNL     1      32.935  62.103  11.191  1.00  0.00    -0.266 OA
ATOM     17  H1  UNL     1      34.435  59.324  11.832  1.00  0.00     0.198 HD
BRANCH  15  18
HETATM   18  C2  UNL     1      32.473  60.766  13.030  1.00  0.00    -0.002 C 
HETATM   19  C1  UNL     1      32.978  59.991  13.964  1.00  0.00     0.024 C 
HETATM   20  C3  UNL     1      31.106  61.375  13.204  1.00  0.00     0.053 C 
ENDBRANCH  15  18
ENDBRANCH  13  14
ENDBRANCH   1  13
BRANCH   1  21
HETATM   21  O3  UNL     1      36.773  59.338   9.513  1.00  0.00    -0.348 OA
ATOM     22  H3  UNL     1      37.113  59.080   8.665  1.00  0.00     0.214 HD
ENDBRANCH   1  21
BRANCH   4  23
HETATM   23  N3  UNL     1      34.754  57.164   5.902  1.00  0.00    -0.233 N 
ATOM     24  H32 UNL     1      35.607  57.524   5.473  1.00  0.00     0.174 HD
ATOM     25  H31 UNL     1      33.882  57.133   5.373  1.00  0.00     0.174 HD
ENDBRANCH   4  23
TORSDOF 5
ENDMDL
