MODEL 1
REMARK VINA RESULT: -7.324913104      0.000      0.000
REMARK  4 active torsions:
REMARK  status: ('A' for Active; 'I' for Inactive)
REMARK    1  A    between atoms: O1_2  and  C2_3 
REMARK    2  A    between atoms: C2_3  and  C3_5 
REMARK    3  A    between atoms: N3_13  and  N4_14 
REMARK    4  A    between atoms: N6_20  and  O3_22 
ROOT
HETATM    1  C3  UNL     1      33.752  61.789  10.083  1.00  0.00     0.144 C 
HETATM    2  C4  UNL     1      33.401  63.154  10.401  1.00  0.00     0.122 C 
HETATM    3  N1  UNL     1      33.988  64.035   9.548  1.00  0.00    -0.387 N 
HETATM    4  C5  UNL     1      33.688  64.472   8.195  1.00  0.00     0.132 C 
HETATM    5  C6  UNL     1      35.086  63.859   7.938  1.00  0.00     0.063 C 
HETATM    6  C7  UNL     1      35.233  64.677   9.301  1.00  0.00     0.132 C 
HETATM    7  C8  UNL     1      35.272  62.460   8.070  1.00  0.00     0.232 C 
HETATM    8  N2  UNL     1      34.983  61.747   6.842  1.00  0.00    -0.073 NA
HETATM    9  N3  UNL     1      35.307  60.416   7.180  1.00  0.00    -0.007 N 
HETATM   10  C9  UNL     1      35.206  60.268   8.606  1.00  0.00     0.741 C 
HETATM   11  N6  UNL     1      35.510  59.324   9.387  1.00  0.00    -0.096 N 
ATOM     12  H6  UNL     1      35.347  59.442  10.387  1.00  0.00     0.213 HD
HETATM   13  N7  UNL     1      34.643  61.555   9.025  1.00  0.00    -0.150 N 
ENDROOT
BRANCH   9  14
HETATM   14  N4  UNL     1      35.664  59.416   6.305  1.00  0.00    -0.216 N 
HETATM   15  N5  UNL     1      35.030  58.337   6.163  1.00  0.00    -0.329 N 
ATOM     16  H52 UNL     1      34.199  58.213   6.742  1.00  0.00     0.178 HD
ATOM     17  H51 UNL     1      35.295  57.596   5.514  1.00  0.00     0.178 HD
ATOM     18  H4  UNL     1      36.498  59.557   5.734  1.00  0.00     0.210 HD
ENDBRANCH   9  14
BRANCH  11  19
HETATM   19  O3  UNL     1      36.047  58.158   8.948  1.00  0.00    -0.276 OA
ATOM     20  H3  UNL     1      36.721  57.691   9.429  1.00  0.00     0.245 HD
ENDBRANCH  11  19
BRANCH   1  21
HETATM   21  C2  UNL     1      33.157  60.846  10.938  1.00  0.00     0.311 C 
HETATM   22  O2  UNL     1      33.123  59.623  10.713  1.00  0.00    -0.258 OA
BRANCH  21  23
HETATM   23  O1  UNL     1      32.535  61.258  12.156  1.00  0.00    -0.321 OA
HETATM   24  C1  UNL     1      31.221  60.803  12.376  1.00  0.00     0.213 C 
ENDBRANCH  21  23
ENDBRANCH   1  21
TORSDOF 4
ENDMDL
MODEL 2
REMARK VINA RESULT: -7.071243375      2.088      4.103
REMARK  4 active torsions:
REMARK  status: ('A' for Active; 'I' for Inactive)
REMARK    1  A    between atoms: O1_2  and  C2_3 
REMARK    2  A    between atoms: C2_3  and  C3_5 
REMARK    3  A    between atoms: N3_13  and  N4_14 
REMARK    4  A    between atoms: N6_20  and  O3_22 
ROOT
HETATM    1  C3  UNL     1      33.992  60.646  10.049  1.00  0.00     0.144 C 
HETATM    2  C4  UNL     1      33.910  59.206  10.128  1.00  0.00     0.122 C 
HETATM    3  N1  UNL     1      34.521  58.609   9.069  1.00  0.00    -0.387 N 
HETATM    4  C5  UNL     1      35.908  58.323   8.743  1.00  0.00     0.132 C 
HETATM    5  C6  UNL     1      35.574  59.256   7.553  1.00  0.00     0.063 C 
HETATM    6  C7  UNL     1      34.307  58.296   7.700  1.00  0.00     0.132 C 
HETATM    7  C8  UNL     1      35.304  60.627   7.793  1.00  0.00     0.232 C 
HETATM    8  N2  UNL     1      36.507  61.434   7.795  1.00  0.00    -0.073 NA
HETATM    9  N3  UNL     1      35.997  62.738   7.966  1.00  0.00    -0.007 N 
HETATM   10  C9  UNL     1      34.713  62.648   8.606  1.00  0.00     0.741 C 
HETATM   11  N6  UNL     1      33.824  63.509   8.854  1.00  0.00    -0.096 N 
ATOM     12  H6  UNL     1      32.971  63.211   9.328  1.00  0.00     0.213 HD
HETATM   13  N7  UNL     1      34.614  61.222   8.931  1.00  0.00    -0.150 N 
ENDROOT
BRANCH   9  14
HETATM   14  N4  UNL     1      36.612  63.910   7.590  1.00  0.00    -0.216 N 
HETATM   15  N5  UNL     1      37.804  63.991   7.191  1.00  0.00    -0.329 N 
ATOM     16  H52 UNL     1      38.334  63.121   7.150  1.00  0.00     0.178 HD
ATOM     17  H51 UNL     1      38.258  64.860   6.912  1.00  0.00     0.178 HD
ATOM     18  H4  UNL     1      36.065  64.770   7.637  1.00  0.00     0.210 HD
ENDBRANCH   9  14
BRANCH  11  19
HETATM   19  O3  UNL     1      33.959  64.816   8.514  1.00  0.00    -0.276 OA
ATOM     20  H3  UNL     1      33.430  65.503   8.904  1.00  0.00     0.245 HD
ENDBRANCH  11  19
BRANCH   1  21
HETATM   21  C2  UNL     1      33.380  61.301  11.132  1.00  0.00     0.311 C 
HETATM   22  O2  UNL     1      32.614  62.273  11.016  1.00  0.00    -0.258 OA
BRANCH  21  23
HETATM   23  O1  UNL     1      33.617  60.867  12.472  1.00  0.00    -0.321 OA
HETATM   24  C1  UNL     1      32.495  60.425  13.196  1.00  0.00     0.213 C 
ENDBRANCH  21  23
ENDBRANCH   1  21
TORSDOF 4
ENDMDL
MODEL 3
REMARK VINA RESULT: -6.930412596      2.662      5.020
REMARK  4 active torsions:
REMARK  status: ('A' for Active; 'I' for Inactive)
REMARK    1  A    between atoms: O1_2  and  C2_3 
REMARK    2  A    between atoms: C2_3  and  C3_5 
REMARK    3  A    between atoms: N3_13  and  N4_14 
REMARK    4  A    between atoms: N6_20  and  O3_22 
ROOT
HETATM    1  C3  UNL     1      34.439  60.570   9.414  1.00  0.00     0.144 C 
HETATM    2  C4  UNL     1      34.041  59.495  10.293  1.00  0.00     0.122 C 
HETATM    3  N1  UNL     1      33.345  59.957  11.367  1.00  0.00    -0.387 N 
HETATM    4  C5  UNL     1      31.967  60.375  11.563  1.00  0.00     0.132 C 
HETATM    5  C6  UNL     1      32.670  61.711  11.910  1.00  0.00     0.063 C 
HETATM    6  C7  UNL     1      33.541  60.582  12.628  1.00  0.00     0.132 C 
HETATM    7  C8  UNL     1      33.355  62.425  10.895  1.00  0.00     0.232 C 
HETATM    8  N2  UNL     1      32.485  63.331  10.175  1.00  0.00    -0.073 NA
HETATM    9  N3  UNL     1      33.378  63.975   9.294  1.00  0.00    -0.007 N 
HETATM   10  C9  UNL     1      34.514  63.119   9.087  1.00  0.00     0.741 C 
HETATM   11  N6  UNL     1      35.617  63.295   8.497  1.00  0.00    -0.096 N 
ATOM     12  H6  UNL     1      36.290  62.529   8.475  1.00  0.00     0.213 HD
HETATM   13  N7  UNL     1      34.119  61.887   9.776  1.00  0.00    -0.150 N 
ENDROOT
BRANCH   9  14
HETATM   14  N4  UNL     1      33.209  65.214   8.720  1.00  0.00    -0.216 N 
HETATM   15  N5  UNL     1      33.883  66.235   9.021  1.00  0.00    -0.329 N 
ATOM     16  H52 UNL     1      34.598  66.117   9.740  1.00  0.00     0.178 HD
ATOM     17  H51 UNL     1      33.756  67.153   8.596  1.00  0.00     0.178 HD
ATOM     18  H4  UNL     1      32.489  65.313   8.004  1.00  0.00     0.210 HD
ENDBRANCH   9  14
BRANCH  11  19
HETATM   19  O3  UNL     1      35.940  64.465   7.889  1.00  0.00    -0.276 OA
ATOM     20  H3  UNL     1      36.839  64.718   7.713  1.00  0.00     0.245 HD
ENDBRANCH  11  19
BRANCH   1  21
HETATM   21  C2  UNL     1      35.154  60.133   8.285  1.00  0.00     0.311 C 
HETATM   22  O2  UNL     1      35.946  60.843   7.642  1.00  0.00    -0.258 OA
BRANCH  21  23
HETATM   23  O1  UNL     1      35.000  58.798   7.800  1.00  0.00    -0.321 OA
HETATM   24  C1  UNL     1      35.125  58.617   6.410  1.00  0.00     0.213 C 
ENDBRANCH  21  23
ENDBRANCH   1  21
TORSDOF 4
ENDMDL
MODEL 4
REMARK VINA RESULT: -6.846826500      2.193      4.012
REMARK  4 active torsions:
REMARK  status: ('A' for Active; 'I' for Inactive)
REMARK    1  A    between atoms: O1_2  and  C2_3 
REMARK    2  A    between atoms: C2_3  and  C3_5 
REMARK    3  A    between atoms: N3_13  and  N4_14 
REMARK    4  A    between atoms: N6_20  and  O3_22 
ROOT
HETATM    1  C3  UNL     1      33.669  62.530  10.101  1.00  0.00     0.144 C 
HETATM    2  C4  UNL     1      32.746  62.957  11.128  1.00  0.00     0.122 C 
HETATM    3  N1  UNL     1      32.269  61.904  11.844  1.00  0.00    -0.387 N 
HETATM    4  C5  UNL     1      32.811  61.102  12.929  1.00  0.00     0.132 C 
HETATM    5  C6  UNL     1      32.644  59.984  11.871  1.00  0.00     0.063 C 
HETATM    6  C7  UNL     1      31.311  60.857  11.770  1.00  0.00     0.132 C 
HETATM    7  C8  UNL     1      33.447  59.999  10.703  1.00  0.00     0.232 C 
HETATM    8  N2  UNL     1      34.711  59.319  10.893  1.00  0.00    -0.073 NA
HETATM    9  N3  UNL     1      35.291  59.389   9.609  1.00  0.00    -0.007 N 
HETATM   10  C9  UNL     1      34.720  60.508   8.910  1.00  0.00     0.741 C 
HETATM   11  N6  UNL     1      34.818  60.904   7.715  1.00  0.00    -0.096 N 
ATOM     12  H6  UNL     1      34.312  61.744   7.434  1.00  0.00     0.213 HD
HETATM   13  N7  UNL     1      33.910  61.156   9.945  1.00  0.00    -0.150 N 
ENDROOT
BRANCH   9  14
HETATM   14  N4  UNL     1      36.242  58.538   9.095  1.00  0.00    -0.216 N 
HETATM   15  N5  UNL     1      35.983  57.446   8.523  1.00  0.00    -0.329 N 
ATOM     16  H52 UNL     1      34.998  57.191   8.444  1.00  0.00     0.178 HD
ATOM     17  H51 UNL     1      36.688  56.816   8.143  1.00  0.00     0.178 HD
ATOM     18  H4  UNL     1      37.221  58.810   9.183  1.00  0.00     0.210 HD
ENDBRANCH   9  14
BRANCH  11  19
HETATM   19  O3  UNL     1      35.569  60.255   6.790  1.00  0.00    -0.276 OA
ATOM     20  H3  UNL     1      36.491  60.446   6.655  1.00  0.00     0.245 HD
ENDBRANCH  11  19
BRANCH   1  21
HETATM   21  C2  UNL     1      34.192  63.591   9.343  1.00  0.00     0.311 C 
HETATM   22  O2  UNL     1      35.247  63.528   8.689  1.00  0.00    -0.258 OA
BRANCH  21  23
HETATM   23  O1  UNL     1      33.514  64.846   9.284  1.00  0.00    -0.321 OA
HETATM   24  C1  UNL     1      33.973  65.765   8.322  1.00  0.00     0.213 C 
ENDBRANCH  21  23
ENDBRANCH   1  21
TORSDOF 4
ENDMDL
MODEL 5
REMARK VINA RESULT: -6.122206781      1.652      2.240
REMARK  4 active torsions:
REMARK  status: ('A' for Active; 'I' for Inactive)
REMARK    1  A    between atoms: O1_2  and  C2_3 
REMARK    2  A    between atoms: C2_3  and  C3_5 
REMARK    3  A    between atoms: N3_13  and  N4_14 
REMARK    4  A    between atoms: N6_20  and  O3_22 
ROOT
HETATM    1  C3  UNL     1      33.632  62.267  10.144  1.00  0.00     0.144 C 
HETATM    2  C4  UNL     1      33.873  63.533   9.489  1.00  0.00     0.122 C 
HETATM    3  N1  UNL     1      34.771  63.410   8.475  1.00  0.00    -0.387 N 
HETATM    4  C5  UNL     1      34.676  62.934   7.105  1.00  0.00     0.132 C 
HETATM    5  C6  UNL     1      35.699  61.902   7.642  1.00  0.00     0.063 C 
HETATM    6  C7  UNL     1      36.168  63.306   8.240  1.00  0.00     0.132 C 
HETATM    7  C8  UNL     1      35.292  60.956   8.616  1.00  0.00     0.232 C 
HETATM    8  N2  UNL     1      34.737  59.757   8.022  1.00  0.00    -0.073 NA
HETATM    9  N3  UNL     1      34.485  58.948   9.150  1.00  0.00    -0.007 N 
HETATM   10  C9  UNL     1      34.331  59.798  10.298  1.00  0.00     0.741 C 
HETATM   11  N6  UNL     1      34.221  59.550  11.532  1.00  0.00    -0.096 N 
ATOM     12  H6  UNL     1      34.120  60.330  12.182  1.00  0.00     0.213 HD
HETATM   13  N7  UNL     1      34.347  61.141   9.710  1.00  0.00    -0.150 N 
ENDROOT
BRANCH   9  14
HETATM   14  N4  UNL     1      34.399  57.575   9.166  1.00  0.00    -0.216 N 
HETATM   15  N5  UNL     1      35.206  56.806   8.581  1.00  0.00    -0.329 N 
ATOM     16  H52 UNL     1      35.968  57.246   8.065  1.00  0.00     0.178 HD
ATOM     17  H51 UNL     1      35.142  55.788   8.593  1.00  0.00     0.178 HD
ATOM     18  H4  UNL     1      33.630  57.152   9.687  1.00  0.00     0.210 HD
ENDBRANCH   9  14
BRANCH  11  19
HETATM   19  O3  UNL     1      34.230  58.287  12.026  1.00  0.00    -0.276 OA
ATOM     20  H3  UNL     1      34.219  57.519  11.466  1.00  0.00     0.245 HD
ENDBRANCH  11  19
BRANCH   1  21
HETATM   21  C2  UNL     1      32.701  62.350  11.194  1.00  0.00     0.311 C 
HETATM   22  O2  UNL     1      32.704  63.240  12.062  1.00  0.00    -0.258 OA
BRANCH  21  23
HETATM   23  O1  UNL     1      31.663  61.378  11.322  1.00  0.00    -0.321 OA
HETATM   24  C1  UNL     1      31.203  61.118  12.627  1.00  0.00     0.213 C 
ENDBRANCH  21  23
ENDBRANCH   1  21
TORSDOF 4
ENDMDL
