MODEL 1
REMARK VINA RESULT: -7.134705472      0.000      0.000
REMARK  6 active torsions:
REMARK  status: ('A' for Active; 'I' for Inactive)
REMARK    1  A    between atoms: C1_2  and  O2_4 
REMARK    2  A    between atoms: O2_4  and  N2_5 
REMARK    3  A    between atoms: C2_7  and  O3_8 
REMARK    4  A    between atoms: C2_7  and  C3_10 
REMARK    5  A    between atoms: C4_11  and  S1_12 
REMARK    6  A    between atoms: S1_12  and  N3_13 
ROOT
HETATM    1  C3  UNL     1      34.383  61.207   9.378  1.00  0.00     0.090 A 
HETATM    2  C4  UNL     1      34.994  60.664   8.291  1.00  0.00     0.172 A 
HETATM    3  N4  UNL     1      35.362  61.529   7.326  1.00  0.00    -0.313 N 
ATOM      4  H4  UNL     1      35.828  61.307   6.446  1.00  0.00     0.175 HD
HETATM    5  S2  UNL     1      34.904  63.033   7.864  1.00  0.00     0.003 SA
HETATM    6  C5  UNL     1      34.223  62.584   9.352  1.00  0.00     0.121 A 
HETATM    7  N5  UNL     1      33.616  63.407  10.367  1.00  0.00    -0.092 NA
ENDROOT
BRANCH   1   8
HETATM    8  C2  UNL     1      33.830  60.423  10.524  1.00  0.00     0.176 C 
HETATM    9  N2  UNL     1      32.676  60.602  11.031  1.00  0.00    -0.234 N 
ATOM     10  H2  UNL     1      32.100  61.335  10.617  1.00  0.00     0.197 HD
BRANCH   9  11
HETATM   11  O2  UNL     1      32.142  59.916  12.061  1.00  0.00    -0.181 OA
BRANCH  11  12
HETATM   12  C1  UNL     1      31.564  60.556  13.159  1.00  0.00     0.394 C 
HETATM   13  N1  UNL     1      30.758  61.694  12.914  1.00  0.00    -0.031 NA
HETATM   14  O1  UNL     1      31.793  60.083  14.298  1.00  0.00    -0.240 OA
ENDBRANCH  11  12
ENDBRANCH   9  11
BRANCH   8  15
HETATM   15  O3  UNL     1      34.586  59.418  11.112  1.00  0.00    -0.344 OA
ATOM     16  H3  UNL     1      35.342  59.134  10.611  1.00  0.00     0.219 HD
ENDBRANCH   8  15
ENDBRANCH   1   8
BRANCH   2  17
HETATM   17  S1  UNL     1      35.418  58.938   8.067  1.00  0.00     0.274 S 
HETATM   18  O4  UNL     1      34.180  58.084   8.419  1.00  0.00    -0.199 OA
HETATM   19  O5  UNL     1      35.744  58.607   6.664  1.00  0.00    -0.199 OA
BRANCH  17  20
HETATM   20  N3  UNL     1      36.609  58.482   9.183  1.00  0.00    -0.323 N 
ATOM     21  H32 UNL     1      37.460  59.015   9.361  1.00  0.00     0.169 HD
ATOM     22  H31 UNL     1      36.345  57.609   9.638  1.00  0.00     0.169 HD
ENDBRANCH  17  20
ENDBRANCH   2  17
TORSDOF 6
ENDMDL
MODEL 2
REMARK VINA RESULT: -7.110183168      0.879      1.056
REMARK  6 active torsions:
REMARK  status: ('A' for Active; 'I' for Inactive)
REMARK    1  A    between atoms: C1_2  and  O2_4 
REMARK    2  A    between atoms: O2_4  and  N2_5 
REMARK    3  A    between atoms: C2_7  and  O3_8 
REMARK    4  A    between atoms: C2_7  and  C3_10 
REMARK    5  A    between atoms: C4_11  and  S1_12 
REMARK    6  A    between atoms: S1_12  and  N3_13 
ROOT
HETATM    1  C3  UNL     1      34.383  61.142   9.415  1.00  0.00     0.090 A 
HETATM    2  C4  UNL     1      35.010  60.578   8.346  1.00  0.00     0.172 A 
HETATM    3  N4  UNL     1      35.385  61.424   7.368  1.00  0.00    -0.313 N 
ATOM      4  H4  UNL     1      35.862  61.185   6.499  1.00  0.00     0.175 HD
HETATM    5  S2  UNL     1      34.915  62.938   7.868  1.00  0.00     0.003 SA
HETATM    6  C5  UNL     1      34.218  62.517   9.357  1.00  0.00     0.121 A 
HETATM    7  N5  UNL     1      33.596  63.359  10.348  1.00  0.00    -0.092 NA
ENDROOT
BRANCH   1   8
HETATM    8  C2  UNL     1      33.820  60.380  10.571  1.00  0.00     0.176 C 
HETATM    9  N2  UNL     1      32.660  60.567  11.062  1.00  0.00    -0.234 N 
ATOM     10  H2  UNL     1      32.087  61.290  10.628  1.00  0.00     0.197 HD
BRANCH   9  11
HETATM   11  O2  UNL     1      32.117  59.901  12.100  1.00  0.00    -0.181 OA
BRANCH  11  12
HETATM   12  C1  UNL     1      31.550  60.562  13.191  1.00  0.00     0.394 C 
HETATM   13  N1  UNL     1      30.758  61.707  12.934  1.00  0.00    -0.031 NA
HETATM   14  O1  UNL     1      31.775  60.101  14.336  1.00  0.00    -0.240 OA
ENDBRANCH  11  12
ENDBRANCH   9  11
BRANCH   8  15
HETATM   15  O3  UNL     1      34.571  59.389  11.186  1.00  0.00    -0.344 OA
ATOM     16  H3  UNL     1      34.224  58.508  11.106  1.00  0.00     0.219 HD
ENDBRANCH   8  15
ENDBRANCH   1   8
BRANCH   2  17
HETATM   17  S1  UNL     1      35.442  58.850   8.165  1.00  0.00     0.274 S 
HETATM   18  O4  UNL     1      35.774  58.585   6.680  1.00  0.00    -0.199 OA
HETATM   19  O5  UNL     1      36.661  58.484   8.916  1.00  0.00    -0.199 OA
BRANCH  17  20
HETATM   20  N3  UNL     1      34.099  57.875   8.505  1.00  0.00    -0.323 N 
ATOM     21  H32 UNL     1      33.178  58.236   8.753  1.00  0.00     0.169 HD
ATOM     22  H31 UNL     1      34.352  56.890   8.424  1.00  0.00     0.169 HD
ENDBRANCH  17  20
ENDBRANCH   2  17
TORSDOF 6
ENDMDL
MODEL 3
REMARK VINA RESULT: -7.023477956      0.909      1.105
REMARK  6 active torsions:
REMARK  status: ('A' for Active; 'I' for Inactive)
REMARK    1  A    between atoms: C1_2  and  O2_4 
REMARK    2  A    between atoms: O2_4  and  N2_5 
REMARK    3  A    between atoms: C2_7  and  O3_8 
REMARK    4  A    between atoms: C2_7  and  C3_10 
REMARK    5  A    between atoms: C4_11  and  S1_12 
REMARK    6  A    between atoms: S1_12  and  N3_13 
ROOT
HETATM    1  C3  UNL     1      34.358  61.259   9.406  1.00  0.00     0.090 A 
HETATM    2  C4  UNL     1      34.936  60.726   8.295  1.00  0.00     0.172 A 
HETATM    3  N4  UNL     1      35.304  61.602   7.341  1.00  0.00    -0.313 N 
ATOM      4  H4  UNL     1      35.747  61.388   6.448  1.00  0.00     0.175 HD
HETATM    5  S2  UNL     1      34.889  63.105   7.918  1.00  0.00     0.003 SA
HETATM    6  C5  UNL     1      34.227  62.640   9.410  1.00  0.00     0.121 A 
HETATM    7  N5  UNL     1      33.659  63.454  10.454  1.00  0.00    -0.092 NA
ENDROOT
BRANCH   1   8
HETATM    8  C2  UNL     1      33.811  60.464  10.546  1.00  0.00     0.176 C 
HETATM    9  N2  UNL     1      32.655  60.629  11.052  1.00  0.00    -0.234 N 
ATOM     10  H2  UNL     1      32.072  61.359  10.642  1.00  0.00     0.197 HD
BRANCH   9  11
HETATM   11  O2  UNL     1      32.126  59.934  12.078  1.00  0.00    -0.181 OA
BRANCH  11  12
HETATM   12  C1  UNL     1      31.546  60.562  13.182  1.00  0.00     0.394 C 
HETATM   13  N1  UNL     1      30.747  61.707  12.949  1.00  0.00    -0.031 NA
HETATM   14  O1  UNL     1      31.769  60.074  14.316  1.00  0.00    -0.240 OA
ENDBRANCH  11  12
ENDBRANCH   9  11
BRANCH   8  15
HETATM   15  O3  UNL     1      34.575  59.463  11.130  1.00  0.00    -0.344 OA
ATOM     16  H3  UNL     1      35.362  59.760  11.572  1.00  0.00     0.219 HD
ENDBRANCH   8  15
ENDBRANCH   1   8
BRANCH   2  17
HETATM   17  S1  UNL     1      35.317  58.996   8.029  1.00  0.00     0.274 S 
HETATM   18  O4  UNL     1      36.578  58.644   8.848  1.00  0.00    -0.199 OA
HETATM   19  O5  UNL     1      34.256  58.095   8.524  1.00  0.00    -0.199 OA
BRANCH  17  20
HETATM   20  N3  UNL     1      35.748  58.738   6.411  1.00  0.00    -0.323 N 
ATOM     21  H32 UNL     1      35.169  58.238   5.737  1.00  0.00     0.169 HD
ATOM     22  H31 UNL     1      36.660  59.153   6.221  1.00  0.00     0.169 HD
ENDBRANCH  17  20
ENDBRANCH   2  17
TORSDOF 6
ENDMDL
MODEL 4
REMARK VINA RESULT: -6.990664664      2.612      3.579
REMARK  6 active torsions:
REMARK  status: ('A' for Active; 'I' for Inactive)
REMARK    1  A    between atoms: C1_2  and  O2_4 
REMARK    2  A    between atoms: O2_4  and  N2_5 
REMARK    3  A    between atoms: C2_7  and  O3_8 
REMARK    4  A    between atoms: C2_7  and  C3_10 
REMARK    5  A    between atoms: C4_11  and  S1_12 
REMARK    6  A    between atoms: S1_12  and  N3_13 
ROOT
HETATM    1  C3  UNL     1      34.517  61.278   9.116  1.00  0.00     0.090 A 
HETATM    2  C4  UNL     1      35.370  61.929   8.280  1.00  0.00     0.172 A 
HETATM    3  N4  UNL     1      36.166  61.149   7.524  1.00  0.00    -0.313 N 
ATOM      4  H4  UNL     1      36.863  61.457   6.846  1.00  0.00     0.175 HD
HETATM    5  S2  UNL     1      35.780  59.582   7.920  1.00  0.00     0.003 SA
HETATM    6  C5  UNL     1      34.577  59.893   9.076  1.00  0.00     0.121 A 
HETATM    7  N5  UNL     1      33.788  58.967   9.849  1.00  0.00    -0.092 NA
ENDROOT
BRANCH   1   8
HETATM    8  C2  UNL     1      33.604  61.947  10.092  1.00  0.00     0.176 C 
HETATM    9  N2  UNL     1      33.232  61.440  11.198  1.00  0.00    -0.234 N 
ATOM     10  H2  UNL     1      33.588  60.510  11.422  1.00  0.00     0.197 HD
BRANCH   9  11
HETATM   11  O2  UNL     1      32.413  62.011  12.103  1.00  0.00    -0.181 OA
BRANCH  11  12
HETATM   12  C1  UNL     1      31.465  61.275  12.816  1.00  0.00     0.394 C 
HETATM   13  N1  UNL     1      31.655  59.877  12.924  1.00  0.00    -0.031 NA
HETATM   14  O1  UNL     1      30.499  61.899  13.319  1.00  0.00    -0.240 OA
ENDBRANCH  11  12
ENDBRANCH   9  11
BRANCH   8  15
HETATM   15  O3  UNL     1      33.101  63.212   9.821  1.00  0.00    -0.344 OA
ATOM     16  H3  UNL     1      32.320  63.451  10.308  1.00  0.00     0.219 HD
ENDBRANCH   8  15
ENDBRANCH   1   8
BRANCH   2  17
HETATM   17  S1  UNL     1      35.471  63.701   8.042  1.00  0.00     0.274 S 
HETATM   18  O4  UNL     1      34.314  64.134   7.116  1.00  0.00    -0.199 OA
HETATM   19  O5  UNL     1      35.281  64.457   9.297  1.00  0.00    -0.199 OA
BRANCH  17  20
HETATM   20  N3  UNL     1      36.889  64.095   7.202  1.00  0.00    -0.323 N 
ATOM     21  H32 UNL     1      37.127  65.036   6.891  1.00  0.00     0.169 HD
ATOM     22  H31 UNL     1      37.455  63.259   7.060  1.00  0.00     0.169 HD
ENDBRANCH  17  20
ENDBRANCH   2  17
TORSDOF 6
ENDMDL
MODEL 5
REMARK VINA RESULT: -6.905940745      2.991      5.054
REMARK  6 active torsions:
REMARK  status: ('A' for Active; 'I' for Inactive)
REMARK    1  A    between atoms: C1_2  and  O2_4 
REMARK    2  A    between atoms: O2_4  and  N2_5 
REMARK    3  A    between atoms: C2_7  and  O3_8 
REMARK    4  A    between atoms: C2_7  and  C3_10 
REMARK    5  A    between atoms: C4_11  and  S1_12 
REMARK    6  A    between atoms: S1_12  and  N3_13 
ROOT
HETATM    1  C3  UNL     1      34.145  60.897   9.765  1.00  0.00     0.090 A 
HETATM    2  C4  UNL     1      33.884  59.839  10.580  1.00  0.00     0.172 A 
HETATM    3  N4  UNL     1      34.370  58.649  10.176  1.00  0.00    -0.313 N 
ATOM      4  H4  UNL     1      34.274  57.753  10.654  1.00  0.00     0.175 HD
HETATM    5  S2  UNL     1      35.160  58.940   8.743  1.00  0.00     0.003 SA
HETATM    6  C5  UNL     1      34.882  60.610   8.626  1.00  0.00     0.121 A 
HETATM    7  N5  UNL     1      35.297  61.538   7.605  1.00  0.00    -0.092 NA
ENDROOT
BRANCH   1   8
HETATM    8  C2  UNL     1      33.638  62.285   9.984  1.00  0.00     0.176 C 
HETATM    9  N2  UNL     1      34.063  63.315   9.368  1.00  0.00    -0.234 N 
ATOM     10  H2  UNL     1      34.802  63.169   8.681  1.00  0.00     0.197 HD
BRANCH   9  11
HETATM   11  O2  UNL     1      33.631  64.581   9.537  1.00  0.00    -0.181 OA
BRANCH  11  12
HETATM   12  C1  UNL     1      34.027  65.619   8.693  1.00  0.00     0.394 C 
HETATM   13  N1  UNL     1      33.245  66.799   8.681  1.00  0.00    -0.031 NA
HETATM   14  O1  UNL     1      35.055  65.446   7.994  1.00  0.00    -0.240 OA
ENDBRANCH  11  12
ENDBRANCH   9  11
BRANCH   8  15
HETATM   15  O3  UNL     1      32.633  62.523  10.911  1.00  0.00    -0.344 OA
ATOM     16  H3  UNL     1      32.001  61.820  11.013  1.00  0.00     0.219 HD
ENDBRANCH   8  15
ENDBRANCH   1   8
BRANCH   2  17
HETATM   17  S1  UNL     1      33.035  59.901  12.155  1.00  0.00     0.274 S 
HETATM   18  O4  UNL     1      33.134  58.509  12.817  1.00  0.00    -0.199 OA
HETATM   19  O5  UNL     1      33.664  60.840  13.107  1.00  0.00    -0.199 OA
BRANCH  17  20
HETATM   20  N3  UNL     1      31.379  60.165  11.912  1.00  0.00    -0.323 N 
ATOM     21  H32 UNL     1      30.657  59.936  12.595  1.00  0.00     0.169 HD
ATOM     22  H31 UNL     1      31.221  60.579  10.994  1.00  0.00     0.169 HD
ENDBRANCH  17  20
ENDBRANCH   2  17
TORSDOF 6
ENDMDL
