MODEL 1
REMARK VINA RESULT: -6.402654207      0.000      0.000
REMARK  4 active torsions:
REMARK  status: ('A' for Active; 'I' for Inactive)
REMARK    1  A    between atoms: C3_8  and  N3_9 
REMARK    2  A    between atoms: N3_9  and  C4_11 
REMARK    3  A    between atoms: C4_11  and  C5_12 
REMARK    4  A    between atoms: C5_12  and  C6_13 
ROOT
HETATM    1  O1  UNL     1      12.056  32.711  33.315  1.00  0.00    -0.266 OA
HETATM    2  C1  UNL     1      11.893  31.562  33.797  1.00  0.00     0.276 A 
HETATM    3  C2  UNL     1      12.329  30.426  33.153  1.00  0.00     0.182 A 
HETATM    4  N1  UNL     1      12.138  29.209  33.699  1.00  0.00    -0.292 N 
ATOM      5  H1  UNL     1      12.460  28.363  33.230  1.00  0.00     0.186 HD
HETATM    6  N2  UNL     1      11.518  29.153  34.868  1.00  0.00    -0.132 N 
ATOM      7  H2  UNL     1      11.365  28.239  35.294  1.00  0.00     0.205 HD
HETATM    8  C3  UNL     1      11.084  30.237  35.516  1.00  0.00     0.695 A 
HETATM    9  N4  UNL     1      11.265  31.453  34.989  1.00  0.00    -0.154 N 
ATOM     10  H4  UNL     1      10.936  32.285  35.480  1.00  0.00     0.187 HD
ENDROOT
BRANCH   8  11
HETATM   11  N3  UNL     1      10.495  30.116  36.638  1.00  0.00    -0.224 N 
ATOM     12  H3  UNL     1      10.375  29.191  37.051  1.00  0.00     0.177 HD
BRANCH  11  13
HETATM   13  C4  UNL     1       9.997  31.278  37.327  1.00  0.00     0.142 C 
BRANCH  13  14
HETATM   14  C5  UNL     1       9.166  30.800  38.503  1.00  0.00     0.058 C 
BRANCH  14  15
HETATM   15  C6  UNL     1       9.860  31.031  39.790  1.00  0.00    -0.057 A 
HETATM   16  C7  UNL     1      10.114  32.294  40.287  1.00  0.00     0.007 A 
HETATM   17  C8  UNL     1      10.764  32.506  41.493  1.00  0.00     0.001 A 
HETATM   18  C9  UNL     1      11.165  31.379  42.208  1.00  0.00     0.000 A 
HETATM   19  C10 UNL     1      10.931  30.100  41.748  1.00  0.00     0.001 A 
HETATM   20  C11 UNL     1      10.276  29.943  40.535  1.00  0.00     0.007 A 
ENDBRANCH  14  15
ENDBRANCH  13  14
ENDBRANCH  11  13
ENDBRANCH   8  11
TORSDOF 4
ENDMDL
MODEL 2
REMARK VINA RESULT: -6.400566819      1.049      1.651
REMARK  4 active torsions:
REMARK  status: ('A' for Active; 'I' for Inactive)
REMARK    1  A    between atoms: C3_8  and  N3_9 
REMARK    2  A    between atoms: N3_9  and  C4_11 
REMARK    3  A    between atoms: C4_11  and  C5_12 
REMARK    4  A    between atoms: C5_12  and  C6_13 
ROOT
HETATM    1  O1  UNL     1      12.703  31.091  31.788  1.00  0.00    -0.266 OA
HETATM    2  C1  UNL     1      12.392  30.554  32.881  1.00  0.00     0.276 A 
HETATM    3  C2  UNL     1      12.566  29.208  33.114  1.00  0.00     0.182 A 
HETATM    4  N1  UNL     1      12.221  28.665  34.298  1.00  0.00    -0.292 N 
ATOM      5  H1  UNL     1      12.348  27.670  34.480  1.00  0.00     0.186 HD
HETATM    6  N2  UNL     1      11.713  29.473  35.217  1.00  0.00    -0.132 N 
ATOM      7  H2  UNL     1      11.446  29.076  36.118  1.00  0.00     0.205 HD
HETATM    8  C3  UNL     1      11.533  30.780  35.019  1.00  0.00     0.695 A 
HETATM    9  N4  UNL     1      11.870  31.337  33.851  1.00  0.00    -0.154 N 
ATOM     10  H4  UNL     1      11.735  32.336  33.694  1.00  0.00     0.187 HD
ENDROOT
BRANCH   8  11
HETATM   11  N3  UNL     1      11.039  31.503  35.944  1.00  0.00    -0.224 N 
ATOM     12  H3  UNL     1      11.438  32.421  36.138  1.00  0.00     0.177 HD
BRANCH  11  13
HETATM   13  C4  UNL     1       9.921  31.031  36.718  1.00  0.00     0.142 C 
BRANCH  13  14
HETATM   14  C5  UNL     1       9.584  32.094  37.746  1.00  0.00     0.058 C 
BRANCH  14  15
HETATM   15  C6  UNL     1       9.919  31.651  39.119  1.00  0.00    -0.057 A 
HETATM   16  C7  UNL     1       9.823  30.335  39.524  1.00  0.00     0.007 A 
HETATM   17  C8  UNL     1      10.136  29.924  40.810  1.00  0.00     0.001 A 
HETATM   18  C9  UNL     1      10.562  30.902  41.706  1.00  0.00     0.000 A 
HETATM   19  C10 UNL     1      10.671  32.229  41.343  1.00  0.00     0.001 A 
HETATM   20  C11 UNL     1      10.345  32.587  40.042  1.00  0.00     0.007 A 
ENDBRANCH  14  15
ENDBRANCH  13  14
ENDBRANCH  11  13
ENDBRANCH   8  11
TORSDOF 4
ENDMDL
MODEL 3
REMARK VINA RESULT: -6.381173514      2.003      2.975
REMARK  4 active torsions:
REMARK  status: ('A' for Active; 'I' for Inactive)
REMARK    1  A    between atoms: C3_8  and  N3_9 
REMARK    2  A    between atoms: N3_9  and  C4_11 
REMARK    3  A    between atoms: C4_11  and  C5_12 
REMARK    4  A    between atoms: C5_12  and  C6_13 
ROOT
HETATM    1  O1  UNL     1      14.572  30.679  32.038  1.00  0.00    -0.266 OA
HETATM    2  C1  UNL     1      13.444  30.160  31.842  1.00  0.00     0.276 A 
HETATM    3  C2  UNL     1      13.005  29.809  30.585  1.00  0.00     0.182 A 
HETATM    4  N1  UNL     1      11.791  29.253  30.410  1.00  0.00    -0.292 N 
ATOM      5  H1  UNL     1      11.459  28.989  29.483  1.00  0.00     0.186 HD
HETATM    6  N2  UNL     1      11.044  29.062  31.488  1.00  0.00    -0.132 N 
ATOM      7  H2  UNL     1      10.122  28.643  31.372  1.00  0.00     0.205 HD
HETATM    8  C3  UNL     1      11.443  29.393  32.718  1.00  0.00     0.695 A 
HETATM    9  N4  UNL     1      12.646  29.945  32.911  1.00  0.00    -0.154 N 
ATOM     10  H4  UNL     1      12.956  30.199  33.849  1.00  0.00     0.187 HD
ENDROOT
BRANCH   8  11
HETATM   11  N3  UNL     1      10.678  29.183  33.714  1.00  0.00    -0.224 N 
ATOM     12  H3  UNL     1       9.910  28.516  33.633  1.00  0.00     0.177 HD
BRANCH  11  13
HETATM   13  C4  UNL     1      10.891  29.881  34.955  1.00  0.00     0.142 C 
BRANCH  13  14
HETATM   14  C5  UNL     1       9.646  29.709  35.805  1.00  0.00     0.058 C 
BRANCH  14  15
HETATM   15  C6  UNL     1       9.772  30.408  37.104  1.00  0.00    -0.057 A 
HETATM   16  C7  UNL     1      10.024  31.761  37.205  1.00  0.00     0.007 A 
HETATM   17  C8  UNL     1      10.142  32.410  38.424  1.00  0.00     0.001 A 
HETATM   18  C9  UNL     1       9.996  31.639  39.574  1.00  0.00     0.000 A 
HETATM   19  C10 UNL     1       9.744  30.284  39.519  1.00  0.00     0.001 A 
HETATM   20  C11 UNL     1       9.634  29.682  38.273  1.00  0.00     0.007 A 
ENDBRANCH  14  15
ENDBRANCH  13  14
ENDBRANCH  11  13
ENDBRANCH   8  11
TORSDOF 4
ENDMDL
MODEL 4
REMARK VINA RESULT: -6.330987961      1.134      1.353
REMARK  4 active torsions:
REMARK  status: ('A' for Active; 'I' for Inactive)
REMARK    1  A    between atoms: C3_8  and  N3_9 
REMARK    2  A    between atoms: N3_9  and  C4_11 
REMARK    3  A    between atoms: C4_11  and  C5_12 
REMARK    4  A    between atoms: C5_12  and  C6_13 
ROOT
HETATM    1  O1  UNL     1      12.620  31.251  32.605  1.00  0.00    -0.266 OA
HETATM    2  C1  UNL     1      12.197  30.766  33.684  1.00  0.00     0.276 A 
HETATM    3  C2  UNL     1      12.353  29.435  34.003  1.00  0.00     0.182 A 
HETATM    4  N1  UNL     1      11.888  28.948  35.169  1.00  0.00    -0.292 N 
ATOM      5  H1  UNL     1      12.001  27.964  35.413  1.00  0.00     0.186 HD
HETATM    6  N2  UNL     1      11.280  29.794  35.987  1.00  0.00    -0.132 N 
ATOM      7  H2  UNL     1      10.921  29.439  36.874  1.00  0.00     0.205 HD
HETATM    8  C3  UNL     1      11.114  31.088  35.705  1.00  0.00     0.695 A 
HETATM    9  N4  UNL     1      11.569  31.589  34.552  1.00  0.00    -0.154 N 
ATOM     10  H4  UNL     1      11.446  32.578  34.332  1.00  0.00     0.187 HD
ENDROOT
BRANCH   8  11
HETATM   11  N3  UNL     1      10.520  31.850  36.535  1.00  0.00    -0.224 N 
ATOM     12  H3  UNL     1      10.400  32.839  36.319  1.00  0.00     0.177 HD
BRANCH  11  13
HETATM   13  C4  UNL     1      10.017  31.322  37.776  1.00  0.00     0.142 C 
BRANCH  13  14
HETATM   14  C5  UNL     1      10.102  32.421  38.818  1.00  0.00     0.058 C 
BRANCH  14  15
HETATM   15  C6  UNL     1       9.986  31.881  40.191  1.00  0.00    -0.057 A 
HETATM   16  C7  UNL     1      10.659  32.423  41.268  1.00  0.00     0.007 A 
HETATM   17  C8  UNL     1      10.548  31.914  42.552  1.00  0.00     0.001 A 
HETATM   18  C9  UNL     1       9.716  30.811  42.731  1.00  0.00     0.000 A 
HETATM   19  C10 UNL     1       9.026  30.238  41.683  1.00  0.00     0.001 A 
HETATM   20  C11 UNL     1       9.172  30.787  40.417  1.00  0.00     0.007 A 
ENDBRANCH  14  15
ENDBRANCH  13  14
ENDBRANCH  11  13
ENDBRANCH   8  11
TORSDOF 4
ENDMDL
MODEL 5
REMARK VINA RESULT: -6.266797790      6.868      8.900
REMARK  4 active torsions:
REMARK  status: ('A' for Active; 'I' for Inactive)
REMARK    1  A    between atoms: C3_8  and  N3_9 
REMARK    2  A    between atoms: N3_9  and  C4_11 
REMARK    3  A    between atoms: C4_11  and  C5_12 
REMARK    4  A    between atoms: C5_12  and  C6_13 
ROOT
HETATM    1  O1  UNL     1      14.799  30.429  32.454  1.00  0.00    -0.266 OA
HETATM    2  C1  UNL     1      13.841  29.991  31.769  1.00  0.00     0.276 A 
HETATM    3  C2  UNL     1      13.692  30.295  30.434  1.00  0.00     0.182 A 
HETATM    4  N1  UNL     1      12.652  29.808  29.730  1.00  0.00    -0.292 N 
ATOM      5  H1  UNL     1      12.535  30.026  28.741  1.00  0.00     0.186 HD
HETATM    6  N2  UNL     1      11.788  29.034  30.370  1.00  0.00    -0.132 N 
ATOM      7  H2  UNL     1      10.994  28.658  29.850  1.00  0.00     0.205 HD
HETATM    8  C3  UNL     1      11.906  28.723  31.663  1.00  0.00     0.695 A 
HETATM    9  N4  UNL     1      12.933  29.197  32.378  1.00  0.00    -0.154 N 
ATOM     10  H4  UNL     1      13.028  28.962  33.366  1.00  0.00     0.187 HD
ENDROOT
BRANCH   8  11
HETATM   11  N3  UNL     1      11.041  27.972  32.220  1.00  0.00    -0.224 N 
ATOM     12  H3  UNL     1      10.101  28.325  32.393  1.00  0.00     0.177 HD
BRANCH  11  13
HETATM   13  C4  UNL     1      11.385  26.629  32.606  1.00  0.00     0.142 C 
BRANCH  13  14
HETATM   14  C5  UNL     1      11.720  25.854  31.346  1.00  0.00     0.058 C 
BRANCH  14  15
HETATM   15  C6  UNL     1      10.497  25.422  30.631  1.00  0.00    -0.057 A 
HETATM   16  C7  UNL     1       9.429  24.825  31.269  1.00  0.00     0.007 A 
HETATM   17  C8  UNL     1       8.286  24.422  30.595  1.00  0.00     0.001 A 
HETATM   18  C9  UNL     1       8.245  24.643  29.221  1.00  0.00     0.000 A 
HETATM   19  C10 UNL     1       9.290  25.236  28.543  1.00  0.00     0.001 A 
HETATM   20  C11 UNL     1      10.411  25.621  29.265  1.00  0.00     0.007 A 
ENDBRANCH  14  15
ENDBRANCH  13  14
ENDBRANCH  11  13
ENDBRANCH   8  11
TORSDOF 4
ENDMDL
