MODEL 1
REMARK VINA RESULT: -6.062954735      0.000      0.000
REMARK  4 active torsions:
REMARK  status: ('A' for Active; 'I' for Inactive)
REMARK    1  A    between atoms: C4_5  and  C5_6 
REMARK    2  A    between atoms: C5_6  and  C6_7 
REMARK    3  A    between atoms: C6_7  and  N2_8 
REMARK    4  A    between atoms: N2_8  and  C7_10 
ROOT
HETATM    1  N2  UNL     1      11.859  26.660  29.882  1.00  0.00    -0.375 N 
ATOM      2  H2  UNL     1      11.693  27.663  29.949  1.00  0.00     0.161 HD
ENDROOT
BRANCH   1   3
HETATM    3  C6  UNL     1      13.219  26.261  29.882  1.00  0.00     0.126 C 
BRANCH   3   4
HETATM    4  C5  UNL     1      13.917  26.695  31.151  1.00  0.00     0.058 C 
BRANCH   4   5
HETATM    5  C4  UNL     1      13.494  28.050  31.588  1.00  0.00    -0.057 A 
HETATM    6  C3  UNL     1      12.845  28.195  32.777  1.00  0.00     0.009 A 
HETATM    7  C2  UNL     1      12.415  29.420  33.260  1.00  0.00     0.027 A 
HETATM    8  C1  UNL     1      12.648  30.563  32.510  1.00  0.00     0.046 A 
HETATM    9  N1  UNL     1      12.245  31.852  32.924  1.00  0.00    -0.102 NA
HETATM   10  C12 UNL     1      13.310  30.417  31.295  1.00  0.00     0.027 A 
HETATM   11  C11 UNL     1      13.729  29.181  30.836  1.00  0.00     0.009 A 
ENDBRANCH   4   5
ENDBRANCH   3   4
ENDBRANCH   1   3
BRANCH   1  12
HETATM   12  C7  UNL     1      10.827  25.938  29.809  1.00  0.00     0.116 A 
HETATM   13  C8  UNL     1      10.380  25.347  30.998  1.00  0.00     0.136 A 
HETATM   14  N3  UNL     1       9.292  24.563  31.025  1.00  0.00    -0.371 N 
HETATM   15  C9  UNL     1       8.587  24.317  29.903  1.00  0.00     0.104 A 
ATOM     16  H3  UNL     1       8.993  24.147  31.907  1.00  0.00     0.164 HD
HETATM   17  C10 UNL     1       9.008  24.888  28.726  1.00  0.00     0.106 A 
HETATM   18  N4  UNL     1      10.108  25.675  28.718  1.00  0.00    -0.350 N 
ATOM     19  H4  UNL     1      10.402  26.088  27.833  1.00  0.00     0.166 HD
ENDBRANCH   1  12
TORSDOF 4
ENDMDL
MODEL 2
REMARK VINA RESULT: -6.041399429      0.119      1.186
REMARK  4 active torsions:
REMARK  status: ('A' for Active; 'I' for Inactive)
REMARK    1  A    between atoms: C4_5  and  C5_6 
REMARK    2  A    between atoms: C5_6  and  C6_7 
REMARK    3  A    between atoms: C6_7  and  N2_8 
REMARK    4  A    between atoms: N2_8  and  C7_10 
ROOT
HETATM    1  N2  UNL     1      11.827  26.698  29.946  1.00  0.00    -0.375 N 
ATOM      2  H2  UNL     1      11.654  27.700  30.012  1.00  0.00     0.161 HD
ENDROOT
BRANCH   1   3
HETATM    3  C6  UNL     1      13.188  26.306  29.979  1.00  0.00     0.126 C 
BRANCH   3   4
HETATM    4  C5  UNL     1      13.840  26.697  31.285  1.00  0.00     0.058 C 
BRANCH   4   5
HETATM    5  C4  UNL     1      13.399  28.036  31.753  1.00  0.00    -0.057 A 
HETATM    6  C3  UNL     1      13.729  29.140  31.025  1.00  0.00     0.009 A 
HETATM    7  C2  UNL     1      13.359  30.424  31.388  1.00  0.00     0.027 A 
HETATM    8  C1  UNL     1      12.618  30.614  32.544  1.00  0.00     0.046 A 
HETATM    9  N1  UNL     1      12.198  31.887  32.991  1.00  0.00    -0.102 NA
HETATM   10  C12 UNL     1      12.280  29.489  33.290  1.00  0.00     0.027 A 
HETATM   11  C11 UNL     1      12.663  28.216  32.905  1.00  0.00     0.009 A 
ENDBRANCH   4   5
ENDBRANCH   3   4
ENDBRANCH   1   3
BRANCH   1  12
HETATM   12  C7  UNL     1      10.801  25.971  29.846  1.00  0.00     0.116 A 
HETATM   13  C8  UNL     1      10.353  25.339  31.014  1.00  0.00     0.136 A 
HETATM   14  N3  UNL     1       9.271  24.547  31.012  1.00  0.00    -0.371 N 
HETATM   15  C9  UNL     1       8.573  24.330  29.880  1.00  0.00     0.104 A 
ATOM     16  H3  UNL     1       8.972  24.102  31.880  1.00  0.00     0.164 HD
HETATM   17  C10 UNL     1       8.995  24.940  28.723  1.00  0.00     0.106 A 
HETATM   18  N4  UNL     1      10.088  25.736  28.744  1.00  0.00    -0.350 N 
ATOM     19  H4  UNL     1      10.383  26.178  27.873  1.00  0.00     0.166 HD
ENDBRANCH   1  12
TORSDOF 4
ENDMDL
MODEL 3
REMARK VINA RESULT: -5.993754470      4.630      6.770
REMARK  4 active torsions:
REMARK  status: ('A' for Active; 'I' for Inactive)
REMARK    1  A    between atoms: C4_5  and  C5_6 
REMARK    2  A    between atoms: C5_6  and  C6_7 
REMARK    3  A    between atoms: C6_7  and  N2_8 
REMARK    4  A    between atoms: N2_8  and  C7_10 
ROOT
HETATM    1  N2  UNL     1      10.445  29.174  33.935  1.00  0.00    -0.375 N 
ATOM      2  H2  UNL     1       9.505  28.949  33.610  1.00  0.00     0.161 HD
ENDROOT
BRANCH   1   3
HETATM    3  C6  UNL     1      10.623  29.178  35.340  1.00  0.00     0.126 C 
BRANCH   3   4
HETATM    4  C5  UNL     1       9.360  29.605  36.053  1.00  0.00     0.058 C 
BRANCH   4   5
HETATM    5  C4  UNL     1       9.644  30.466  37.230  1.00  0.00    -0.057 A 
HETATM    6  C3  UNL     1       9.689  29.907  38.471  1.00  0.00     0.009 A 
HETATM    7  C2  UNL     1       9.948  30.635  39.621  1.00  0.00     0.027 A 
HETATM    8  C1  UNL     1      10.172  32.000  39.521  1.00  0.00     0.046 A 
HETATM    9  N1  UNL     1      10.442  32.820  40.639  1.00  0.00    -0.102 NA
HETATM   10  C12 UNL     1      10.126  32.573  38.254  1.00  0.00     0.027 A 
HETATM   11  C11 UNL     1       9.866  31.823  37.122  1.00  0.00     0.009 A 
ENDBRANCH   4   5
ENDBRANCH   3   4
ENDBRANCH   1   3
BRANCH   1  12
HETATM   12  C7  UNL     1      11.293  29.412  33.033  1.00  0.00     0.116 A 
HETATM   13  C8  UNL     1      10.989  28.965  31.740  1.00  0.00     0.136 A 
HETATM   14  N3  UNL     1      11.827  29.170  30.712  1.00  0.00    -0.371 N 
HETATM   15  C9  UNL     1      12.995  29.817  30.889  1.00  0.00     0.104 A 
ATOM     16  H3  UNL     1      11.575  28.831  29.784  1.00  0.00     0.164 HD
HETATM   17  C10 UNL     1      13.313  30.265  32.149  1.00  0.00     0.106 A 
HETATM   18  N4  UNL     1      12.456  30.049  33.173  1.00  0.00    -0.350 N 
ATOM     19  H4  UNL     1      12.713  30.390  34.100  1.00  0.00     0.166 HD
ENDBRANCH   1  12
TORSDOF 4
ENDMDL
MODEL 4
REMARK VINA RESULT: -5.980682317      3.814      6.276
REMARK  4 active torsions:
REMARK  status: ('A' for Active; 'I' for Inactive)
REMARK    1  A    between atoms: C4_5  and  C5_6 
REMARK    2  A    between atoms: C5_6  and  C6_7 
REMARK    3  A    between atoms: C6_7  and  N2_8 
REMARK    4  A    between atoms: N2_8  and  C7_10 
ROOT
HETATM    1  N2  UNL     1      11.414  29.785  35.192  1.00  0.00    -0.375 N 
ATOM      2  H2  UNL     1      12.388  29.987  35.418  1.00  0.00     0.161 HD
ENDROOT
BRANCH   1   3
HETATM    3  C6  UNL     1      11.207  28.908  34.099  1.00  0.00     0.126 C 
BRANCH   3   4
HETATM    4  C5  UNL     1      12.507  28.290  33.637  1.00  0.00     0.058 C 
BRANCH   4   5
HETATM    5  C4  UNL     1      12.963  28.849  32.339  1.00  0.00    -0.057 A 
HETATM    6  C3  UNL     1      13.340  28.001  31.342  1.00  0.00     0.009 A 
HETATM    7  C2  UNL     1      13.778  28.437  30.102  1.00  0.00     0.027 A 
HETATM    8  C1  UNL     1      13.843  29.799  29.848  1.00  0.00     0.046 A 
HETATM    9  N1  UNL     1      14.278  30.333  28.614  1.00  0.00    -0.102 NA
HETATM   10  C12 UNL     1      13.459  30.667  30.865  1.00  0.00     0.027 A 
HETATM   11  C11 UNL     1      13.025  30.205  32.095  1.00  0.00     0.009 A 
ENDBRANCH   4   5
ENDBRANCH   3   4
ENDBRANCH   1   3
BRANCH   1  12
HETATM   12  C7  UNL     1      10.555  30.351  35.922  1.00  0.00     0.116 A 
HETATM   13  C8  UNL     1       9.360  29.656  36.151  1.00  0.00     0.136 A 
HETATM   14  N3  UNL     1       8.385  30.172  36.914  1.00  0.00    -0.371 N 
HETATM   15  C9  UNL     1       8.522  31.383  37.490  1.00  0.00     0.104 A 
ATOM     16  H3  UNL     1       7.527  29.641  37.060  1.00  0.00     0.164 HD
HETATM   17  C10 UNL     1       9.687  32.081  37.277  1.00  0.00     0.106 A 
HETATM   18  N4  UNL     1      10.659  31.545  36.505  1.00  0.00    -0.350 N 
ATOM     19  H4  UNL     1      11.515  32.081  36.362  1.00  0.00     0.166 HD
ENDBRANCH   1  12
TORSDOF 4
ENDMDL
MODEL 5
REMARK VINA RESULT: -5.962620545      3.801      6.271
REMARK  4 active torsions:
REMARK  status: ('A' for Active; 'I' for Inactive)
REMARK    1  A    between atoms: C4_5  and  C5_6 
REMARK    2  A    between atoms: C5_6  and  C6_7 
REMARK    3  A    between atoms: C6_7  and  N2_8 
REMARK    4  A    between atoms: N2_8  and  C7_10 
ROOT
HETATM    1  N2  UNL     1      11.417  29.736  35.206  1.00  0.00    -0.375 N 
ATOM      2  H2  UNL     1      12.387  29.848  35.498  1.00  0.00     0.161 HD
ENDROOT
BRANCH   1   3
HETATM    3  C6  UNL     1      11.212  28.947  34.047  1.00  0.00     0.126 C 
BRANCH   3   4
HETATM    4  C5  UNL     1      12.492  28.275  33.607  1.00  0.00     0.058 C 
BRANCH   4   5
HETATM    5  C4  UNL     1      12.966  28.779  32.292  1.00  0.00    -0.057 A 
HETATM    6  C3  UNL     1      13.001  30.122  32.065  1.00  0.00     0.009 A 
HETATM    7  C2  UNL     1      13.428  30.677  30.870  1.00  0.00     0.027 A 
HETATM    8  C1  UNL     1      13.842  29.840  29.845  1.00  0.00     0.046 A 
HETATM    9  N1  UNL     1      14.292  30.317  28.594  1.00  0.00    -0.102 NA
HETATM   10  C12 UNL     1      13.807  28.468  30.074  1.00  0.00     0.027 A 
HETATM   11  C11 UNL     1      13.376  27.940  31.278  1.00  0.00     0.009 A 
ENDBRANCH   4   5
ENDBRANCH   3   4
ENDBRANCH   1   3
BRANCH   1  12
HETATM   12  C7  UNL     1      10.559  30.318  35.924  1.00  0.00     0.116 A 
HETATM   13  C8  UNL     1       9.362  29.632  36.168  1.00  0.00     0.136 A 
HETATM   14  N3  UNL     1       8.388  30.165  36.919  1.00  0.00    -0.371 N 
HETATM   15  C9  UNL     1       8.528  31.388  37.470  1.00  0.00     0.104 A 
ATOM     16  H3  UNL     1       7.529  29.639  37.077  1.00  0.00     0.164 HD
HETATM   17  C10 UNL     1       9.695  32.078  37.244  1.00  0.00     0.106 A 
HETATM   18  N4  UNL     1      10.666  31.524  36.483  1.00  0.00    -0.350 N 
ATOM     19  H4  UNL     1      11.523  32.055  36.329  1.00  0.00     0.166 HD
ENDBRANCH   1  12
TORSDOF 4
ENDMDL
