MODEL 1
REMARK VINA RESULT: -5.963661107      0.000      0.000
REMARK  3 active torsions:
REMARK  status: ('A' for Active; 'I' for Inactive)
REMARK    1  A    between atoms: N1_2  and  C3_4 
REMARK    2  A    between atoms: C3_4  and  C4_5 
REMARK    3  A    between atoms: C4_5  and  C5_6 
ROOT
HETATM    1  C5  UNL     1      12.613  29.398  32.939  1.00  0.00    -0.030 A 
HETATM    2  C6  UNL     1      12.637  30.651  32.347  1.00  0.00     0.097 A 
HETATM    3  N2  UNL     1      12.940  30.802  31.049  1.00  0.00    -0.351 N 
ATOM      4  H2  UNL     1      12.950  31.738  30.645  1.00  0.00     0.166 HD
HETATM    5  C7  UNL     1      13.231  29.748  30.272  1.00  0.00     0.111 A 
HETATM    6  N3  UNL     1      13.531  29.893  29.005  1.00  0.00    -0.385 N 
ATOM      7  H31 UNL     1      13.752  29.091  28.414  1.00  0.00     0.157 HD
ATOM      8  H32 UNL     1      13.537  30.835  28.613  1.00  0.00     0.157 HD
HETATM    9  C8  UNL     1      13.224  28.482  30.798  1.00  0.00     0.034 A 
HETATM   10  C9  UNL     1      12.906  28.323  32.160  1.00  0.00    -0.012 A 
HETATM   11  C10 UNL     1      12.887  26.983  32.722  1.00  0.00     0.030 A 
HETATM   12  C11 UNL     1      13.172  25.970  31.923  1.00  0.00     0.088 A 
HETATM   13  N4  UNL     1      13.493  26.155  30.548  1.00  0.00    -0.374 N 
ATOM     14  H4  UNL     1      13.705  25.332  29.983  1.00  0.00     0.164 HD
HETATM   15  C12 UNL     1      13.528  27.311  29.984  1.00  0.00     0.103 A 
ENDROOT
BRANCH   1  16
HETATM   16  C4  UNL     1      12.315  29.255  34.358  1.00  0.00     0.060 C 
BRANCH  16  17
HETATM   17  C3  UNL     1      11.419  30.413  34.772  1.00  0.00     0.120 C 
BRANCH  17  18
HETATM   18  N1  UNL     1      10.404  29.941  35.686  1.00  0.00    -0.421 N 
HETATM   19  C1  UNL     1       9.396  29.161  35.068  1.00  0.00     0.142 C 
HETATM   20  C2  UNL     1       9.991  30.890  36.660  1.00  0.00     0.142 C 
ENDBRANCH  17  18
ENDBRANCH  16  17
ENDBRANCH   1  16
TORSDOF 3
ENDMDL
MODEL 2
REMARK VINA RESULT: -5.335034121      1.718      5.238
REMARK  3 active torsions:
REMARK  status: ('A' for Active; 'I' for Inactive)
REMARK    1  A    between atoms: N1_2  and  C3_4 
REMARK    2  A    between atoms: C3_4  and  C4_5 
REMARK    3  A    between atoms: C4_5  and  C5_6 
ROOT
HETATM    1  C5  UNL     1      13.158  26.988  32.138  1.00  0.00    -0.030 A 
HETATM    2  C6  UNL     1      12.615  26.826  33.403  1.00  0.00     0.097 A 
HETATM    3  N2  UNL     1      12.146  27.872  34.098  1.00  0.00    -0.351 N 
ATOM      4  H2  UNL     1      11.753  27.719  35.027  1.00  0.00     0.166 HD
HETATM    5  C7  UNL     1      12.183  29.117  33.600  1.00  0.00     0.111 A 
HETATM    6  N3  UNL     1      11.730  30.142  34.278  1.00  0.00    -0.385 N 
ATOM      7  H31 UNL     1      11.758  31.088  33.899  1.00  0.00     0.157 HD
ATOM      8  H32 UNL     1      11.340  29.973  35.206  1.00  0.00     0.157 HD
HETATM    9  C8  UNL     1      12.709  29.344  32.354  1.00  0.00     0.034 A 
HETATM   10  C9  UNL     1      13.200  28.246  31.622  1.00  0.00    -0.012 A 
HETATM   11  C10 UNL     1      13.750  28.477  30.297  1.00  0.00     0.030 A 
HETATM   12  C11 UNL     1      13.763  29.716  29.838  1.00  0.00     0.088 A 
HETATM   13  N4  UNL     1      13.262  30.812  30.596  1.00  0.00    -0.374 N 
ATOM     14  H4  UNL     1      13.301  31.745  30.186  1.00  0.00     0.164 HD
HETATM   15  C12 UNL     1      12.761  30.681  31.774  1.00  0.00     0.103 A 
ENDROOT
BRANCH   1  16
HETATM   16  C4  UNL     1      13.694  25.846  31.410  1.00  0.00     0.060 C 
BRANCH  16  17
HETATM   17  C3  UNL     1      12.537  24.918  31.069  1.00  0.00     0.120 C 
BRANCH  17  18
HETATM   18  N1  UNL     1      12.099  25.162  29.713  1.00  0.00    -0.421 N 
HETATM   19  C1  UNL     1      10.784  25.681  29.621  1.00  0.00     0.142 C 
HETATM   20  C2  UNL     1      12.474  24.161  28.777  1.00  0.00     0.142 C 
ENDBRANCH  17  18
ENDBRANCH  16  17
ENDBRANCH   1  16
TORSDOF 3
ENDMDL
MODEL 3
REMARK VINA RESULT: -5.306238394      1.654      5.887
REMARK  3 active torsions:
REMARK  status: ('A' for Active; 'I' for Inactive)
REMARK    1  A    between atoms: N1_2  and  C3_4 
REMARK    2  A    between atoms: C3_4  and  C4_5 
REMARK    3  A    between atoms: C4_5  and  C5_6 
ROOT
HETATM    1  C5  UNL     1      10.883  29.227  33.787  1.00  0.00    -0.030 A 
HETATM    2  C6  UNL     1      11.820  30.144  34.238  1.00  0.00     0.097 A 
HETATM    3  N2  UNL     1      11.612  30.859  35.353  1.00  0.00    -0.351 N 
ATOM      4  H2  UNL     1      12.321  31.526  35.657  1.00  0.00     0.166 HD
HETATM    5  C7  UNL     1      10.492  30.717  36.078  1.00  0.00     0.111 A 
HETATM    6  N3  UNL     1      10.285  31.417  37.165  1.00  0.00    -0.385 N 
ATOM      7  H31 UNL     1       9.433  31.308  37.716  1.00  0.00     0.157 HD
ATOM      8  H32 UNL     1      11.003  32.080  37.458  1.00  0.00     0.157 HD
HETATM    9  C8  UNL     1       9.527  29.826  35.684  1.00  0.00     0.034 A 
HETATM   10  C9  UNL     1       9.744  29.074  34.514  1.00  0.00    -0.012 A 
HETATM   11  C10 UNL     1       8.730  28.121  34.096  1.00  0.00     0.030 A 
HETATM   12  C11 UNL     1       7.643  28.004  34.840  1.00  0.00     0.088 A 
HETATM   13  N4  UNL     1       7.444  28.776  36.019  1.00  0.00    -0.374 N 
ATOM     14  H4  UNL     1       6.584  28.641  36.549  1.00  0.00     0.164 HD
HETATM   15  C12 UNL     1       8.299  29.637  36.448  1.00  0.00     0.103 A 
ENDROOT
BRANCH   1  16
HETATM   16  C4  UNL     1      11.109  28.483  32.555  1.00  0.00     0.060 C 
BRANCH  16  17
HETATM   17  C3  UNL     1      11.855  29.388  31.586  1.00  0.00     0.120 C 
BRANCH  17  18
HETATM   18  N1  UNL     1      12.908  28.642  30.935  1.00  0.00    -0.421 N 
HETATM   19  C1  UNL     1      13.567  27.721  31.787  1.00  0.00     0.142 C 
HETATM   20  C2  UNL     1      13.716  29.403  30.047  1.00  0.00     0.142 C 
ENDBRANCH  17  18
ENDBRANCH  16  17
ENDBRANCH   1  16
TORSDOF 3
ENDMDL
MODEL 4
REMARK VINA RESULT: -5.265493045      2.185      6.004
REMARK  3 active torsions:
REMARK  status: ('A' for Active; 'I' for Inactive)
REMARK    1  A    between atoms: N1_2  and  C3_4 
REMARK    2  A    between atoms: C3_4  and  C4_5 
REMARK    3  A    between atoms: C4_5  and  C5_6 
ROOT
HETATM    1  C5  UNL     1      13.484  26.814  31.424  1.00  0.00    -0.030 A 
HETATM    2  C6  UNL     1      13.003  26.321  32.627  1.00  0.00     0.097 A 
HETATM    3  N2  UNL     1      12.457  27.133  33.544  1.00  0.00    -0.351 N 
ATOM      4  H2  UNL     1      12.114  26.738  34.419  1.00  0.00     0.166 HD
HETATM    5  C7  UNL     1      12.353  28.454  33.335  1.00  0.00     0.111 A 
HETATM    6  N3  UNL     1      11.824  29.251  34.230  1.00  0.00    -0.385 N 
ATOM      7  H31 UNL     1      11.745  30.255  34.071  1.00  0.00     0.157 HD
ATOM      8  H32 UNL     1      11.484  28.841  35.101  1.00  0.00     0.157 HD
HETATM    9  C8  UNL     1      12.810  29.003  32.165  1.00  0.00     0.034 A 
HETATM   10  C9  UNL     1      13.383  28.152  31.201  1.00  0.00    -0.012 A 
HETATM   11  C10 UNL     1      13.861  28.726  29.955  1.00  0.00     0.030 A 
HETATM   12  C11 UNL     1      13.735  30.031  29.784  1.00  0.00     0.088 A 
HETATM   13  N4  UNL     1      13.153  30.873  30.773  1.00  0.00    -0.374 N 
ATOM     14  H4  UNL     1      13.085  31.873  30.581  1.00  0.00     0.164 HD
HETATM   15  C12 UNL     1      12.709  30.434  31.897  1.00  0.00     0.103 A 
ENDROOT
BRANCH   1  16
HETATM   16  C4  UNL     1      14.105  25.923  30.453  1.00  0.00     0.060 C 
BRANCH  16  17
HETATM   17  C3  UNL     1      15.334  25.302  31.101  1.00  0.00     0.120 C 
BRANCH  17  18
HETATM   18  N1  UNL     1      16.123  24.624  30.097  1.00  0.00    -0.421 N 
HETATM   19  C1  UNL     1      15.351  24.017  29.076  1.00  0.00     0.142 C 
HETATM   20  C2  UNL     1      17.229  23.889  30.604  1.00  0.00     0.142 C 
ENDBRANCH  17  18
ENDBRANCH  16  17
ENDBRANCH   1  16
TORSDOF 3
ENDMDL
MODEL 5
REMARK VINA RESULT: -5.251164931      1.600      1.705
REMARK  3 active torsions:
REMARK  status: ('A' for Active; 'I' for Inactive)
REMARK    1  A    between atoms: N1_2  and  C3_4 
REMARK    2  A    between atoms: C3_4  and  C4_5 
REMARK    3  A    between atoms: C4_5  and  C5_6 
ROOT
HETATM    1  C5  UNL     1      11.548  29.435  33.755  1.00  0.00    -0.030 A 
HETATM    2  C6  UNL     1      12.190  30.564  33.272  1.00  0.00     0.097 A 
HETATM    3  N2  UNL     1      12.614  30.634  32.002  1.00  0.00    -0.351 N 
ATOM      4  H2  UNL     1      13.083  31.480  31.679  1.00  0.00     0.166 HD
HETATM    5  C7  UNL     1      12.435  29.616  31.147  1.00  0.00     0.111 A 
HETATM    6  N3  UNL     1      12.851  29.680  29.907  1.00  0.00    -0.385 N 
ATOM      7  H31 UNL     1      12.715  28.906  29.257  1.00  0.00     0.157 HD
ATOM      8  H32 UNL     1      13.319  30.532  29.597  1.00  0.00     0.157 HD
HETATM    9  C8  UNL     1      11.807  28.471  31.563  1.00  0.00     0.034 A 
HETATM   10  C9  UNL     1      11.360  28.396  32.897  1.00  0.00    -0.012 A 
HETATM   11  C10 UNL     1      10.685  27.189  33.342  1.00  0.00     0.030 A 
HETATM   12  C11 UNL     1      10.521  26.210  32.469  1.00  0.00     0.088 A 
HETATM   13  N4  UNL     1      10.982  26.307  31.126  1.00  0.00    -0.374 N 
ATOM     14  H4  UNL     1      10.826  25.517  30.500  1.00  0.00     0.164 HD
HETATM   15  C12 UNL     1      11.586  27.345  30.663  1.00  0.00     0.103 A 
ENDROOT
BRANCH   1  16
HETATM   16  C4  UNL     1      11.124  29.361  35.146  1.00  0.00     0.060 C 
BRANCH  16  17
HETATM   17  C3  UNL     1      10.763  30.767  35.605  1.00  0.00     0.120 C 
BRANCH  17  18
HETATM   18  N1  UNL     1       9.958  30.697  36.804  1.00  0.00    -0.421 N 
HETATM   19  C1  UNL     1       8.723  30.028  36.624  1.00  0.00     0.142 C 
HETATM   20  C2  UNL     1       9.952  31.883  37.587  1.00  0.00     0.142 C 
ENDBRANCH  17  18
ENDBRANCH  16  17
ENDBRANCH   1  16
TORSDOF 3
ENDMDL
