MODEL 1
REMARK VINA RESULT: -7.167151497      0.000      0.000
REMARK  8 active torsions:
REMARK  status: ('A' for Active; 'I' for Inactive)
REMARK    1  A    between atoms: C3_3  and  C4_4 
REMARK    2  A    between atoms: C4_4  and  C5_5 
REMARK    3  A    between atoms: C5_5  and  C7_7 
REMARK    4  A    between atoms: C14_14  and  O1_15 
REMARK    5  A    between atoms: C14_14  and  C15_17 
REMARK    6  A    between atoms: C15_17  and  N1_18 
REMARK    7  A    between atoms: N2_21  and  C18_22 
REMARK    8  A    between atoms: C21_25  and  O2_26 
ROOT
HETATM    1  C7  UNL     1       5.367   9.660  20.302  1.00  0.00     0.023 C 
HETATM    2  C8  UNL     1       6.824   9.749  20.491  1.00  0.00    -0.007 C 
HETATM    3  C9  UNL     1       7.418   8.499  19.820  1.00  0.00     0.010 C 
HETATM    4  C10 UNL     1       6.907   7.343  20.622  1.00  0.00    -0.003 C 
HETATM    5  C11 UNL     1       7.757   7.338  21.867  1.00  0.00     0.013 C 
HETATM    6  C12 UNL     1       7.625   8.624  22.648  1.00  0.00     0.028 C 
HETATM    7  C13 UNL     1       7.356   9.839  21.873  1.00  0.00     0.013 C 
HETATM    8  C14 UNL     1       6.718   8.374  23.830  1.00  0.00     0.134 C 
HETATM    9  C21 UNL     1       5.273   8.173  23.451  1.00  0.00     0.195 C 
HETATM   10  C22 UNL     1       4.900   6.723  23.238  1.00  0.00     0.073 C 
HETATM   11  C23 UNL     1       5.145   6.216  21.864  1.00  0.00     0.017 C 
HETATM   12  C24 UNL     1       5.453   7.297  20.853  1.00  0.00    -0.013 C 
HETATM   13  C25 UNL     1       4.817   6.830  19.537  1.00  0.00     0.018 C 
HETATM   14  C26 UNL     1       4.787   8.582  21.202  1.00  0.00     0.138 C 
HETATM   15  O3  UNL     1       4.832   8.997  22.466  1.00  0.00    -0.346 OA
ENDROOT
BRANCH   8  16
HETATM   16  O1  UNL     1       7.149   7.129  24.361  1.00  0.00    -0.382 OA
ATOM     17  H1  UNL     1       6.540   6.942  25.065  1.00  0.00     0.210 HD
ENDBRANCH   8  16
BRANCH   8  18
HETATM   18  C15 UNL     1       6.872   9.349  24.951  1.00  0.00     0.173 C 
BRANCH  18  19
HETATM   19  N1  UNL     1       7.487   8.855  26.138  1.00  0.00    -0.348 N 
HETATM   20  C16 UNL     1       8.736   8.347  26.232  1.00  0.00     0.109 A 
HETATM   21  C17 UNL     1       8.961   7.967  27.532  1.00  0.00     0.109 A 
HETATM   22  N2  UNL     1       7.847   8.247  28.225  1.00  0.00    -0.352 N 
HETATM   23  C20 UNL     1       6.971   8.778  27.383  1.00  0.00     0.185 A 
BRANCH  22  24
HETATM   24  C18 UNL     1       7.693   7.985  29.665  1.00  0.00     0.124 C 
HETATM   25  C19 UNL     1       8.995   8.021  30.390  1.00  0.00     0.027 C 
ENDBRANCH  22  24
ENDBRANCH  18  19
ENDBRANCH   8  18
BRANCH   9  26
HETATM   26  O2  UNL     1       4.546   8.561  24.613  1.00  0.00    -0.363 OA
ATOM     27  H2  UNL     1       4.258   9.446  24.424  1.00  0.00     0.213 HD
ENDBRANCH   9  26
BRANCH   1  28
HETATM   28  C5  UNL     1       4.570  10.896  20.234  1.00  0.00    -0.008 C 
HETATM   29  C6  UNL     1       4.957  11.948  19.273  1.00  0.00     0.011 C 
BRANCH  28  30
HETATM   30  C4  UNL     1       3.089  10.589  19.969  1.00  0.00     0.031 C 
BRANCH  30  31
HETATM   31  C3  UNL     1       2.713  10.877  18.586  1.00  0.00    -0.031 C 
HETATM   32  C2  UNL     1       2.058   9.982  17.876  1.00  0.00    -0.035 C 
HETATM   33  C1  UNL     1       1.697   8.662  18.486  1.00  0.00     0.036 C 
ENDBRANCH  30  31
ENDBRANCH  28  30
ENDBRANCH   1  28
TORSDOF 8
ENDMDL
MODEL 2
REMARK VINA RESULT: -7.044851997      1.438      2.048
REMARK  8 active torsions:
REMARK  status: ('A' for Active; 'I' for Inactive)
REMARK    1  A    between atoms: C3_3  and  C4_4 
REMARK    2  A    between atoms: C4_4  and  C5_5 
REMARK    3  A    between atoms: C5_5  and  C7_7 
REMARK    4  A    between atoms: C14_14  and  O1_15 
REMARK    5  A    between atoms: C14_14  and  C15_17 
REMARK    6  A    between atoms: C15_17  and  N1_18 
REMARK    7  A    between atoms: N2_21  and  C18_22 
REMARK    8  A    between atoms: C21_25  and  O2_26 
ROOT
HETATM    1  C7  UNL     1       4.905   9.265  20.348  1.00  0.00     0.023 C 
HETATM    2  C8  UNL     1       5.499  10.174  21.342  1.00  0.00    -0.007 C 
HETATM    3  C9  UNL     1       6.958  10.388  20.906  1.00  0.00     0.010 C 
HETATM    4  C10 UNL     1       7.608   9.046  21.044  1.00  0.00    -0.003 C 
HETATM    5  C11 UNL     1       7.851   8.890  22.524  1.00  0.00     0.013 C 
HETATM    6  C12 UNL     1       6.566   8.940  23.317  1.00  0.00     0.028 C 
HETATM    7  C13 UNL     1       5.488   9.769  22.770  1.00  0.00     0.013 C 
HETATM    8  C14 UNL     1       6.190   7.529  23.705  1.00  0.00     0.134 C 
HETATM    9  C21 UNL     1       5.725   6.687  22.544  1.00  0.00     0.195 C 
HETATM   10  C22 UNL     1       6.834   5.894  21.891  1.00  0.00     0.073 C 
HETATM   11  C23 UNL     1       7.576   6.623  20.832  1.00  0.00     0.017 C 
HETATM   12  C24 UNL     1       6.922   7.914  20.398  1.00  0.00    -0.013 C 
HETATM   13  C25 UNL     1       7.202   8.038  18.893  1.00  0.00     0.018 C 
HETATM   14  C26 UNL     1       5.441   7.856  20.540  1.00  0.00     0.138 C 
HETATM   15  O3  UNL     1       4.932   7.343  21.658  1.00  0.00    -0.346 OA
ENDROOT
BRANCH   8  16
HETATM   16  O1  UNL     1       7.404   6.938  24.142  1.00  0.00    -0.382 OA
ATOM     17  H1  UNL     1       7.751   6.501  23.373  1.00  0.00     0.210 HD
ENDBRANCH   8  16
BRANCH   8  18
HETATM   18  C15 UNL     1       5.265   7.430  24.874  1.00  0.00     0.173 C 
BRANCH  18  19
HETATM   19  N1  UNL     1       5.824   7.739  26.148  1.00  0.00    -0.348 N 
HETATM   20  C16 UNL     1       5.789   8.943  26.759  1.00  0.00     0.109 A 
HETATM   21  C17 UNL     1       6.444   8.847  27.963  1.00  0.00     0.109 A 
HETATM   22  N2  UNL     1       6.874   7.582  28.080  1.00  0.00    -0.352 N 
HETATM   23  C20 UNL     1       6.499   6.926  26.989  1.00  0.00     0.185 A 
BRANCH  22  24
HETATM   24  C18 UNL     1       7.625   7.077  29.240  1.00  0.00     0.124 C 
HETATM   25  C19 UNL     1       8.324   8.166  29.980  1.00  0.00     0.027 C 
ENDBRANCH  22  24
ENDBRANCH  18  19
ENDBRANCH   8  18
BRANCH   9  26
HETATM   26  O2  UNL     1       4.883   5.703  23.137  1.00  0.00    -0.363 OA
ATOM     27  H2  UNL     1       5.411   4.914  23.141  1.00  0.00     0.213 HD
ENDBRANCH   9  26
BRANCH   1  28
HETATM   28  C5  UNL     1       3.460   9.338  20.074  1.00  0.00    -0.008 C 
HETATM   29  C6  UNL     1       2.807  10.661  20.008  1.00  0.00     0.011 C 
BRANCH  28  30
HETATM   30  C4  UNL     1       3.105   8.613  18.767  1.00  0.00     0.031 C 
BRANCH  30  31
HETATM   31  C3  UNL     1       1.702   8.807  18.401  1.00  0.00    -0.031 C 
HETATM   32  C2  UNL     1       0.986   7.795  17.959  1.00  0.00    -0.035 C 
HETATM   33  C1  UNL     1       1.607   6.439  17.830  1.00  0.00     0.036 C 
ENDBRANCH  30  31
ENDBRANCH  28  30
ENDBRANCH   1  28
TORSDOF 8
ENDMDL
MODEL 3
REMARK VINA RESULT: -6.934391358      1.595      2.345
REMARK  8 active torsions:
REMARK  status: ('A' for Active; 'I' for Inactive)
REMARK    1  A    between atoms: C3_3  and  C4_4 
REMARK    2  A    between atoms: C4_4  and  C5_5 
REMARK    3  A    between atoms: C5_5  and  C7_7 
REMARK    4  A    between atoms: C14_14  and  O1_15 
REMARK    5  A    between atoms: C14_14  and  C15_17 
REMARK    6  A    between atoms: C15_17  and  N1_18 
REMARK    7  A    between atoms: N2_21  and  C18_22 
REMARK    8  A    between atoms: C21_25  and  O2_26 
ROOT
HETATM    1  C7  UNL     1       4.709   9.723  20.264  1.00  0.00     0.023 C 
HETATM    2  C8  UNL     1       5.498  10.282  21.373  1.00  0.00    -0.007 C 
HETATM    3  C9  UNL     1       6.917  10.499  20.820  1.00  0.00     0.010 C 
HETATM    4  C10 UNL     1       7.433   9.126  20.517  1.00  0.00    -0.003 C 
HETATM    5  C11 UNL     1       7.814   8.557  21.860  1.00  0.00     0.013 C 
HETATM    6  C12 UNL     1       6.634   8.484  22.800  1.00  0.00     0.028 C 
HETATM    7  C13 UNL     1       5.597   9.507  22.634  1.00  0.00     0.013 C 
HETATM    8  C14 UNL     1       6.154   7.051  22.852  1.00  0.00     0.134 C 
HETATM    9  C21 UNL     1       5.481   6.593  21.584  1.00  0.00     0.195 C 
HETATM   10  C22 UNL     1       6.424   5.928  20.607  1.00  0.00     0.073 C 
HETATM   11  C23 UNL     1       7.122   6.861  19.686  1.00  0.00     0.017 C 
HETATM   12  C24 UNL     1       6.565   8.266  19.694  1.00  0.00    -0.013 C 
HETATM   13  C25 UNL     1       6.694   8.772  18.251  1.00  0.00     0.018 C 
HETATM   14  C26 UNL     1       5.110   8.280  20.009  1.00  0.00     0.138 C 
HETATM   15  O3  UNL     1       4.672   7.520  21.012  1.00  0.00    -0.346 OA
ENDROOT
BRANCH   8  16
HETATM   16  O1  UNL     1       7.340   6.277  22.957  1.00  0.00    -0.382 OA
ATOM     17  H1  UNL     1       7.964   6.712  22.388  1.00  0.00     0.210 HD
ENDBRANCH   8  16
BRANCH   8  18
HETATM   18  C15 UNL     1       5.355   6.707  24.066  1.00  0.00     0.173 C 
BRANCH  18  19
HETATM   19  N1  UNL     1       5.970   6.975  25.324  1.00  0.00    -0.348 N 
HETATM   20  C16 UNL     1       6.875   6.190  25.948  1.00  0.00     0.109 A 
HETATM   21  C17 UNL     1       7.222   6.778  27.140  1.00  0.00     0.109 A 
HETATM   22  N2  UNL     1       6.527   7.921  27.235  1.00  0.00    -0.352 N 
HETATM   23  C20 UNL     1       5.781   8.031  26.144  1.00  0.00     0.185 A 
BRANCH  22  24
HETATM   24  C18 UNL     1       6.623   8.844  28.377  1.00  0.00     0.124 C 
HETATM   25  C19 UNL     1       7.586   8.367  29.411  1.00  0.00     0.027 C 
ENDBRANCH  22  24
ENDBRANCH  18  19
ENDBRANCH   8  18
BRANCH   9  26
HETATM   26  O2  UNL     1       4.609   5.549  22.005  1.00  0.00    -0.363 OA
ATOM     27  H2  UNL     1       3.931   5.527  21.340  1.00  0.00     0.213 HD
ENDBRANCH   9  26
BRANCH   1  28
HETATM   28  C5  UNL     1       3.259   9.973  20.210  1.00  0.00    -0.008 C 
HETATM   29  C6  UNL     1       2.654  10.903  21.185  1.00  0.00     0.011 C 
BRANCH  28  30
HETATM   30  C4  UNL     1       2.830  10.465  18.819  1.00  0.00     0.031 C 
BRANCH  30  31
HETATM   31  C3  UNL     1       3.842  11.328  18.212  1.00  0.00    -0.031 C 
HETATM   32  C2  UNL     1       3.560  12.581  17.924  1.00  0.00    -0.035 C 
HETATM   33  C1  UNL     1       2.197  13.127  18.220  1.00  0.00     0.036 C 
ENDBRANCH  30  31
ENDBRANCH  28  30
ENDBRANCH   1  28
TORSDOF 8
ENDMDL
MODEL 4
REMARK VINA RESULT: -6.909153305      1.529      2.351
REMARK  8 active torsions:
REMARK  status: ('A' for Active; 'I' for Inactive)
REMARK    1  A    between atoms: C3_3  and  C4_4 
REMARK    2  A    between atoms: C4_4  and  C5_5 
REMARK    3  A    between atoms: C5_5  and  C7_7 
REMARK    4  A    between atoms: C14_14  and  O1_15 
REMARK    5  A    between atoms: C14_14  and  C15_17 
REMARK    6  A    between atoms: C15_17  and  N1_18 
REMARK    7  A    between atoms: N2_21  and  C18_22 
REMARK    8  A    between atoms: C21_25  and  O2_26 
ROOT
HETATM    1  C7  UNL     1       4.700   9.150  19.683  1.00  0.00     0.023 C 
HETATM    2  C8  UNL     1       5.487   9.914  20.664  1.00  0.00    -0.007 C 
HETATM    3  C9  UNL     1       6.903  10.034  20.075  1.00  0.00     0.010 C 
HETATM    4  C10 UNL     1       7.430   8.634  20.034  1.00  0.00    -0.003 C 
HETATM    5  C11 UNL     1       7.820   8.331  21.458  1.00  0.00     0.013 C 
HETATM    6  C12 UNL     1       6.643   8.426  22.400  1.00  0.00     0.028 C 
HETATM    7  C13 UNL     1       5.596   9.391  22.049  1.00  0.00     0.013 C 
HETATM    8  C14 UNL     1       6.176   7.025  22.723  1.00  0.00     0.134 C 
HETATM    9  C21 UNL     1       5.503   6.331  21.566  1.00  0.00     0.195 C 
HETATM   10  C22 UNL     1       6.450   5.501  20.728  1.00  0.00     0.073 C 
HETATM   11  C23 UNL     1       7.137   6.250  19.646  1.00  0.00     0.017 C 
HETATM   12  C24 UNL     1       6.568   7.627  19.391  1.00  0.00    -0.013 C 
HETATM   13  C25 UNL     1       6.689   7.853  17.877  1.00  0.00     0.018 C 
HETATM   14  C26 UNL     1       5.113   7.688  19.704  1.00  0.00     0.138 C 
HETATM   15  O3  UNL     1       4.685   7.127  20.833  1.00  0.00    -0.346 OA
ENDROOT
BRANCH   8  16
HETATM   16  O1  UNL     1       7.368   6.294  22.967  1.00  0.00    -0.382 OA
ATOM     17  H1  UNL     1       7.085   5.524  23.447  1.00  0.00     0.210 HD
ENDBRANCH   8  16
BRANCH   8  18
HETATM   18  C15 UNL     1       5.382   6.909  23.983  1.00  0.00     0.173 C 
BRANCH  18  19
HETATM   19  N1  UNL     1       5.904   7.589  25.122  1.00  0.00    -0.348 N 
HETATM   20  C16 UNL     1       5.394   8.708  25.681  1.00  0.00     0.109 A 
HETATM   21  C17 UNL     1       6.180   9.065  26.750  1.00  0.00     0.109 A 
HETATM   22  N2  UNL     1       7.165   8.159  26.838  1.00  0.00    -0.352 N 
HETATM   23  C20 UNL     1       6.992   7.280  25.860  1.00  0.00     0.185 A 
BRANCH  22  24
HETATM   24  C18 UNL     1       8.220   8.195  27.863  1.00  0.00     0.124 C 
HETATM   25  C19 UNL     1       7.666   8.332  29.241  1.00  0.00     0.027 C 
ENDBRANCH  22  24
ENDBRANCH  18  19
ENDBRANCH   8  18
BRANCH   9  26
HETATM   26  O2  UNL     1       4.641   5.378  22.180  1.00  0.00    -0.363 OA
ATOM     27  H2  UNL     1       4.197   4.960  21.452  1.00  0.00     0.213 HD
ENDBRANCH   9  26
BRANCH   1  28
HETATM   28  C5  UNL     1       3.247   9.373  19.589  1.00  0.00    -0.008 C 
HETATM   29  C6  UNL     1       2.742  10.753  19.434  1.00  0.00     0.011 C 
BRANCH  28  30
HETATM   30  C4  UNL     1       2.631   8.554  18.446  1.00  0.00     0.031 C 
BRANCH  30  31
HETATM   31  C3  UNL     1       1.170   8.592  18.475  1.00  0.00    -0.031 C 
HETATM   32  C2  UNL     1       0.472   7.505  18.222  1.00  0.00    -0.035 C 
HETATM   33  C1  UNL     1       1.176   6.222  17.902  1.00  0.00     0.036 C 
ENDBRANCH  30  31
ENDBRANCH  28  30
ENDBRANCH   1  28
TORSDOF 8
ENDMDL
MODEL 5
REMARK VINA RESULT: -6.611932056      1.881      3.544
REMARK  8 active torsions:
REMARK  status: ('A' for Active; 'I' for Inactive)
REMARK    1  A    between atoms: C3_3  and  C4_4 
REMARK    2  A    between atoms: C4_4  and  C5_5 
REMARK    3  A    between atoms: C5_5  and  C7_7 
REMARK    4  A    between atoms: C14_14  and  O1_15 
REMARK    5  A    between atoms: C14_14  and  C15_17 
REMARK    6  A    between atoms: C15_17  and  N1_18 
REMARK    7  A    between atoms: N2_21  and  C18_22 
REMARK    8  A    between atoms: C21_25  and  O2_26 
ROOT
HETATM    1  C7  UNL     1       7.628   9.066  19.786  1.00  0.00     0.023 C 
HETATM    2  C8  UNL     1       7.784   7.946  20.727  1.00  0.00    -0.007 C 
HETATM    3  C9  UNL     1       6.740   6.894  20.317  1.00  0.00     0.010 C 
HETATM    4  C10 UNL     1       5.413   7.542  20.568  1.00  0.00    -0.003 C 
HETATM    5  C11 UNL     1       5.223   7.455  22.061  1.00  0.00     0.013 C 
HETATM    6  C12 UNL     1       6.316   8.177  22.813  1.00  0.00     0.028 C 
HETATM    7  C13 UNL     1       7.637   8.213  22.180  1.00  0.00     0.013 C 
HETATM    8  C14 UNL     1       5.770   9.503  23.291  1.00  0.00     0.134 C 
HETATM    9  C21 UNL     1       5.543  10.498  22.181  1.00  0.00     0.195 C 
HETATM   10  C22 UNL     1       4.141  10.463  21.617  1.00  0.00     0.073 C 
HETATM   11  C23 UNL     1       3.936   9.475  20.528  1.00  0.00     0.017 C 
HETATM   12  C24 UNL     1       5.216   8.881  19.986  1.00  0.00    -0.013 C 
HETATM   13  C25 UNL     1       4.973   8.671  18.484  1.00  0.00     0.018 C 
HETATM   14  C26 UNL     1       6.354   9.835  20.092  1.00  0.00     0.138 C 
HETATM   15  O3  UNL     1       6.511  10.508  21.231  1.00  0.00    -0.346 OA
ENDROOT
BRANCH   8  16
HETATM   16  O1  UNL     1       4.480   9.201  23.802  1.00  0.00    -0.382 OA
ATOM     17  H1  UNL     1       4.445   9.638  24.644  1.00  0.00     0.210 HD
ENDBRANCH   8  16
BRANCH   8  18
HETATM   18  C15 UNL     1       6.512  10.105  24.439  1.00  0.00     0.173 C 
BRANCH  18  19
HETATM   19  N1  UNL     1       6.781   9.240  25.540  1.00  0.00    -0.348 N 
HETATM   20  C16 UNL     1       5.899   8.876  26.497  1.00  0.00     0.109 A 
HETATM   21  C17 UNL     1       6.533   8.046  27.389  1.00  0.00     0.109 A 
HETATM   22  N2  UNL     1       7.800   7.907  26.969  1.00  0.00    -0.352 N 
HETATM   23  C20 UNL     1       7.939   8.624  25.862  1.00  0.00     0.185 A 
BRANCH  22  24
HETATM   24  C18 UNL     1       8.806   7.087  27.663  1.00  0.00     0.124 C 
HETATM   25  C19 UNL     1       9.535   7.854  28.713  1.00  0.00     0.027 C 
ENDBRANCH  22  24
ENDBRANCH  18  19
ENDBRANCH   8  18
BRANCH   9  26
HETATM   26  O2  UNL     1       5.639  11.767  22.821  1.00  0.00    -0.363 OA
ATOM     27  H2  UNL     1       6.423  11.703  23.353  1.00  0.00     0.213 HD
ENDBRANCH   9  26
BRANCH   1  28
HETATM   28  C5  UNL     1       8.791   9.912  19.469  1.00  0.00    -0.008 C 
HETATM   29  C6  UNL     1      10.055   9.268  19.055  1.00  0.00     0.011 C 
BRANCH  28  30
HETATM   30  C4  UNL     1       8.451  10.939  18.379  1.00  0.00     0.031 C 
BRANCH  30  31
HETATM   31  C3  UNL     1       9.346  12.095  18.423  1.00  0.00    -0.031 C 
HETATM   32  C2  UNL     1       8.929  13.238  18.925  1.00  0.00    -0.035 C 
HETATM   33  C1  UNL     1       7.533  13.358  19.454  1.00  0.00     0.036 C 
ENDBRANCH  30  31
ENDBRANCH  28  30
ENDBRANCH   1  28
TORSDOF 8
ENDMDL
