MODEL 1
REMARK VINA RESULT: -9.694035822      0.000      0.000
REMARK  6 active torsions:
REMARK  status: ('A' for Active; 'I' for Inactive)
REMARK    1  A    between atoms: C1_2  and  C2_3 
REMARK       I    between atoms: C1_2  and  N2_16 
REMARK    2  A    between atoms: C2_3  and  S1_4 
REMARK    3  A    between atoms: S1_4  and  C3_5 
REMARK    4  A    between atoms: C3_5  and  C4_6 
REMARK       I    between atoms: C4_6  and  N1_8 
REMARK    5  A    between atoms: N1_8  and  C5_10 
REMARK    6  A    between atoms: C12_23  and  C13_24 
ROOT
HETATM    1  O1  UNL     1       7.625   9.034  25.175  1.00  0.00    -0.272 OA
HETATM    2  C1  UNL     1       7.320   8.203  26.087  1.00  0.00     0.232 C 
HETATM    3  N2  UNL     1       7.030   8.710  27.378  1.00  0.00    -0.305 N 
ATOM      4  H2  UNL     1       6.224   9.307  27.560  1.00  0.00     0.171 HD
HETATM    5  C11 UNL     1       7.869   8.358  28.324  1.00  0.00     0.167 A 
HETATM    6  N3  UNL     1       7.888   8.652  29.629  1.00  0.00    -0.279 N 
ATOM      7  H3  UNL     1       7.171   9.256  30.032  1.00  0.00     0.189 HD
HETATM    8  N4  UNL     1       8.810   8.169  30.362  1.00  0.00    -0.295 N 
ATOM      9  H4  UNL     1       8.831   8.389  31.357  1.00  0.00     0.187 HD
HETATM   10  C12 UNL     1       9.739   7.385  29.846  1.00  0.00     0.078 A 
HETATM   11  S2  UNL     1       9.262   7.344  28.209  1.00  0.00    -0.037 SA
ENDROOT
BRANCH   2  12
HETATM   12  C2  UNL     1       7.283   6.791  25.792  1.00  0.00     0.177 C 
BRANCH  12  13
HETATM   13  S1  UNL     1       5.702   6.191  25.228  1.00  0.00    -0.150 SA
BRANCH  13  14
HETATM   14  C3  UNL     1       5.696   5.642  23.559  1.00  0.00     0.177 C 
BRANCH  14  15
HETATM   15  C4  UNL     1       5.427   6.623  22.492  1.00  0.00     0.227 C 
HETATM   16  O2  UNL     1       4.735   6.336  21.518  1.00  0.00    -0.273 OA
HETATM   17  N1  UNL     1       6.005   7.899  22.638  1.00  0.00    -0.356 N 
ATOM     18  H1  UNL     1       6.551   8.103  23.475  1.00  0.00     0.162 HD
BRANCH  17  19
HETATM   19  C5  UNL     1       5.843   8.934  21.628  1.00  0.00     0.084 C 
HETATM   20  C6  UNL     1       7.080   9.842  21.624  1.00  0.00     0.025 C 
HETATM   21  C7  UNL     1       6.703  11.264  21.285  1.00  0.00     0.002 C 
HETATM   22  C8  UNL     1       5.653  11.291  20.183  1.00  0.00     0.000 C 
HETATM   23  C9  UNL     1       4.369  10.622  20.638  1.00  0.00     0.002 C 
HETATM   24  C10 UNL     1       4.613   9.803  21.889  1.00  0.00     0.025 C 
ENDBRANCH  17  19
ENDBRANCH  14  15
ENDBRANCH  13  14
ENDBRANCH  12  13
ENDBRANCH   2  12
BRANCH  10  25
HETATM   25  C13 UNL     1      10.908   6.663  30.428  1.00  0.00     0.011 C 
HETATM   26  C14 UNL     1      11.276   7.465  31.673  1.00  0.00     0.021 C 
HETATM   27  C15 UNL     1      12.362   6.772  32.422  1.00  0.00    -0.013 C 
HETATM   28  C16 UNL     1      13.603   6.556  31.603  1.00  0.00     0.009 C 
HETATM   29  C20 UNL     1      11.832   5.389  32.811  1.00  0.00     0.009 C 
HETATM   30  C17 UNL     1      13.199   5.917  30.293  1.00  0.00    -0.013 C 
HETATM   31  C18 UNL     1      12.766   4.505  30.654  1.00  0.00     0.009 C 
HETATM   32  C22 UNL     1      12.122   6.662  29.558  1.00  0.00     0.021 C 
HETATM   33  C19 UNL     1      11.580   4.590  31.571  1.00  0.00    -0.013 C 
HETATM   34  C21 UNL     1      10.472   5.270  30.800  1.00  0.00     0.021 C 
ENDBRANCH  10  25
TORSDOF 6
ENDMDL
MODEL 2
REMARK VINA RESULT: -9.634940016      0.201      1.347
REMARK  6 active torsions:
REMARK  status: ('A' for Active; 'I' for Inactive)
REMARK    1  A    between atoms: C1_2  and  C2_3 
REMARK       I    between atoms: C1_2  and  N2_16 
REMARK    2  A    between atoms: C2_3  and  S1_4 
REMARK    3  A    between atoms: S1_4  and  C3_5 
REMARK    4  A    between atoms: C3_5  and  C4_6 
REMARK       I    between atoms: C4_6  and  N1_8 
REMARK    5  A    between atoms: N1_8  and  C5_10 
REMARK    6  A    between atoms: C12_23  and  C13_24 
ROOT
HETATM    1  O1  UNL     1       7.621   8.946  25.168  1.00  0.00    -0.272 OA
HETATM    2  C1  UNL     1       7.307   8.128  26.087  1.00  0.00     0.232 C 
HETATM    3  N2  UNL     1       6.936   8.656  27.349  1.00  0.00    -0.305 N 
ATOM      4  H2  UNL     1       6.100   9.224  27.477  1.00  0.00     0.171 HD
HETATM    5  C11 UNL     1       7.744   8.363  28.342  1.00  0.00     0.167 A 
HETATM    6  N3  UNL     1       7.689   8.691  29.638  1.00  0.00    -0.279 N 
ATOM      7  H3  UNL     1       6.932   9.276  29.990  1.00  0.00     0.189 HD
HETATM    8  N4  UNL     1       8.594   8.265  30.425  1.00  0.00    -0.295 N 
ATOM      9  H4  UNL     1       8.560   8.511  31.414  1.00  0.00     0.187 HD
HETATM   10  C12 UNL     1       9.577   7.506  29.974  1.00  0.00     0.078 A 
HETATM   11  S2  UNL     1       9.179   7.403  28.319  1.00  0.00    -0.037 SA
ENDROOT
BRANCH   2  12
HETATM   12  C2  UNL     1       7.339   6.708  25.830  1.00  0.00     0.177 C 
BRANCH  12  13
HETATM   13  S1  UNL     1       5.797   6.022  25.258  1.00  0.00    -0.150 SA
BRANCH  13  14
HETATM   14  C3  UNL     1       5.820   5.507  23.578  1.00  0.00     0.177 C 
BRANCH  14  15
HETATM   15  C4  UNL     1       5.498   6.495  22.531  1.00  0.00     0.227 C 
HETATM   16  O2  UNL     1       4.773   6.209  21.582  1.00  0.00    -0.273 OA
HETATM   17  N1  UNL     1       6.067   7.776  22.667  1.00  0.00    -0.356 N 
ATOM     18  H1  UNL     1       6.643   7.979  23.484  1.00  0.00     0.162 HD
BRANCH  17  19
HETATM   19  C5  UNL     1       5.855   8.818  21.674  1.00  0.00     0.084 C 
HETATM   20  C6  UNL     1       7.103   9.708  21.591  1.00  0.00     0.025 C 
HETATM   21  C7  UNL     1       6.726  11.137  21.283  1.00  0.00     0.002 C 
HETATM   22  C8  UNL     1       5.606  11.184  20.253  1.00  0.00     0.000 C 
HETATM   23  C9  UNL     1       4.345  10.533  20.790  1.00  0.00     0.002 C 
HETATM   24  C10 UNL     1       4.659   9.705  22.019  1.00  0.00     0.025 C 
ENDBRANCH  17  19
ENDBRANCH  14  15
ENDBRANCH  13  14
ENDBRANCH  12  13
ENDBRANCH   2  12
BRANCH  10  25
HETATM   25  C13 UNL     1      10.744   6.848  30.630  1.00  0.00     0.011 C 
HETATM   26  C14 UNL     1      10.245   5.455  31.001  1.00  0.00     0.021 C 
HETATM   27  C15 UNL     1      11.365   4.644  31.557  1.00  0.00    -0.013 C 
HETATM   28  C16 UNL     1      12.002   5.266  32.767  1.00  0.00     0.009 C 
HETATM   29  C20 UNL     1      12.442   4.557  30.474  1.00  0.00     0.009 C 
HETATM   30  C17 UNL     1      12.335   6.704  32.439  1.00  0.00    -0.013 C 
HETATM   31  C18 UNL     1      13.476   6.633  31.438  1.00  0.00     0.009 C 
HETATM   32  C22 UNL     1      11.173   7.493  31.908  1.00  0.00     0.021 C 
HETATM   33  C19 UNL     1      12.987   5.925  30.207  1.00  0.00    -0.013 C 
HETATM   34  C21 UNL     1      11.868   6.763  29.630  1.00  0.00     0.021 C 
ENDBRANCH  10  25
TORSDOF 6
ENDMDL
MODEL 3
REMARK VINA RESULT: -9.631036533      3.113      9.096
REMARK  6 active torsions:
REMARK  status: ('A' for Active; 'I' for Inactive)
REMARK    1  A    between atoms: C1_2  and  C2_3 
REMARK       I    between atoms: C1_2  and  N2_16 
REMARK    2  A    between atoms: C2_3  and  S1_4 
REMARK    3  A    between atoms: S1_4  and  C3_5 
REMARK    4  A    between atoms: C3_5  and  C4_6 
REMARK       I    between atoms: C4_6  and  N1_8 
REMARK    5  A    between atoms: N1_8  and  C5_10 
REMARK    6  A    between atoms: C12_23  and  C13_24 
ROOT
HETATM    1  O1  UNL     1       4.696   9.013  25.665  1.00  0.00    -0.272 OA
HETATM    2  C1  UNL     1       5.541   8.579  24.821  1.00  0.00     0.232 C 
HETATM    3  N2  UNL     1       5.053   8.084  23.587  1.00  0.00    -0.305 N 
ATOM      4  H2  UNL     1       4.582   8.681  22.909  1.00  0.00     0.171 HD
HETATM    5  C11 UNL     1       5.251   6.803  23.376  1.00  0.00     0.167 A 
HETATM    6  N3  UNL     1       4.925   6.029  22.334  1.00  0.00    -0.279 N 
ATOM      7  H3  UNL     1       4.428   6.422  21.535  1.00  0.00     0.189 HD
HETATM    8  N4  UNL     1       5.245   4.797  22.352  1.00  0.00    -0.295 N 
ATOM      9  H4  UNL     1       5.000   4.200  21.562  1.00  0.00     0.187 HD
HETATM   10  C12 UNL     1       5.890   4.283  23.384  1.00  0.00     0.078 A 
HETATM   11  S2  UNL     1       6.043   5.652  24.389  1.00  0.00    -0.037 SA
ENDROOT
BRANCH   2  12
HETATM   12  C2  UNL     1       6.950   8.599  25.137  1.00  0.00     0.177 C 
BRANCH  12  13
HETATM   13  S1  UNL     1       7.328   8.342  26.860  1.00  0.00    -0.150 SA
BRANCH  13  14
HETATM   14  C3  UNL     1       9.026   8.030  27.183  1.00  0.00     0.177 C 
BRANCH  14  15
HETATM   15  C4  UNL     1       9.388   7.260  28.387  1.00  0.00     0.227 C 
HETATM   16  O2  UNL     1       8.535   6.695  29.066  1.00  0.00    -0.273 OA
HETATM   17  N1  UNL     1      10.754   7.210  28.725  1.00  0.00    -0.356 N 
ATOM     18  H1  UNL     1      11.433   7.672  28.120  1.00  0.00     0.162 HD
BRANCH  17  19
HETATM   19  C5  UNL     1      11.225   6.516  29.915  1.00  0.00     0.084 C 
HETATM   20  C6  UNL     1      10.896   7.353  31.159  1.00  0.00     0.025 C 
HETATM   21  C7  UNL     1      11.959   7.185  32.218  1.00  0.00     0.002 C 
HETATM   22  C8  UNL     1      12.416   5.735  32.292  1.00  0.00     0.000 C 
HETATM   23  C9  UNL     1      13.060   5.300  30.989  1.00  0.00     0.002 C 
HETATM   24  C10 UNL     1      12.735   6.282  29.883  1.00  0.00     0.025 C 
ENDBRANCH  17  19
ENDBRANCH  14  15
ENDBRANCH  13  14
ENDBRANCH  12  13
ENDBRANCH   2  12
BRANCH  10  25
HETATM   25  C13 UNL     1       6.411   2.918  23.688  1.00  0.00     0.011 C 
HETATM   26  C14 UNL     1       6.180   2.741  25.185  1.00  0.00     0.021 C 
HETATM   27  C15 UNL     1       6.548   1.357  25.596  1.00  0.00    -0.013 C 
HETATM   28  C16 UNL     1       7.974   1.005  25.284  1.00  0.00     0.009 C 
HETATM   29  C20 UNL     1       5.661   0.397  24.799  1.00  0.00     0.009 C 
HETATM   30  C17 UNL     1       8.239   1.350  23.836  1.00  0.00    -0.013 C 
HETATM   31  C18 UNL     1       7.443   0.336  23.030  1.00  0.00     0.009 C 
HETATM   32  C22 UNL     1       7.881   2.762  23.470  1.00  0.00     0.021 C 
HETATM   33  C19 UNL     1       5.985   0.519  23.343  1.00  0.00    -0.013 C 
HETATM   34  C21 UNL     1       5.608   1.915  22.901  1.00  0.00     0.021 C 
ENDBRANCH  10  25
TORSDOF 6
ENDMDL
MODEL 4
REMARK VINA RESULT: -9.609200131      3.124      5.363
REMARK  6 active torsions:
REMARK  status: ('A' for Active; 'I' for Inactive)
REMARK    1  A    between atoms: C1_2  and  C2_3 
REMARK       I    between atoms: C1_2  and  N2_16 
REMARK    2  A    between atoms: C2_3  and  S1_4 
REMARK    3  A    between atoms: S1_4  and  C3_5 
REMARK    4  A    between atoms: C3_5  and  C4_6 
REMARK       I    between atoms: C4_6  and  N1_8 
REMARK    5  A    between atoms: N1_8  and  C5_10 
REMARK    6  A    between atoms: C12_23  and  C13_24 
ROOT
HETATM    1  O1  UNL     1       7.395   9.058  25.348  1.00  0.00    -0.272 OA
HETATM    2  C1  UNL     1       7.126   8.227  26.269  1.00  0.00     0.232 C 
HETATM    3  N2  UNL     1       6.889   8.731  27.572  1.00  0.00    -0.305 N 
ATOM      4  H2  UNL     1       6.092   9.328  27.787  1.00  0.00     0.171 HD
HETATM    5  C11 UNL     1       7.765   8.375  28.483  1.00  0.00     0.167 A 
HETATM    6  N3  UNL     1       7.837   8.666  29.786  1.00  0.00    -0.279 N 
ATOM      7  H3  UNL     1       7.138   9.271  30.219  1.00  0.00     0.189 HD
HETATM    8  N4  UNL     1       8.787   8.180  30.480  1.00  0.00    -0.295 N 
ATOM      9  H4  UNL     1       8.849   8.397  31.474  1.00  0.00     0.187 HD
HETATM   10  C12 UNL     1       9.694   7.396  29.926  1.00  0.00     0.078 A 
HETATM   11  S2  UNL     1       9.151   7.359  28.309  1.00  0.00    -0.037 SA
ENDROOT
BRANCH   2  12
HETATM   12  C2  UNL     1       7.075   6.815  25.972  1.00  0.00     0.177 C 
BRANCH  12  13
HETATM   13  S1  UNL     1       5.767   6.337  24.860  1.00  0.00    -0.150 SA
BRANCH  13  14
HETATM   14  C3  UNL     1       6.147   4.940  23.864  1.00  0.00     0.177 C 
BRANCH  14  15
HETATM   15  C4  UNL     1       6.683   3.731  24.515  1.00  0.00     0.227 C 
HETATM   16  O2  UNL     1       7.888   3.495  24.535  1.00  0.00    -0.273 OA
HETATM   17  N1  UNL     1       5.749   2.857  25.104  1.00  0.00    -0.356 N 
ATOM     18  H1  UNL     1       4.759   3.103  25.087  1.00  0.00     0.162 HD
BRANCH  17  19
HETATM   19  C5  UNL     1       6.157   1.612  25.737  1.00  0.00     0.084 C 
HETATM   20  C6  UNL     1       5.994   0.455  24.743  1.00  0.00     0.025 C 
HETATM   21  C7  UNL     1       5.604  -0.818  25.456  1.00  0.00     0.002 C 
HETATM   22  C8  UNL     1       6.367  -0.952  26.766  1.00  0.00     0.000 C 
HETATM   23  C9  UNL     1       6.019   0.177  27.718  1.00  0.00     0.002 C 
HETATM   24  C10 UNL     1       5.320   1.297  26.977  1.00  0.00     0.025 C 
ENDBRANCH  17  19
ENDBRANCH  14  15
ENDBRANCH  13  14
ENDBRANCH  12  13
ENDBRANCH   2  12
BRANCH  10  25
HETATM   25  C13 UNL     1      10.884   6.671  30.459  1.00  0.00     0.011 C 
HETATM   26  C14 UNL     1      11.256   7.424  31.733  1.00  0.00     0.021 C 
HETATM   27  C15 UNL     1      12.365   6.718  32.435  1.00  0.00    -0.013 C 
HETATM   28  C16 UNL     1      13.597   6.563  31.589  1.00  0.00     0.009 C 
HETATM   29  C20 UNL     1      11.867   5.310  32.769  1.00  0.00     0.009 C 
HETATM   30  C17 UNL     1      13.186   5.975  30.258  1.00  0.00    -0.013 C 
HETATM   31  C18 UNL     1      12.784   4.540  30.562  1.00  0.00     0.009 C 
HETATM   32  C22 UNL     1      12.085   6.731  29.572  1.00  0.00     0.021 C 
HETATM   33  C19 UNL     1      11.610   4.562  31.499  1.00  0.00    -0.013 C 
HETATM   34  C21 UNL     1      10.478   5.255  30.775  1.00  0.00     0.021 C 
ENDBRANCH  10  25
TORSDOF 6
ENDMDL
MODEL 5
REMARK VINA RESULT: -9.556334009      3.115      9.251
REMARK  6 active torsions:
REMARK  status: ('A' for Active; 'I' for Inactive)
REMARK    1  A    between atoms: C1_2  and  C2_3 
REMARK       I    between atoms: C1_2  and  N2_16 
REMARK    2  A    between atoms: C2_3  and  S1_4 
REMARK    3  A    between atoms: S1_4  and  C3_5 
REMARK    4  A    between atoms: C3_5  and  C4_6 
REMARK       I    between atoms: C4_6  and  N1_8 
REMARK    5  A    between atoms: N1_8  and  C5_10 
REMARK    6  A    between atoms: C12_23  and  C13_24 
ROOT
HETATM    1  O1  UNL     1       4.897   8.963  26.073  1.00  0.00    -0.272 OA
HETATM    2  C1  UNL     1       6.014   8.367  25.972  1.00  0.00     0.232 C 
HETATM    3  N2  UNL     1       6.565   8.201  24.677  1.00  0.00    -0.305 N 
ATOM      4  H2  UNL     1       6.860   8.992  24.106  1.00  0.00     0.171 HD
HETATM    5  C11 UNL     1       6.670   6.959  24.264  1.00  0.00     0.167 A 
HETATM    6  N3  UNL     1       7.140   6.458  23.116  1.00  0.00    -0.279 N 
ATOM      7  H3  UNL     1       7.481   7.080  22.383  1.00  0.00     0.189 HD
HETATM    8  N4  UNL     1       7.158   5.196  22.951  1.00  0.00    -0.295 N 
ATOM      9  H4  UNL     1       7.514   4.806  22.078  1.00  0.00     0.187 HD
HETATM   10  C12 UNL     1       6.719   4.386  23.897  1.00  0.00     0.078 A 
HETATM   11  S2  UNL     1       6.250   5.506  25.095  1.00  0.00    -0.037 SA
ENDROOT
BRANCH   2  12
HETATM   12  C2  UNL     1       6.680   7.879  27.157  1.00  0.00     0.177 C 
BRANCH  12  13
HETATM   13  S1  UNL     1       6.825   9.072  28.472  1.00  0.00    -0.150 SA
BRANCH  13  14
HETATM   14  C3  UNL     1       7.588   8.448  29.927  1.00  0.00     0.177 C 
BRANCH  14  15
HETATM   15  C4  UNL     1       8.976   7.957  29.844  1.00  0.00     0.227 C 
HETATM   16  O2  UNL     1       9.733   8.326  28.949  1.00  0.00    -0.273 OA
HETATM   17  N1  UNL     1       9.389   7.043  30.832  1.00  0.00    -0.356 N 
ATOM     18  H1  UNL     1       8.736   6.783  31.571  1.00  0.00     0.162 HD
BRANCH  17  19
HETATM   19  C5  UNL     1      10.722   6.459  30.827  1.00  0.00     0.084 C 
HETATM   20  C6  UNL     1      10.622   4.954  31.108  1.00  0.00     0.025 C 
HETATM   21  C7  UNL     1      11.821   4.471  31.889  1.00  0.00     0.002 C 
HETATM   22  C8  UNL     1      13.092   5.136  31.382  1.00  0.00     0.000 C 
HETATM   23  C9  UNL     1      13.042   6.638  31.592  1.00  0.00     0.002 C 
HETATM   24  C10 UNL     1      11.626   7.084  31.889  1.00  0.00     0.025 C 
ENDBRANCH  17  19
ENDBRANCH  14  15
ENDBRANCH  13  14
ENDBRANCH  12  13
ENDBRANCH   2  12
BRANCH  10  25
HETATM   25  C13 UNL     1       6.631   2.901  24.013  1.00  0.00     0.011 C 
HETATM   26  C14 UNL     1       8.024   2.401  23.644  1.00  0.00     0.021 C 
HETATM   27  C15 UNL     1       8.104   0.926  23.843  1.00  0.00    -0.013 C 
HETATM   28  C16 UNL     1       7.089   0.164  23.039  1.00  0.00     0.009 C 
HETATM   29  C20 UNL     1       7.808   0.651  25.320  1.00  0.00     0.009 C 
HETATM   30  C17 UNL     1       5.732   0.785  23.281  1.00  0.00    -0.013 C 
HETATM   31  C18 UNL     1       5.380   0.431  24.717  1.00  0.00     0.009 C 
HETATM   32  C22 UNL     1       5.688   2.267  23.043  1.00  0.00     0.021 C 
HETATM   33  C19 UNL     1       6.400   1.056  25.626  1.00  0.00    -0.013 C 
HETATM   34  C21 UNL     1       6.299   2.553  25.441  1.00  0.00     0.021 C 
ENDBRANCH  10  25
TORSDOF 6
ENDMDL
