MODEL 1
REMARK VINA RESULT: -8.322547898      0.000      0.000
REMARK  11 active torsions:
REMARK  status: ('A' for Active; 'I' for Inactive)
REMARK    1  A    between atoms: C2_3  and  C4_6 
REMARK    2  A    between atoms: C4_6  and  C5_7 
REMARK    3  A    between atoms: C7_9  and  C12_16 
REMARK    4  A    between atoms: C9_11  and  C10_12 
REMARK    5  A    between atoms: C10_12  and  C11_13 
REMARK       I    between atoms: N3_18  and  C14_19 
REMARK       I    between atoms: C14_19  and  N4_21 
REMARK    6  A    between atoms: N4_21  and  C15_23 
REMARK    7  A    between atoms: C15_23  and  C16_24 
REMARK    8  A    between atoms: C19_27  and  C20_28 
REMARK    9  A    between atoms: C20_28  and  N5_29 
REMARK   10  A    between atoms: N5_29  and  N6_31 
REMARK   11  A    between atoms: N6_31  and  N7_32 
ROOT
HETATM    1  N1  UNL     1       2.728   9.250  19.716  1.00  0.00    -0.191 NA
HETATM    2  C1  UNL     1       3.357   8.444  19.180  1.00  0.00     0.110 C 
HETATM    3  C2  UNL     1       4.198   7.412  18.488  1.00  0.00     0.124 C 
HETATM    4  C3  UNL     1       3.400   6.310  18.037  1.00  0.00     0.110 C 
HETATM    5  N2  UNL     1       2.713   5.426  17.673  1.00  0.00    -0.191 NA
ENDROOT
BRANCH   3   6
HETATM    6  C4  UNL     1       5.456   7.617  18.366  1.00  0.00     0.037 C 
BRANCH   6   7
HETATM    7  C5  UNL     1       6.475   8.031  19.247  1.00  0.00    -0.070 C 
HETATM    8  C6  UNL     1       6.580   7.496  20.646  1.00  0.00     0.040 C 
HETATM    9  C7  UNL     1       7.429   8.562  21.340  1.00  0.00    -0.001 C 
HETATM   10  C8  UNL     1       8.132   9.228  20.183  1.00  0.00     0.017 C 
HETATM   11  C9  UNL     1       6.806   9.500  19.369  1.00  0.00     0.055 C 
BRANCH   9  12
HETATM   12  C12 UNL     1       6.418   9.649  21.687  1.00  0.00     0.048 C 
HETATM   13  C10 UNL     1       6.918  10.220  22.992  1.00  0.00     0.138 C 
HETATM   14  N3  UNL     1       5.843   9.455  23.706  1.00  0.00    -0.313 N 
HETATM   15  C13 UNL     1       5.223   9.200  22.431  1.00  0.00     0.137 C 
HETATM   16  C14 UNL     1       5.523   9.117  25.034  1.00  0.00     0.319 C 
HETATM   17  O3  UNL     1       4.497   8.418  25.281  1.00  0.00    -0.247 OA
HETATM   18  N4  UNL     1       6.283   9.510  26.159  1.00  0.00    -0.343 N 
ATOM     19  H4  UNL     1       7.116  10.074  25.986  1.00  0.00     0.164 HD
BRANCH  13  20
HETATM   20  C11 UNL     1       6.711  11.667  23.207  1.00  0.00     0.204 C 
HETATM   21  O1  UNL     1       6.881  12.475  22.311  1.00  0.00    -0.646 OA
HETATM   22  O2  UNL     1       6.311  12.173  24.451  1.00  0.00    -0.646 OA
ENDBRANCH  13  20
BRANCH  18  23
HETATM   23  C15 UNL     1       5.988   9.187  27.509  1.00  0.00     0.129 C 
BRANCH  23  24
HETATM   24  C16 UNL     1       7.178   8.777  28.341  1.00  0.00     0.003 C 
HETATM   25  C17 UNL     1       6.837   7.580  29.222  1.00  0.00     0.007 C 
HETATM   26  C18 UNL     1       8.051   7.194  30.016  1.00  0.00     0.007 C 
HETATM   27  C19 UNL     1       9.267   6.956  29.180  1.00  0.00     0.006 C 
HETATM   28  C21 UNL     1       8.852   7.010  27.718  1.00  0.00     0.007 C 
HETATM   29  C22 UNL     1       8.279   8.357  27.399  1.00  0.00     0.007 C 
BRANCH  27  30
HETATM   30  C20 UNL     1      10.338   7.998  29.468  1.00  0.00     0.160 C 
BRANCH  30  31
HETATM   31  N5  UNL     1      10.404   8.165  30.907  1.00  0.00    -0.252 N 
ATOM     32  H5  UNL     1       9.749   8.812  31.346  1.00  0.00     0.196 HD
BRANCH  31  33
HETATM   33  N6  UNL     1      11.198   7.575  31.625  1.00  0.00    -0.249 NA
BRANCH  33  34
HETATM   34  N7  UNL     1      12.131   7.171  32.301  1.00  0.00    -0.261 N 
ATOM     35  H72 UNL     1      12.630   8.044  32.126  1.00  0.00     0.193 HD
ATOM     36  H71 UNL     1      12.800   6.672  32.887  1.00  0.00     0.193 HD
ENDBRANCH  33  34
ENDBRANCH  31  33
ENDBRANCH  30  31
ENDBRANCH  27  30
ENDBRANCH  23  24
ENDBRANCH  18  23
ENDBRANCH   9  12
ENDBRANCH   6   7
ENDBRANCH   3   6
TORSDOF 11
ENDMDL
MODEL 2
REMARK VINA RESULT: -8.209926940      2.555     10.337
REMARK  11 active torsions:
REMARK  status: ('A' for Active; 'I' for Inactive)
REMARK    1  A    between atoms: C2_3  and  C4_6 
REMARK    2  A    between atoms: C4_6  and  C5_7 
REMARK    3  A    between atoms: C7_9  and  C12_16 
REMARK    4  A    between atoms: C9_11  and  C10_12 
REMARK    5  A    between atoms: C10_12  and  C11_13 
REMARK       I    between atoms: N3_18  and  C14_19 
REMARK       I    between atoms: C14_19  and  N4_21 
REMARK    6  A    between atoms: N4_21  and  C15_23 
REMARK    7  A    between atoms: C15_23  and  C16_24 
REMARK    8  A    between atoms: C19_27  and  C20_28 
REMARK    9  A    between atoms: C20_28  and  N5_29 
REMARK   10  A    between atoms: N5_29  and  N6_31 
REMARK   11  A    between atoms: N6_31  and  N7_32 
ROOT
HETATM    1  N1  UNL     1       7.679   4.239  32.441  1.00  0.00    -0.191 NA
HETATM    2  C1  UNL     1       8.623   4.686  31.949  1.00  0.00     0.110 C 
HETATM    3  C2  UNL     1       9.834   5.288  31.300  1.00  0.00     0.124 C 
HETATM    4  C3  UNL     1      11.010   4.518  31.581  1.00  0.00     0.110 C 
HETATM    5  N2  UNL     1      11.954   3.858  31.826  1.00  0.00    -0.191 NA
ENDROOT
BRANCH   3   6
HETATM    6  C4  UNL     1       9.698   6.348  30.594  1.00  0.00     0.037 C 
BRANCH   6   7
HETATM    7  C5  UNL     1       8.589   7.081  30.125  1.00  0.00    -0.070 C 
HETATM    8  C6  UNL     1       7.536   6.457  29.257  1.00  0.00     0.040 C 
HETATM    9  C7  UNL     1       6.891   7.678  28.598  1.00  0.00    -0.001 C 
HETATM   10  C8  UNL     1       7.252   8.794  29.548  1.00  0.00     0.017 C 
HETATM   11  C9  UNL     1       8.797   8.463  29.550  1.00  0.00     0.055 C 
BRANCH   9  12
HETATM   12  C12 UNL     1       7.838   8.003  27.449  1.00  0.00     0.048 C 
HETATM   13  C10 UNL     1       6.936   8.117  26.244  1.00  0.00     0.138 C 
HETATM   14  N3  UNL     1       7.398   6.759  25.804  1.00  0.00    -0.313 N 
HETATM   15  C13 UNL     1       8.456   6.839  26.779  1.00  0.00     0.137 C 
HETATM   16  C14 UNL     1       7.015   5.795  24.854  1.00  0.00     0.319 C 
HETATM   17  O3  UNL     1       7.656   4.707  24.760  1.00  0.00    -0.247 OA
HETATM   18  N4  UNL     1       5.930   5.947  23.960  1.00  0.00    -0.343 N 
ATOM     19  H4  UNL     1       5.397   6.816  24.017  1.00  0.00     0.164 HD
BRANCH  13  20
HETATM   20  C11 UNL     1       7.316   9.115  25.223  1.00  0.00     0.204 C 
HETATM   21  O1  UNL     1       8.395   9.071  24.658  1.00  0.00    -0.646 OA
HETATM   22  O2  UNL     1       6.452  10.158  24.861  1.00  0.00    -0.646 OA
ENDBRANCH  13  20
BRANCH  18  23
HETATM   23  C15 UNL     1       5.519   4.995  22.991  1.00  0.00     0.129 C 
BRANCH  23  24
HETATM   24  C16 UNL     1       5.088   5.579  21.668  1.00  0.00     0.003 C 
HETATM   25  C17 UNL     1       5.473   7.051  21.574  1.00  0.00     0.007 C 
HETATM   26  C18 UNL     1       5.044   7.586  20.238  1.00  0.00     0.007 C 
HETATM   27  C19 UNL     1       5.553   6.790  19.079  1.00  0.00     0.006 C 
HETATM   28  C21 UNL     1       6.522   5.748  19.613  1.00  0.00     0.007 C 
HETATM   29  C22 UNL     1       5.819   4.840  20.575  1.00  0.00     0.007 C 
BRANCH  27  30
HETATM   30  C20 UNL     1       4.406   6.120  18.335  1.00  0.00     0.160 C 
BRANCH  30  31
HETATM   31  N5  UNL     1       3.192   6.836  18.675  1.00  0.00    -0.252 N 
ATOM     32  H5  UNL     1       3.282   7.749  19.121  1.00  0.00     0.196 HD
BRANCH  31  33
HETATM   33  N6  UNL     1       2.067   6.409  18.459  1.00  0.00    -0.249 NA
BRANCH  33  34
HETATM   34  N7  UNL     1       0.961   5.892  18.460  1.00  0.00    -0.261 N 
ATOM     35  H72 UNL     1       1.039   5.739  19.466  1.00  0.00     0.193 HD
ATOM     36  H71 UNL     1       0.040   5.497  18.268  1.00  0.00     0.193 HD
ENDBRANCH  33  34
ENDBRANCH  31  33
ENDBRANCH  30  31
ENDBRANCH  27  30
ENDBRANCH  23  24
ENDBRANCH  18  23
ENDBRANCH   9  12
ENDBRANCH   6   7
ENDBRANCH   3   6
TORSDOF 11
ENDMDL
MODEL 3
REMARK VINA RESULT: -7.952321887      3.470      9.647
REMARK  11 active torsions:
REMARK  status: ('A' for Active; 'I' for Inactive)
REMARK    1  A    between atoms: C2_3  and  C4_6 
REMARK    2  A    between atoms: C4_6  and  C5_7 
REMARK    3  A    between atoms: C7_9  and  C12_16 
REMARK    4  A    between atoms: C9_11  and  C10_12 
REMARK    5  A    between atoms: C10_12  and  C11_13 
REMARK       I    between atoms: N3_18  and  C14_19 
REMARK       I    between atoms: C14_19  and  N4_21 
REMARK    6  A    between atoms: N4_21  and  C15_23 
REMARK    7  A    between atoms: C15_23  and  C16_24 
REMARK    8  A    between atoms: C19_27  and  C20_28 
REMARK    9  A    between atoms: C20_28  and  N5_29 
REMARK   10  A    between atoms: N5_29  and  N6_31 
REMARK   11  A    between atoms: N6_31  and  N7_32 
ROOT
HETATM    1  N1  UNL     1      10.216   7.889  31.182  1.00  0.00    -0.191 NA
HETATM    2  C1  UNL     1       9.237   7.347  30.899  1.00  0.00     0.110 C 
HETATM    3  C2  UNL     1       7.963   6.657  30.507  1.00  0.00     0.124 C 
HETATM    4  C3  UNL     1       7.568   5.699  31.496  1.00  0.00     0.110 C 
HETATM    5  N2  UNL     1       7.268   4.926  32.333  1.00  0.00    -0.191 NA
ENDROOT
BRANCH   3   6
HETATM    6  C4  UNL     1       7.391   6.987  29.410  1.00  0.00     0.037 C 
BRANCH   6   7
HETATM    7  C5  UNL     1       7.842   7.208  28.093  1.00  0.00    -0.070 C 
HETATM    8  C6  UNL     1       7.998   8.590  27.529  1.00  0.00     0.040 C 
HETATM    9  C7  UNL     1       7.976   8.331  26.022  1.00  0.00    -0.001 C 
HETATM   10  C8  UNL     1       8.363   6.876  25.932  1.00  0.00     0.017 C 
HETATM   11  C9  UNL     1       7.267   6.390  26.961  1.00  0.00     0.055 C 
BRANCH   9  12
HETATM   12  C12 UNL     1       6.489   8.222  25.702  1.00  0.00     0.048 C 
HETATM   13  C10 UNL     1       6.443   8.040  24.204  1.00  0.00     0.138 C 
HETATM   14  N3  UNL     1       6.028   9.475  24.070  1.00  0.00    -0.313 N 
HETATM   15  C13 UNL     1       5.783   9.504  25.490  1.00  0.00     0.137 C 
HETATM   16  C14 UNL     1       5.900  10.422  23.037  1.00  0.00     0.319 C 
HETATM   17  O3  UNL     1       5.514  11.598  23.300  1.00  0.00    -0.247 OA
HETATM   18  N4  UNL     1       6.179  10.156  21.677  1.00  0.00    -0.343 N 
ATOM     19  H4  UNL     1       6.493   9.214  21.440  1.00  0.00     0.164 HD
BRANCH  13  20
HETATM   20  C11 UNL     1       5.371   7.172  23.675  1.00  0.00     0.204 C 
HETATM   21  O1  UNL     1       4.881   6.281  24.347  1.00  0.00    -0.646 OA
HETATM   22  O2  UNL     1       4.873   7.333  22.375  1.00  0.00    -0.646 OA
ENDBRANCH  13  20
BRANCH  18  23
HETATM   23  C15 UNL     1       6.060  11.087  20.613  1.00  0.00     0.129 C 
BRANCH  23  24
HETATM   24  C16 UNL     1       7.216  12.047  20.473  1.00  0.00     0.003 C 
HETATM   25  C17 UNL     1       7.782  12.011  19.058  1.00  0.00     0.007 C 
HETATM   26  C18 UNL     1       8.915  12.991  18.958  1.00  0.00     0.007 C 
HETATM   27  C19 UNL     1       8.553  14.376  19.391  1.00  0.00     0.006 C 
HETATM   28  C21 UNL     1       7.055  14.413  19.647  1.00  0.00     0.007 C 
HETATM   29  C22 UNL     1       6.696  13.439  20.727  1.00  0.00     0.007 C 
BRANCH  27  30
HETATM   30  C20 UNL     1       9.317  14.770  20.647  1.00  0.00     0.160 C 
BRANCH  30  31
HETATM   31  N5  UNL     1       9.167  16.203  20.813  1.00  0.00    -0.252 N 
ATOM     32  H5  UNL     1       9.721  16.817  20.216  1.00  0.00     0.196 HD
BRANCH  31  33
HETATM   33  N6  UNL     1       8.414  16.718  21.627  1.00  0.00    -0.249 NA
BRANCH  33  34
HETATM   34  N7  UNL     1       7.651  17.409  22.284  1.00  0.00    -0.261 N 
ATOM     35  H72 UNL     1       6.875  16.807  22.008  1.00  0.00     0.193 HD
ATOM     36  H71 UNL     1       7.176  18.090  22.875  1.00  0.00     0.193 HD
ENDBRANCH  33  34
ENDBRANCH  31  33
ENDBRANCH  30  31
ENDBRANCH  27  30
ENDBRANCH  23  24
ENDBRANCH  18  23
ENDBRANCH   9  12
ENDBRANCH   6   7
ENDBRANCH   3   6
TORSDOF 11
ENDMDL
MODEL 4
REMARK VINA RESULT: -7.632284029      3.817      9.640
REMARK  11 active torsions:
REMARK  status: ('A' for Active; 'I' for Inactive)
REMARK    1  A    between atoms: C2_3  and  C4_6 
REMARK    2  A    between atoms: C4_6  and  C5_7 
REMARK    3  A    between atoms: C7_9  and  C12_16 
REMARK    4  A    between atoms: C9_11  and  C10_12 
REMARK    5  A    between atoms: C10_12  and  C11_13 
REMARK       I    between atoms: N3_18  and  C14_19 
REMARK       I    between atoms: C14_19  and  N4_21 
REMARK    6  A    between atoms: N4_21  and  C15_23 
REMARK    7  A    between atoms: C15_23  and  C16_24 
REMARK    8  A    between atoms: C19_27  and  C20_28 
REMARK    9  A    between atoms: C20_28  and  N5_29 
REMARK   10  A    between atoms: N5_29  and  N6_31 
REMARK   11  A    between atoms: N6_31  and  N7_32 
ROOT
HETATM    1  N1  UNL     1      10.240   7.919  31.066  1.00  0.00    -0.191 NA
HETATM    2  C1  UNL     1       9.261   7.374  30.787  1.00  0.00     0.110 C 
HETATM    3  C2  UNL     1       7.987   6.681  30.401  1.00  0.00     0.124 C 
HETATM    4  C3  UNL     1       7.596   5.726  31.396  1.00  0.00     0.110 C 
HETATM    5  N2  UNL     1       7.299   4.956  32.236  1.00  0.00    -0.191 NA
ENDROOT
BRANCH   3   6
HETATM    6  C4  UNL     1       7.412   7.005  29.305  1.00  0.00     0.037 C 
BRANCH   6   7
HETATM    7  C5  UNL     1       7.847   7.152  27.972  1.00  0.00    -0.070 C 
HETATM    8  C6  UNL     1       8.225   8.489  27.404  1.00  0.00     0.040 C 
HETATM    9  C7  UNL     1       8.103   8.250  25.898  1.00  0.00    -0.001 C 
HETATM   10  C8  UNL     1       8.222   6.749  25.792  1.00  0.00     0.017 C 
HETATM   11  C9  UNL     1       7.095   6.457  26.861  1.00  0.00     0.055 C 
BRANCH   9  12
HETATM   12  C12 UNL     1       6.610   8.408  25.633  1.00  0.00     0.048 C 
HETATM   13  C10 UNL     1       6.521   8.680  24.151  1.00  0.00     0.138 C 
HETATM   14  N3  UNL     1       6.284  10.129  24.459  1.00  0.00    -0.313 N 
HETATM   15  C13 UNL     1       6.064   9.767  25.836  1.00  0.00     0.137 C 
HETATM   16  C14 UNL     1       6.259  11.345  23.752  1.00  0.00     0.319 C 
HETATM   17  O3  UNL     1       6.024  12.428  24.362  1.00  0.00    -0.247 OA
HETATM   18  N4  UNL     1       6.485  11.459  22.361  1.00  0.00    -0.343 N 
ATOM     19  H4  UNL     1       6.678  10.599  21.846  1.00  0.00     0.164 HD
BRANCH  13  20
HETATM   20  C11 UNL     1       5.344   8.132  23.446  1.00  0.00     0.204 C 
HETATM   21  O1  UNL     1       4.647   7.266  23.945  1.00  0.00    -0.646 OA
HETATM   22  O2  UNL     1       4.978   8.585  22.171  1.00  0.00    -0.646 OA
ENDBRANCH  13  20
BRANCH  18  23
HETATM   23  C15 UNL     1       6.467  12.669  21.618  1.00  0.00     0.129 C 
BRANCH  23  24
HETATM   24  C16 UNL     1       7.715  12.943  20.816  1.00  0.00     0.003 C 
HETATM   25  C17 UNL     1       7.470  12.698  19.332  1.00  0.00     0.007 C 
HETATM   26  C18 UNL     1       8.729  13.000  18.571  1.00  0.00     0.007 C 
HETATM   27  C19 UNL     1       9.282  14.363  18.838  1.00  0.00     0.006 C 
HETATM   28  C21 UNL     1       8.278  15.119  19.695  1.00  0.00     0.007 C 
HETATM   29  C22 UNL     1       8.068  14.399  20.992  1.00  0.00     0.007 C 
BRANCH  27  30
HETATM   30  C20 UNL     1      10.626  14.275  19.546  1.00  0.00     0.160 C 
BRANCH  30  31
HETATM   31  N5  UNL     1      11.476  13.406  18.755  1.00  0.00    -0.252 N 
ATOM     32  H5  UNL     1      11.045  12.867  18.003  1.00  0.00     0.196 HD
BRANCH  31  33
HETATM   33  N6  UNL     1      12.679  13.281  18.936  1.00  0.00    -0.249 NA
BRANCH  33  34
HETATM   34  N7  UNL     1      13.854  12.956  18.995  1.00  0.00    -0.261 N 
ATOM     35  H72 UNL     1      14.094  13.900  19.299  1.00  0.00     0.193 HD
ATOM     36  H71 UNL     1      14.770  12.509  18.985  1.00  0.00     0.193 HD
ENDBRANCH  33  34
ENDBRANCH  31  33
ENDBRANCH  30  31
ENDBRANCH  27  30
ENDBRANCH  23  24
ENDBRANCH  18  23
ENDBRANCH   9  12
ENDBRANCH   6   7
ENDBRANCH   3   6
TORSDOF 11
ENDMDL
MODEL 5
REMARK VINA RESULT: -7.619507004      4.111      4.941
REMARK  11 active torsions:
REMARK  status: ('A' for Active; 'I' for Inactive)
REMARK    1  A    between atoms: C2_3  and  C4_6 
REMARK    2  A    between atoms: C4_6  and  C5_7 
REMARK    3  A    between atoms: C7_9  and  C12_16 
REMARK    4  A    between atoms: C9_11  and  C10_12 
REMARK    5  A    between atoms: C10_12  and  C11_13 
REMARK       I    between atoms: N3_18  and  C14_19 
REMARK       I    between atoms: C14_19  and  N4_21 
REMARK    6  A    between atoms: N4_21  and  C15_23 
REMARK    7  A    between atoms: C15_23  and  C16_24 
REMARK    8  A    between atoms: C19_27  and  C20_28 
REMARK    9  A    between atoms: C20_28  and  N5_29 
REMARK   10  A    between atoms: N5_29  and  N6_31 
REMARK   11  A    between atoms: N6_31  and  N7_32 
ROOT
HETATM    1  N1  UNL     1       4.482  -0.798  20.296  1.00  0.00    -0.191 NA
HETATM    2  C1  UNL     1       5.164  -0.213  21.020  1.00  0.00     0.110 C 
HETATM    3  C2  UNL     1       6.071   0.550  21.940  1.00  0.00     0.124 C 
HETATM    4  C3  UNL     1       5.500   0.666  23.250  1.00  0.00     0.110 C 
HETATM    5  N2  UNL     1       5.005   0.735  24.317  1.00  0.00    -0.191 NA
ENDROOT
BRANCH   3   6
HETATM    6  C4  UNL     1       7.193   0.976  21.495  1.00  0.00     0.037 C 
BRANCH   6   7
HETATM    7  C5  UNL     1       7.810   2.242  21.432  1.00  0.00    -0.070 C 
HETATM    8  C6  UNL     1       7.996   3.094  22.653  1.00  0.00     0.040 C 
HETATM    9  C7  UNL     1       8.185   4.488  22.053  1.00  0.00    -0.001 C 
HETATM   10  C8  UNL     1       8.626   4.182  20.643  1.00  0.00     0.017 C 
HETATM   11  C9  UNL     1       7.417   3.210  20.340  1.00  0.00     0.055 C 
BRANCH   9  12
HETATM   12  C12 UNL     1       6.759   4.953  21.781  1.00  0.00     0.048 C 
HETATM   13  C10 UNL     1       6.797   6.440  22.038  1.00  0.00     0.138 C 
HETATM   14  N3  UNL     1       6.116   6.202  23.353  1.00  0.00    -0.313 N 
HETATM   15  C13 UNL     1       5.825   4.858  22.923  1.00  0.00     0.137 C 
HETATM   16  C14 UNL     1       5.840   6.934  24.522  1.00  0.00     0.319 C 
HETATM   17  O3  UNL     1       5.224   6.387  25.483  1.00  0.00    -0.247 OA
HETATM   18  N4  UNL     1       6.208   8.285  24.718  1.00  0.00    -0.343 N 
ATOM     19  H4  UNL     1       6.707   8.748  23.958  1.00  0.00     0.164 HD
BRANCH  13  20
HETATM   20  C11 UNL     1       5.931   7.283  21.188  1.00  0.00     0.204 C 
HETATM   21  O1  UNL     1       5.578   6.920  20.079  1.00  0.00    -0.646 OA
HETATM   22  O2  UNL     1       5.480   8.538  21.618  1.00  0.00    -0.646 OA
ENDBRANCH  13  20
BRANCH  18  23
HETATM   23  C15 UNL     1       5.945   9.052  25.884  1.00  0.00     0.129 C 
BRANCH  23  24
HETATM   24  C16 UNL     1       6.934   8.862  27.008  1.00  0.00     0.003 C 
HETATM   25  C17 UNL     1       6.263   8.221  28.217  1.00  0.00     0.007 C 
HETATM   26  C18 UNL     1       7.284   8.033  29.302  1.00  0.00     0.007 C 
HETATM   27  C19 UNL     1       8.499   7.282  28.862  1.00  0.00     0.006 C 
HETATM   28  C21 UNL     1       8.252   6.771  27.451  1.00  0.00     0.007 C 
HETATM   29  C22 UNL     1       8.010   7.922  26.524  1.00  0.00     0.007 C 
BRANCH  27  30
HETATM   30  C20 UNL     1       9.732   8.175  28.895  1.00  0.00     0.160 C 
BRANCH  30  31
HETATM   31  N5  UNL     1      10.888   7.325  28.682  1.00  0.00    -0.252 N 
ATOM     32  H5  UNL     1      10.976   6.850  27.784  1.00  0.00     0.196 HD
BRANCH  31  33
HETATM   33  N6  UNL     1      11.763   7.146  29.517  1.00  0.00    -0.249 NA
BRANCH  33  34
HETATM   34  N7  UNL     1      12.765   7.109  30.213  1.00  0.00    -0.261 N 
ATOM     35  H72 UNL     1      13.289   7.580  29.476  1.00  0.00     0.193 HD
ATOM     36  H71 UNL     1      13.485   6.988  30.926  1.00  0.00     0.193 HD
ENDBRANCH  33  34
ENDBRANCH  31  33
ENDBRANCH  30  31
ENDBRANCH  27  30
ENDBRANCH  23  24
ENDBRANCH  18  23
ENDBRANCH   9  12
ENDBRANCH   6   7
ENDBRANCH   3   6
TORSDOF 11
ENDMDL
