MODEL 1
REMARK VINA RESULT: -7.838058079      0.000      0.000
REMARK  10 active torsions:
REMARK  status: ('A' for Active; 'I' for Inactive)
REMARK    1  A    between atoms: N1_2  and  C3_4 
REMARK    2  A    between atoms: C3_4  and  C4_5 
REMARK    3  A    between atoms: N2_7  and  C6_8 
REMARK    4  A    between atoms: C6_8  and  C7_9 
REMARK    5  A    between atoms: C7_9  and  C8_10 
REMARK    6  A    between atoms: C8_10  and  O1_11 
REMARK    7  A    between atoms: C10_14  and  N3_15 
REMARK    8  A    between atoms: C14_20  and  C15_21 
REMARK    9  A    between atoms: C16_22  and  C17_23 
REMARK   10  A    between atoms: C18_25  and  O2_26 
ROOT
HETATM    1  C7  UNL     1      -0.174  25.582  10.461  1.00  0.00     0.103 C 
HETATM    2  C9  UNL     1       1.133  25.805   9.808  1.00  0.00     0.070 C 
HETATM    3  C10 UNL     1       1.269  27.154   9.129  1.00  0.00     0.125 C 
HETATM    4  C18 UNL     1       0.876  28.160  10.172  1.00  0.00     0.175 C 
HETATM    5  C19 UNL     1      -0.574  27.909  10.512  1.00  0.00     0.082 C 
HETATM    6  C20 UNL     1      -1.497  28.493   9.463  1.00  0.00     0.048 C 
HETATM    7  C21 UNL     1      -0.811  28.796  11.758  1.00  0.00     0.048 C 
HETATM    8  O3  UNL     1      -0.862  26.657  10.890  1.00  0.00    -0.363 OA
ENDROOT
BRANCH   1   9
HETATM    9  C6  UNL     1      -0.014  24.657  11.648  1.00  0.00     0.190 C 
BRANCH   9  10
HETATM   10  N2  UNL     1      -0.965  24.833  12.690  1.00  0.00    -0.284 N 
HETATM   11  C5  UNL     1      -1.993  23.998  12.912  1.00  0.00     0.140 A 
HETATM   12  C4  UNL     1      -2.734  24.452  13.994  1.00  0.00     0.072 A 
HETATM   13  N5  UNL     1      -2.107  25.567  14.391  1.00  0.00    -0.287 N 
HETATM   14  N4  UNL     1      -1.079  25.772  13.618  1.00  0.00    -0.241 N 
ATOM     15  H5  UNL     1      -2.389  26.161  15.171  1.00  0.00     0.188 HD
ATOM     16  H4  UNL     1      -0.438  26.559  13.715  1.00  0.00     0.208 HD
BRANCH  12  17
HETATM   17  C3  UNL     1      -3.952  23.841  14.587  1.00  0.00     0.331 C 
BRANCH  17  18
HETATM   18  N1  UNL     1      -3.715  23.333  15.902  1.00  0.00     0.085 N 
HETATM   19  C1  UNL     1      -4.036  21.942  15.988  1.00  0.00     0.309 C 
HETATM   20  C2  UNL     1      -4.360  24.100  16.935  1.00  0.00     0.309 C 
ENDBRANCH  17  18
ENDBRANCH  12  17
ENDBRANCH   9  10
ENDBRANCH   1   9
BRANCH   1  21
HETATM   21  C8  UNL     1      -1.089  24.816   9.490  1.00  0.00     0.204 C 
BRANCH  21  22
HETATM   22  O1  UNL     1      -0.536  23.625   9.072  1.00  0.00    -0.398 OA
ATOM     23  H1  UNL     1      -1.179  23.040   8.689  1.00  0.00     0.209 HD
ENDBRANCH  21  22
ENDBRANCH   1  21
BRANCH   3  24
HETATM   24  N3  UNL     1       2.645  27.272   8.687  1.00  0.00    -0.339 N 
HETATM   25  C11 UNL     1       3.668  26.414   8.919  1.00  0.00     0.134 A 
HETATM   26  C12 UNL     1       4.833  26.860   8.340  1.00  0.00     0.134 A 
HETATM   27  F1  UNL     1       6.060  26.281   8.351  1.00  0.00    -0.205 F 
HETATM   28  C13 UNL     1       4.513  28.049   7.723  1.00  0.00     0.082 A 
HETATM   29  C14 UNL     1       3.173  28.282   7.947  1.00  0.00     0.092 A 
BRANCH  29  30
HETATM   30  C15 UNL     1       2.447  29.426   7.465  1.00  0.00    -0.046 C 
HETATM   31  C16 UNL     1       1.832  30.405   7.077  1.00  0.00    -0.068 C 
BRANCH  31  32
HETATM   32  C17 UNL     1       1.079  31.566   6.622  1.00  0.00     0.316 C 
HETATM   33  F2  UNL     1       0.217  31.944   7.615  1.00  0.00    -0.242 F 
ENDBRANCH  31  32
ENDBRANCH  29  30
ENDBRANCH   3  24
BRANCH   4  34
HETATM   34  O2  UNL     1       1.662  27.936  11.293  1.00  0.00    -0.390 OA
ATOM     35  H2  UNL     1       1.686  28.741  11.795  1.00  0.00     0.210 HD
ENDBRANCH   4  34
TORSDOF 10
ENDMDL
MODEL 2
REMARK VINA RESULT: -7.497301024      1.864      4.172
REMARK  10 active torsions:
REMARK  status: ('A' for Active; 'I' for Inactive)
REMARK    1  A    between atoms: N1_2  and  C3_4 
REMARK    2  A    between atoms: C3_4  and  C4_5 
REMARK    3  A    between atoms: N2_7  and  C6_8 
REMARK    4  A    between atoms: C6_8  and  C7_9 
REMARK    5  A    between atoms: C7_9  and  C8_10 
REMARK    6  A    between atoms: C8_10  and  O1_11 
REMARK    7  A    between atoms: C10_14  and  N3_15 
REMARK    8  A    between atoms: C14_20  and  C15_21 
REMARK    9  A    between atoms: C16_22  and  C17_23 
REMARK   10  A    between atoms: C18_25  and  O2_26 
ROOT
HETATM    1  C7  UNL     1      -1.203  25.132  11.781  1.00  0.00     0.103 C 
HETATM    2  C9  UNL     1      -1.309  26.433  11.088  1.00  0.00     0.070 C 
HETATM    3  C10 UNL     1      -0.070  26.827  10.308  1.00  0.00     0.125 C 
HETATM    4  C18 UNL     1       0.241  25.644   9.439  1.00  0.00     0.175 C 
HETATM    5  C19 UNL     1       0.566  24.488  10.355  1.00  0.00     0.082 C 
HETATM    6  C20 UNL     1       1.980  24.588  10.890  1.00  0.00     0.048 C 
HETATM    7  C21 UNL     1       0.610  23.271   9.401  1.00  0.00     0.048 C 
HETATM    8  O3  UNL     1      -0.369  24.206  11.271  1.00  0.00    -0.363 OA
ENDROOT
BRANCH   1   9
HETATM    9  C6  UNL     1      -2.567  24.486  11.892  1.00  0.00     0.190 C 
BRANCH   9  10
HETATM   10  N2  UNL     1      -2.664  23.427  12.836  1.00  0.00    -0.284 N 
HETATM   11  C5  UNL     1      -3.334  23.518  13.995  1.00  0.00     0.140 A 
HETATM   12  C4  UNL     1      -3.231  22.319  14.686  1.00  0.00     0.072 A 
HETATM   13  N5  UNL     1      -2.487  21.534  13.895  1.00  0.00    -0.287 N 
HETATM   14  N4  UNL     1      -2.167  22.199  12.822  1.00  0.00    -0.241 N 
ATOM     15  H5  UNL     1      -2.215  20.573  14.100  1.00  0.00     0.188 HD
ATOM     16  H4  UNL     1      -1.601  21.820  12.063  1.00  0.00     0.208 HD
BRANCH  12  17
HETATM   17  C3  UNL     1      -3.815  21.973  16.008  1.00  0.00     0.331 C 
BRANCH  17  18
HETATM   18  N1  UNL     1      -4.566  23.054  16.566  1.00  0.00     0.085 N 
HETATM   19  C1  UNL     1      -4.477  23.067  17.993  1.00  0.00     0.309 C 
HETATM   20  C2  UNL     1      -5.930  23.098  16.111  1.00  0.00     0.309 C 
ENDBRANCH  17  18
ENDBRANCH  12  17
ENDBRANCH   9  10
ENDBRANCH   1   9
BRANCH   1  21
HETATM   21  C8  UNL     1      -0.769  25.379  13.236  1.00  0.00     0.204 C 
BRANCH  21  22
HETATM   22  O1  UNL     1       0.298  26.246  13.329  1.00  0.00    -0.398 OA
ATOM     23  H1  UNL     1       0.158  26.929  13.975  1.00  0.00     0.209 HD
ENDBRANCH  21  22
ENDBRANCH   1  21
BRANCH   3  24
HETATM   24  N3  UNL     1      -0.396  28.031   9.568  1.00  0.00    -0.339 N 
HETATM   25  C11 UNL     1      -1.574  28.702   9.554  1.00  0.00     0.134 A 
HETATM   26  C12 UNL     1      -1.510  29.803   8.731  1.00  0.00     0.134 A 
HETATM   27  F1  UNL     1      -2.476  30.715   8.458  1.00  0.00    -0.205 F 
HETATM   28  C13 UNL     1      -0.233  29.809   8.215  1.00  0.00     0.082 A 
HETATM   29  C14 UNL     1       0.429  28.720   8.738  1.00  0.00     0.092 A 
BRANCH  29  30
HETATM   30  C15 UNL     1       1.794  28.370   8.446  1.00  0.00    -0.046 C 
HETATM   31  C16 UNL     1       2.955  28.094   8.197  1.00  0.00    -0.068 C 
BRANCH  31  32
HETATM   32  C17 UNL     1       4.339  27.769   7.878  1.00  0.00     0.316 C 
HETATM   33  F2  UNL     1       4.887  27.106   8.942  1.00  0.00    -0.242 F 
ENDBRANCH  31  32
ENDBRANCH  29  30
ENDBRANCH   3  24
BRANCH   4  34
HETATM   34  O2  UNL     1      -0.899  25.348   8.705  1.00  0.00    -0.390 OA
ATOM     35  H2  UNL     1      -0.958  24.402   8.631  1.00  0.00     0.210 HD
ENDBRANCH   4  34
TORSDOF 10
ENDMDL
MODEL 3
REMARK VINA RESULT: -7.485177528      3.385      4.910
REMARK  10 active torsions:
REMARK  status: ('A' for Active; 'I' for Inactive)
REMARK    1  A    between atoms: N1_2  and  C3_4 
REMARK    2  A    between atoms: C3_4  and  C4_5 
REMARK    3  A    between atoms: N2_7  and  C6_8 
REMARK    4  A    between atoms: C6_8  and  C7_9 
REMARK    5  A    between atoms: C7_9  and  C8_10 
REMARK    6  A    between atoms: C8_10  and  O1_11 
REMARK    7  A    between atoms: C10_14  and  N3_15 
REMARK    8  A    between atoms: C14_20  and  C15_21 
REMARK    9  A    between atoms: C16_22  and  C17_23 
REMARK   10  A    between atoms: C18_25  and  O2_26 
ROOT
HETATM    1  C7  UNL     1      -0.357  24.472   9.832  1.00  0.00     0.103 C 
HETATM    2  C9  UNL     1      -0.041  25.664   9.018  1.00  0.00     0.070 C 
HETATM    3  C10 UNL     1      -0.431  26.981   9.661  1.00  0.00     0.125 C 
HETATM    4  C18 UNL     1       0.177  26.943  11.033  1.00  0.00     0.175 C 
HETATM    5  C19 UNL     1      -0.473  25.802  11.780  1.00  0.00     0.082 C 
HETATM    6  C20 UNL     1      -1.844  26.188  12.294  1.00  0.00     0.048 C 
HETATM    7  C21 UNL     1       0.386  25.672  13.060  1.00  0.00     0.048 C 
HETATM    8  O3  UNL     1      -0.409  24.611  11.170  1.00  0.00    -0.363 OA
ENDROOT
BRANCH   1   9
HETATM    9  C6  UNL     1       0.631  23.363   9.540  1.00  0.00     0.190 C 
BRANCH   9  10
HETATM   10  N2  UNL     1       1.670  23.206  10.499  1.00  0.00    -0.284 N 
HETATM   11  C5  UNL     1       1.794  22.134  11.297  1.00  0.00     0.140 A 
HETATM   12  C4  UNL     1       2.903  22.292  12.116  1.00  0.00     0.072 A 
HETATM   13  N5  UNL     1       3.415  23.480  11.769  1.00  0.00    -0.287 N 
HETATM   14  N4  UNL     1       2.682  23.996  10.824  1.00  0.00    -0.241 N 
ATOM     15  H5  UNL     1       4.245  23.910  12.178  1.00  0.00     0.188 HD
ATOM     16  H4  UNL     1       2.865  24.900  10.389  1.00  0.00     0.208 HD
BRANCH  12  17
HETATM   17  C3  UNL     1       3.415  21.355  13.150  1.00  0.00     0.331 C 
BRANCH  17  18
HETATM   18  N1  UNL     1       3.721  20.068  12.608  1.00  0.00     0.085 N 
HETATM   19  C1  UNL     1       3.134  19.022  13.388  1.00  0.00     0.309 C 
HETATM   20  C2  UNL     1       5.128  19.857  12.396  1.00  0.00     0.309 C 
ENDBRANCH  17  18
ENDBRANCH  12  17
ENDBRANCH   9  10
ENDBRANCH   1   9
BRANCH   1  21
HETATM   21  C8  UNL     1      -1.717  23.910   9.381  1.00  0.00     0.204 C 
BRANCH  21  22
HETATM   22  O1  UNL     1      -2.205  22.953  10.244  1.00  0.00    -0.398 OA
ATOM     23  H1  UNL     1      -3.046  23.192  10.615  1.00  0.00     0.209 HD
ENDBRANCH  21  22
ENDBRANCH   1  21
BRANCH   3  24
HETATM   24  N3  UNL     1       0.088  28.039   8.817  1.00  0.00    -0.339 N 
HETATM   25  C11 UNL     1       1.078  27.955   7.895  1.00  0.00     0.134 A 
HETATM   26  C12 UNL     1       1.297  29.169   7.288  1.00  0.00     0.134 A 
HETATM   27  F1  UNL     1       2.196  29.484   6.322  1.00  0.00    -0.205 F 
HETATM   28  C13 UNL     1       0.401  30.042   7.864  1.00  0.00     0.082 A 
HETATM   29  C14 UNL     1      -0.327  29.332   8.793  1.00  0.00     0.092 A 
BRANCH  29  30
HETATM   30  C15 UNL     1      -1.371  29.884   9.615  1.00  0.00    -0.046 C 
HETATM   31  C16 UNL     1      -2.257  30.370  10.297  1.00  0.00    -0.068 C 
BRANCH  31  32
HETATM   32  C17 UNL     1      -3.301  30.964  11.121  1.00  0.00     0.316 C 
HETATM   33  F2  UNL     1      -3.089  32.313  11.191  1.00  0.00    -0.242 F 
ENDBRANCH  31  32
ENDBRANCH  29  30
ENDBRANCH   3  24
BRANCH   4  34
HETATM   34  O2  UNL     1       1.533  26.688  10.887  1.00  0.00    -0.390 OA
ATOM     35  H2  UNL     1       2.007  27.405  11.292  1.00  0.00     0.210 HD
ENDBRANCH   4  34
TORSDOF 10
ENDMDL
MODEL 4
REMARK VINA RESULT: -7.409768822      1.028      1.063
REMARK  10 active torsions:
REMARK  status: ('A' for Active; 'I' for Inactive)
REMARK    1  A    between atoms: N1_2  and  C3_4 
REMARK    2  A    between atoms: C3_4  and  C4_5 
REMARK    3  A    between atoms: N2_7  and  C6_8 
REMARK    4  A    between atoms: C6_8  and  C7_9 
REMARK    5  A    between atoms: C7_9  and  C8_10 
REMARK    6  A    between atoms: C8_10  and  O1_11 
REMARK    7  A    between atoms: C10_14  and  N3_15 
REMARK    8  A    between atoms: C14_20  and  C15_21 
REMARK    9  A    between atoms: C16_22  and  C17_23 
REMARK   10  A    between atoms: C18_25  and  O2_26 
ROOT
HETATM    1  C7  UNL     1      -0.754  25.017  10.904  1.00  0.00     0.103 C 
HETATM    2  C9  UNL     1       0.529  25.073  10.172  1.00  0.00     0.070 C 
HETATM    3  C10 UNL     1       0.764  26.371   9.425  1.00  0.00     0.125 C 
HETATM    4  C18 UNL     1       0.541  27.454  10.440  1.00  0.00     0.175 C 
HETATM    5  C19 UNL     1      -0.905  27.373  10.870  1.00  0.00     0.082 C 
HETATM    6  C20 UNL     1      -1.822  28.010   9.846  1.00  0.00     0.048 C 
HETATM    7  C21 UNL     1      -0.976  28.329  12.084  1.00  0.00     0.048 C 
HETATM    8  O3  UNL     1      -1.300  26.175  11.319  1.00  0.00    -0.363 OA
ENDROOT
BRANCH   1   9
HETATM    9  C6  UNL     1      -0.622  24.128  12.122  1.00  0.00     0.190 C 
BRANCH   9  10
HETATM   10  N2  UNL     1      -1.465  24.465  13.216  1.00  0.00    -0.284 N 
HETATM   11  C5  UNL     1      -2.591  23.802  13.524  1.00  0.00     0.140 A 
HETATM   12  C4  UNL     1      -3.180  24.383  14.638  1.00  0.00     0.072 A 
HETATM   13  N5  UNL     1      -2.366  25.395  14.965  1.00  0.00    -0.287 N 
HETATM   14  N4  UNL     1      -1.372  25.425  14.124  1.00  0.00    -0.241 N 
ATOM     15  H5  UNL     1      -2.501  26.037  15.746  1.00  0.00     0.188 HD
ATOM     16  H4  UNL     1      -0.614  26.106  14.160  1.00  0.00     0.208 HD
BRANCH  12  17
HETATM   17  C3  UNL     1      -4.435  23.977  15.323  1.00  0.00     0.331 C 
BRANCH  17  18
HETATM   18  N1  UNL     1      -4.185  23.158  16.468  1.00  0.00     0.085 N 
HETATM   19  C1  UNL     1      -4.489  21.786  16.202  1.00  0.00     0.309 C 
HETATM   20  C2  UNL     1      -4.833  23.632  17.662  1.00  0.00     0.309 C 
ENDBRANCH  17  18
ENDBRANCH  12  17
ENDBRANCH   9  10
ENDBRANCH   1   9
BRANCH   1  21
HETATM   21  C8  UNL     1      -1.799  24.314  10.021  1.00  0.00     0.204 C 
BRANCH  21  22
HETATM   22  O1  UNL     1      -1.816  22.949  10.206  1.00  0.00    -0.398 OA
ATOM     23  H1  UNL     1      -0.995  22.538   9.961  1.00  0.00     0.209 HD
ENDBRANCH  21  22
ENDBRANCH   1  21
BRANCH   3  24
HETATM   24  N3  UNL     1       2.117  26.324   8.904  1.00  0.00    -0.339 N 
HETATM   25  C11 UNL     1       3.016  25.317   9.020  1.00  0.00     0.134 A 
HETATM   26  C12 UNL     1       4.201  25.632   8.396  1.00  0.00     0.134 A 
HETATM   27  F1  UNL     1       5.330  24.888   8.295  1.00  0.00    -0.205 F 
HETATM   28  C13 UNL     1       4.022  26.893   7.871  1.00  0.00     0.082 A 
HETATM   29  C14 UNL     1       2.744  27.296   8.193  1.00  0.00     0.092 A 
BRANCH  29  30
HETATM   30  C15 UNL     1       2.166  28.561   7.825  1.00  0.00    -0.046 C 
HETATM   31  C16 UNL     1       1.671  29.626   7.493  1.00  0.00    -0.068 C 
BRANCH  31  32
HETATM   32  C17 UNL     1       1.100  30.902   7.088  1.00  0.00     0.316 C 
HETATM   33  F2  UNL     1       1.516  31.183   5.815  1.00  0.00    -0.242 F 
ENDBRANCH  31  32
ENDBRANCH  29  30
ENDBRANCH   3  24
BRANCH   4  34
HETATM   34  O2  UNL     1       1.363  27.192  11.526  1.00  0.00    -0.390 OA
ATOM     35  H2  UNL     1       1.889  27.967  11.685  1.00  0.00     0.210 HD
ENDBRANCH   4  34
TORSDOF 10
ENDMDL
MODEL 5
REMARK VINA RESULT: -7.305250697      3.227      5.904
REMARK  10 active torsions:
REMARK  status: ('A' for Active; 'I' for Inactive)
REMARK    1  A    between atoms: N1_2  and  C3_4 
REMARK    2  A    between atoms: C3_4  and  C4_5 
REMARK    3  A    between atoms: N2_7  and  C6_8 
REMARK    4  A    between atoms: C6_8  and  C7_9 
REMARK    5  A    between atoms: C7_9  and  C8_10 
REMARK    6  A    between atoms: C8_10  and  O1_11 
REMARK    7  A    between atoms: C10_14  and  N3_15 
REMARK    8  A    between atoms: C14_20  and  C15_21 
REMARK    9  A    between atoms: C16_22  and  C17_23 
REMARK   10  A    between atoms: C18_25  and  O2_26 
ROOT
HETATM    1  C7  UNL     1      -0.959  24.250  10.247  1.00  0.00     0.103 C 
HETATM    2  C9  UNL     1      -0.568  25.363   9.357  1.00  0.00     0.070 C 
HETATM    3  C10 UNL     1      -0.821  26.742   9.934  1.00  0.00     0.125 C 
HETATM    4  C18 UNL     1      -0.172  26.726  11.288  1.00  0.00     0.175 C 
HETATM    5  C19 UNL     1      -0.893  25.690  12.117  1.00  0.00     0.082 C 
HETATM    6  C20 UNL     1      -2.208  26.224  12.647  1.00  0.00     0.048 C 
HETATM    7  C21 UNL     1      -0.007  25.555  13.378  1.00  0.00     0.048 C 
HETATM    8  O3  UNL     1      -0.954  24.466  11.576  1.00  0.00    -0.363 OA
ENDROOT
BRANCH   1   9
HETATM    9  C6  UNL     1      -0.081  23.044   9.992  1.00  0.00     0.190 C 
BRANCH   9  10
HETATM   10  N2  UNL     1       1.319  23.292  10.027  1.00  0.00    -0.284 N 
HETATM   11  C5  UNL     1       2.126  23.171   8.961  1.00  0.00     0.140 A 
HETATM   12  C4  UNL     1       3.428  23.478   9.328  1.00  0.00     0.072 A 
HETATM   13  N5  UNL     1       3.351  23.780  10.631  1.00  0.00    -0.287 N 
HETATM   14  N4  UNL     1       2.113  23.666  11.018  1.00  0.00    -0.241 N 
ATOM     15  H5  UNL     1       4.135  24.055  11.223  1.00  0.00     0.188 HD
ATOM     16  H4  UNL     1       1.794  23.843  11.971  1.00  0.00     0.208 HD
BRANCH  12  17
HETATM   17  C3  UNL     1       4.643  23.475   8.472  1.00  0.00     0.331 C 
BRANCH  17  18
HETATM   18  N1  UNL     1       4.474  24.266   7.293  1.00  0.00     0.085 N 
HETATM   19  C1  UNL     1       5.401  23.883   6.273  1.00  0.00     0.309 C 
HETATM   20  C2  UNL     1       4.507  25.682   7.546  1.00  0.00     0.309 C 
ENDBRANCH  17  18
ENDBRANCH  12  17
ENDBRANCH   9  10
ENDBRANCH   1   9
BRANCH   1  21
HETATM   21  C8  UNL     1      -2.377  23.786   9.869  1.00  0.00     0.204 C 
BRANCH  21  22
HETATM   22  O1  UNL     1      -2.894  22.881  10.770  1.00  0.00    -0.398 OA
ATOM     23  H1  UNL     1      -3.841  22.933  10.836  1.00  0.00     0.209 HD
ENDBRANCH  21  22
ENDBRANCH   1  21
BRANCH   3  24
HETATM   24  N3  UNL     1      -0.241  27.702   9.015  1.00  0.00    -0.339 N 
HETATM   25  C11 UNL     1       0.729  27.487   8.094  1.00  0.00     0.134 A 
HETATM   26  C12 UNL     1       1.024  28.639   7.403  1.00  0.00     0.134 A 
HETATM   27  F1  UNL     1       1.931  28.825   6.411  1.00  0.00    -0.205 F 
HETATM   28  C13 UNL     1       0.197  29.609   7.924  1.00  0.00     0.082 A 
HETATM   29  C14 UNL     1      -0.566  29.016   8.906  1.00  0.00     0.092 A 
BRANCH  29  30
HETATM   30  C15 UNL     1      -1.560  29.694   9.695  1.00  0.00    -0.046 C 
HETATM   31  C16 UNL     1      -2.415  30.271  10.345  1.00  0.00    -0.068 C 
BRANCH  31  32
HETATM   32  C17 UNL     1      -3.428  30.980  11.116  1.00  0.00     0.316 C 
HETATM   33  F2  UNL     1      -3.077  32.300  11.188  1.00  0.00    -0.242 F 
ENDBRANCH  31  32
ENDBRANCH  29  30
ENDBRANCH   3  24
BRANCH   4  34
HETATM   34  O2  UNL     1       1.151  26.345  11.118  1.00  0.00    -0.390 OA
ATOM     35  H2  UNL     1       1.403  26.564  10.229  1.00  0.00     0.210 HD
ENDBRANCH   4  34
TORSDOF 10
ENDMDL
