MODEL 1
REMARK VINA RESULT: -5.229829816      0.000      0.000
REMARK  7 active torsions:
REMARK  status: ('A' for Active; 'I' for Inactive)
REMARK    1  A    between atoms: N1_2  and  C2_5 
REMARK    2  A    between atoms: C2_5  and  C3_6 
REMARK    3  A    between atoms: C3_6  and  N2_7 
REMARK    4  A    between atoms: N2_7  and  C4_10 
REMARK    5  A    between atoms: C4_10  and  C5_11 
REMARK    6  A    between atoms: C7_13  and  N3_14 
REMARK    7  A    between atoms: C8_18  and  N4_19 
ROOT
HETATM    1  C5  UNL     1      36.888  64.682-152.214  1.00  0.00     0.015 C 
HETATM    2  C6  UNL     1      36.946  66.037-151.550  1.00  0.00     0.041 C 
HETATM    3  C7  UNL     1      35.597  66.142-150.869  1.00  0.00     0.214 C 
HETATM    4  C8  UNL     1      35.389  64.721-150.407  1.00  0.00     0.214 C 
HETATM    5  C9  UNL     1      35.634  64.001-151.746  1.00  0.00     0.041 C 
ENDROOT
BRANCH   1   6
HETATM    6  C4  UNL     1      36.941  64.875-153.720  1.00  0.00     0.237 C 
BRANCH   6   7
HETATM    7  N2  UNL     1      36.838  63.575-154.320  1.00  0.00    -0.073 N 
ATOM      8  H22 UNL     1      36.088  63.564-155.012  1.00  0.00     0.277 HD
ATOM      9  H21 UNL     1      36.468  62.904-153.648  1.00  0.00     0.277 HD
BRANCH   7  10
HETATM   10  C3  UNL     1      38.056  63.083-154.897  1.00  0.00     0.259 C 
BRANCH  10  11
HETATM   11  C2  UNL     1      38.618  62.051-153.930  1.00  0.00     0.259 C 
BRANCH  11  12
HETATM   12  N1  UNL     1      38.215  60.719-154.328  1.00  0.00    -0.077 N 
HETATM   13  C1  UNL     1      39.391  59.865-154.052  1.00  0.00     0.267 C 
ATOM     14  H12 UNL     1      37.876  60.658-155.289  1.00  0.00     0.276 HD
ATOM     15  H11 UNL     1      37.356  60.396-153.881  1.00  0.00     0.276 HD
ENDBRANCH  11  12
ENDBRANCH  10  11
ENDBRANCH   7  10
ENDBRANCH   6   7
ENDBRANCH   1   6
BRANCH   3  16
HETATM   16  N3  UNL     1      35.536  67.104-149.825  1.00  0.00    -0.073 N 
ATOM     17  H33 UNL     1      35.525  66.641-148.916  1.00  0.00     0.274 HD
ATOM     18  H32 UNL     1      36.420  67.607-149.754  1.00  0.00     0.274 HD
ATOM     19  H31 UNL     1      34.759  67.760-149.898  1.00  0.00     0.274 HD
ENDBRANCH   3  16
BRANCH   4  20
HETATM   20  N4  UNL     1      36.431  64.269-149.524  1.00  0.00    -0.073 N 
ATOM     21  H43 UNL     1      37.243  63.945-150.051  1.00  0.00     0.274 HD
ATOM     22  H42 UNL     1      36.857  65.052-149.029  1.00  0.00     0.274 HD
ATOM     23  H41 UNL     1      36.109  63.555-148.872  1.00  0.00     0.274 HD
ENDBRANCH   4  20
TORSDOF 7
ENDMDL
MODEL 2
REMARK VINA RESULT: -5.221542492      1.024      1.040
REMARK  7 active torsions:
REMARK  status: ('A' for Active; 'I' for Inactive)
REMARK    1  A    between atoms: N1_2  and  C2_5 
REMARK    2  A    between atoms: C2_5  and  C3_6 
REMARK    3  A    between atoms: C3_6  and  N2_7 
REMARK    4  A    between atoms: N2_7  and  C4_10 
REMARK    5  A    between atoms: C4_10  and  C5_11 
REMARK    6  A    between atoms: C7_13  and  N3_14 
REMARK    7  A    between atoms: C8_18  and  N4_19 
ROOT
HETATM    1  C5  UNL     1      36.948  64.818-152.057  1.00  0.00     0.015 C 
HETATM    2  C6  UNL     1      36.817  66.203-151.469  1.00  0.00     0.041 C 
HETATM    3  C7  UNL     1      35.532  66.116-150.673  1.00  0.00     0.214 C 
HETATM    4  C8  UNL     1      35.620  64.714-150.124  1.00  0.00     0.214 C 
HETATM    5  C9  UNL     1      35.879  63.962-151.443  1.00  0.00     0.041 C 
ENDROOT
BRANCH   1   6
HETATM    6  C4  UNL     1      36.843  64.919-153.569  1.00  0.00     0.237 C 
BRANCH   6   7
HETATM    7  N2  UNL     1      36.780  63.580-154.082  1.00  0.00    -0.073 N 
ATOM      8  H22 UNL     1      35.971  63.474-154.695  1.00  0.00     0.277 HD
ATOM      9  H21 UNL     1      36.526  62.928-153.340  1.00  0.00     0.277 HD
BRANCH   7  10
HETATM   10  C3  UNL     1      37.971  63.137-154.748  1.00  0.00     0.259 C 
BRANCH  10  11
HETATM   11  C2  UNL     1      38.595  62.062-153.870  1.00  0.00     0.259 C 
BRANCH  11  12
HETATM   12  N1  UNL     1      39.665  62.625-153.072  1.00  0.00    -0.077 N 
HETATM   13  C1  UNL     1      40.785  61.667-153.206  1.00  0.00     0.267 C 
ATOM     14  H12 UNL     1      39.402  62.821-152.106  1.00  0.00     0.276 HD
ATOM     15  H11 UNL     1      39.908  63.583-153.324  1.00  0.00     0.276 HD
ENDBRANCH  11  12
ENDBRANCH  10  11
ENDBRANCH   7  10
ENDBRANCH   6   7
ENDBRANCH   1   6
BRANCH   3  16
HETATM   16  N3  UNL     1      35.385  67.118-149.676  1.00  0.00    -0.073 N 
ATOM     17  H33 UNL     1      35.188  68.021-150.108  1.00  0.00     0.274 HD
ATOM     18  H32 UNL     1      34.518  66.979-149.158  1.00  0.00     0.274 HD
ATOM     19  H31 UNL     1      36.174  67.196-149.035  1.00  0.00     0.274 HD
ENDBRANCH   3  16
BRANCH   4  20
HETATM   20  N4  UNL     1      36.794  64.508-149.319  1.00  0.00    -0.073 N 
ATOM     21  H43 UNL     1      37.480  63.934-149.811  1.00  0.00     0.274 HD
ATOM     22  H42 UNL     1      37.333  65.368-149.231  1.00  0.00     0.274 HD
ATOM     23  H41 UNL     1      36.578  64.115-148.403  1.00  0.00     0.274 HD
ENDBRANCH   4  20
TORSDOF 7
ENDMDL
MODEL 3
REMARK VINA RESULT: -5.152620218      0.960      1.661
REMARK  7 active torsions:
REMARK  status: ('A' for Active; 'I' for Inactive)
REMARK    1  A    between atoms: N1_2  and  C2_5 
REMARK    2  A    between atoms: C2_5  and  C3_6 
REMARK    3  A    between atoms: C3_6  and  N2_7 
REMARK    4  A    between atoms: N2_7  and  C4_10 
REMARK    5  A    between atoms: C4_10  and  C5_11 
REMARK    6  A    between atoms: C7_13  and  N3_14 
REMARK    7  A    between atoms: C8_18  and  N4_19 
ROOT
HETATM    1  C5  UNL     1      36.396  64.801-152.230  1.00  0.00     0.015 C 
HETATM    2  C6  UNL     1      35.387  64.643-151.118  1.00  0.00     0.041 C 
HETATM    3  C7  UNL     1      36.205  64.914-149.873  1.00  0.00     0.214 C 
HETATM    4  C8  UNL     1      37.117  66.015-150.354  1.00  0.00     0.214 C 
HETATM    5  C9  UNL     1      37.663  65.329-151.621  1.00  0.00     0.041 C 
ENDROOT
BRANCH   1   6
HETATM    6  C4  UNL     1      36.576  63.459-152.920  1.00  0.00     0.237 C 
BRANCH   6   7
HETATM    7  N2  UNL     1      36.775  63.721-154.316  1.00  0.00    -0.073 N 
ATOM      8  H22 UNL     1      36.724  64.723-154.499  1.00  0.00     0.277 HD
ATOM      9  H21 UNL     1      35.969  63.402-154.855  1.00  0.00     0.277 HD
BRANCH   7  10
HETATM   10  C3  UNL     1      37.985  63.176-154.862  1.00  0.00     0.259 C 
BRANCH  10  11
HETATM   11  C2  UNL     1      38.459  62.099-153.898  1.00  0.00     0.259 C 
BRANCH  11  12
HETATM   12  N1  UNL     1      38.297  60.788-154.492  1.00  0.00    -0.077 N 
HETATM   13  C1  UNL     1      39.475  60.015-154.039  1.00  0.00     0.267 C 
ATOM     14  H12 UNL     1      38.178  60.804-155.505  1.00  0.00     0.276 HD
ATOM     15  H11 UNL     1      37.404  60.344-154.276  1.00  0.00     0.276 HD
ENDBRANCH  11  12
ENDBRANCH  10  11
ENDBRANCH   7  10
ENDBRANCH   6   7
ENDBRANCH   1   6
BRANCH   3  16
HETATM   16  N3  UNL     1      35.439  65.259-148.727  1.00  0.00    -0.073 N 
ATOM     17  H33 UNL     1      34.443  65.161-148.923  1.00  0.00     0.274 HD
ATOM     18  H32 UNL     1      35.545  64.549-148.002  1.00  0.00     0.274 HD
ATOM     19  H31 UNL     1      35.637  66.185-148.348  1.00  0.00     0.274 HD
ENDBRANCH   3  16
BRANCH   4  20
HETATM   20  N4  UNL     1      36.395  67.170-150.815  1.00  0.00    -0.073 N 
ATOM     21  H43 UNL     1      35.456  66.916-151.125  1.00  0.00     0.274 HD
ATOM     22  H42 UNL     1      36.151  67.783-150.038  1.00  0.00     0.274 HD
ATOM     23  H41 UNL     1      36.895  67.681-151.542  1.00  0.00     0.274 HD
ENDBRANCH   4  20
TORSDOF 7
ENDMDL
MODEL 4
REMARK VINA RESULT: -5.108436333      1.811      2.419
REMARK  7 active torsions:
REMARK  status: ('A' for Active; 'I' for Inactive)
REMARK    1  A    between atoms: N1_2  and  C2_5 
REMARK    2  A    between atoms: C2_5  and  C3_6 
REMARK    3  A    between atoms: C3_6  and  N2_7 
REMARK    4  A    between atoms: N2_7  and  C4_10 
REMARK    5  A    between atoms: C4_10  and  C5_11 
REMARK    6  A    between atoms: C7_13  and  N3_14 
REMARK    7  A    between atoms: C8_18  and  N4_19 
ROOT
HETATM    1  C5  UNL     1      36.460  64.933-152.391  1.00  0.00     0.015 C 
HETATM    2  C6  UNL     1      35.500  64.595-151.275  1.00  0.00     0.041 C 
HETATM    3  C7  UNL     1      36.328  64.828-150.029  1.00  0.00     0.214 C 
HETATM    4  C8  UNL     1      37.132  66.039-150.432  1.00  0.00     0.214 C 
HETATM    5  C9  UNL     1      37.696  65.513-151.765  1.00  0.00     0.041 C 
ENDROOT
BRANCH   1   6
HETATM    6  C4  UNL     1      36.730  63.674-153.199  1.00  0.00     0.237 C 
BRANCH   6   7
HETATM    7  N2  UNL     1      38.098  63.306-152.970  1.00  0.00    -0.073 N 
ATOM      8  H22 UNL     1      38.248  63.100-151.982  1.00  0.00     0.277 HD
ATOM      9  H21 UNL     1      38.705  64.119-153.074  1.00  0.00     0.277 HD
BRANCH   7  10
HETATM   10  C3  UNL     1      38.572  62.224-153.783  1.00  0.00     0.259 C 
BRANCH  10  11
HETATM   11  C2  UNL     1      40.054  62.058-153.480  1.00  0.00     0.259 C 
BRANCH  11  12
HETATM   12  N1  UNL     1      40.464  62.994-152.454  1.00  0.00    -0.077 N 
HETATM   13  C1  UNL     1      41.941  62.916-152.434  1.00  0.00     0.267 C 
ATOM     14  H12 UNL     1      40.029  62.829-151.545  1.00  0.00     0.276 HD
ATOM     15  H11 UNL     1      40.102  63.938-152.587  1.00  0.00     0.276 HD
ENDBRANCH  11  12
ENDBRANCH  10  11
ENDBRANCH   7  10
ENDBRANCH   6   7
ENDBRANCH   1   6
BRANCH   3  16
HETATM   16  N3  UNL     1      35.569  65.008-148.841  1.00  0.00    -0.073 N 
ATOM     17  H33 UNL     1      34.688  65.477-149.050  1.00  0.00     0.274 HD
ATOM     18  H32 UNL     1      35.215  64.112-148.507  1.00  0.00     0.274 HD
ATOM     19  H31 UNL     1      36.063  65.495-148.093  1.00  0.00     0.274 HD
ENDBRANCH   3  16
BRANCH   4  20
HETATM   20  N4  UNL     1      36.303  67.164-150.775  1.00  0.00    -0.073 N 
ATOM     21  H43 UNL     1      35.357  67.046-150.411  1.00  0.00     0.274 HD
ATOM     22  H42 UNL     1      36.578  67.994-150.251  1.00  0.00     0.274 HD
ATOM     23  H41 UNL     1      36.290  67.351-151.777  1.00  0.00     0.274 HD
ENDBRANCH   4  20
TORSDOF 7
ENDMDL
MODEL 5
REMARK VINA RESULT: -5.075501697      2.560      3.338
REMARK  7 active torsions:
REMARK  status: ('A' for Active; 'I' for Inactive)
REMARK    1  A    between atoms: N1_2  and  C2_5 
REMARK    2  A    between atoms: C2_5  and  C3_6 
REMARK    3  A    between atoms: C3_6  and  N2_7 
REMARK    4  A    between atoms: N2_7  and  C4_10 
REMARK    5  A    between atoms: C4_10  and  C5_11 
REMARK    6  A    between atoms: C7_13  and  N3_14 
REMARK    7  A    between atoms: C8_18  and  N4_19 
ROOT
HETATM    1  C5  UNL     1      37.628  65.708-150.446  1.00  0.00     0.015 C 
HETATM    2  C6  UNL     1      37.504  65.409-151.922  1.00  0.00     0.041 C 
HETATM    3  C7  UNL     1      36.360  64.419-151.975  1.00  0.00     0.214 C 
HETATM    4  C8  UNL     1      35.449  64.964-150.904  1.00  0.00     0.214 C 
HETATM    5  C9  UNL     1      36.468  65.054-149.753  1.00  0.00     0.041 C 
ENDROOT
BRANCH   1   6
HETATM    6  C4  UNL     1      38.978  65.209-149.959  1.00  0.00     0.237 C 
BRANCH   6   7
HETATM    7  N2  UNL     1      39.702  64.750-151.110  1.00  0.00    -0.073 N 
ATOM      8  H22 UNL     1      39.611  65.419-151.874  1.00  0.00     0.277 HD
ATOM      9  H21 UNL     1      39.235  63.944-151.524  1.00  0.00     0.277 HD
BRANCH   7  10
HETATM   10  C3  UNL     1      41.085  64.455-150.868  1.00  0.00     0.259 C 
BRANCH  10  11
HETATM   11  C2  UNL     1      41.571  63.621-152.045  1.00  0.00     0.259 C 
BRANCH  11  12
HETATM   12  N1  UNL     1      40.486  62.823-152.577  1.00  0.00    -0.077 N 
HETATM   13  C1  UNL     1      41.123  61.569-153.035  1.00  0.00     0.267 C 
ATOM     14  H12 UNL     1      39.939  63.296-153.297  1.00  0.00     0.276 HD
ATOM     15  H11 UNL     1      39.718  62.680-151.921  1.00  0.00     0.276 HD
ENDBRANCH  11  12
ENDBRANCH  10  11
ENDBRANCH   7  10
ENDBRANCH   6   7
ENDBRANCH   1   6
BRANCH   3  16
HETATM   16  N3  UNL     1      35.744  64.296-153.250  1.00  0.00    -0.073 N 
ATOM     17  H33 UNL     1      34.944  63.665-153.198  1.00  0.00     0.274 HD
ATOM     18  H32 UNL     1      35.268  65.163-153.499  1.00  0.00     0.274 HD
ATOM     19  H31 UNL     1      36.374  64.009-153.999  1.00  0.00     0.274 HD
ENDBRANCH   3  16
BRANCH   4  20
HETATM   20  N4  UNL     1      35.034  66.316-151.166  1.00  0.00    -0.073 N 
ATOM     21  H43 UNL     1      35.356  66.947-150.431  1.00  0.00     0.274 HD
ATOM     22  H42 UNL     1      35.546  66.709-151.955  1.00  0.00     0.274 HD
ATOM     23  H41 UNL     1      34.027  66.398-151.305  1.00  0.00     0.274 HD
ENDBRANCH   4  20
TORSDOF 7
ENDMDL
