MODEL 1
REMARK VINA RESULT: -5.733822913      0.000      0.000
REMARK  7 active torsions:
REMARK  status: ('A' for Active; 'I' for Inactive)
REMARK    1  A    between atoms: C3_3  and  C4_4 
REMARK    2  A    between atoms: C3_3  and  N2_12 
REMARK    3  A    between atoms: C4_4  and  C5_5 
REMARK    4  A    between atoms: C5_5  and  C6_6 
REMARK    5  A    between atoms: C6_6  and  C7_7 
REMARK    6  A    between atoms: C7_7  and  N1_8 
REMARK    7  A    between atoms: N2_12  and  C8_14 
ROOT
HETATM    1  C1  UNL     1      38.343  66.697-151.478  1.00  0.00     0.014 C 
HETATM    2  C2  UNL     1      37.620  65.749-151.661  1.00  0.00    -0.091 C 
HETATM    3  C3  UNL     1      36.759  64.598-151.861  1.00  0.00     0.178 C 
ENDROOT
BRANCH   3   4
HETATM    4  C4  UNL     1      36.596  64.264-153.348  1.00  0.00     0.039 C 
BRANCH   4   5
HETATM    5  C5  UNL     1      37.904  64.017-154.002  1.00  0.00     0.004 C 
BRANCH   5   6
HETATM    6  C6  UNL     1      38.477  62.688-153.656  1.00  0.00     0.027 C 
BRANCH   6   7
HETATM    7  C7  UNL     1      39.911  62.606-153.309  1.00  0.00     0.229 C 
BRANCH   7   8
HETATM    8  N1  UNL     1      40.403  63.434-152.270  1.00  0.00    -0.079 N 
ATOM      9  H13 UNL     1      40.125  63.039-151.372  1.00  0.00     0.274 HD
ATOM     10  H12 UNL     1      41.417  63.338-152.222  1.00  0.00     0.274 HD
ATOM     11  H11 UNL     1      40.164  64.425-152.285  1.00  0.00     0.274 HD
ENDBRANCH   7   8
ENDBRANCH   6   7
ENDBRANCH   5   6
ENDBRANCH   4   5
ENDBRANCH   3   4
BRANCH   3  12
HETATM   12  N2  UNL     1      35.461  64.816-151.260  1.00  0.00    -0.209 N 
ATOM     13  H2  UNL     1      34.638  64.428-151.721  1.00  0.00     0.179 HD
BRANCH  12  14
HETATM   14  C8  UNL     1      35.302  65.480-150.167  1.00  0.00     0.704 A 
HETATM   15  N3  UNL     1      34.983  66.777-150.050  1.00  0.00    -0.117 N 
HETATM   16  N4  UNL     1      34.917  67.062-148.746  1.00  0.00     0.006 NA
ATOM     17  H3  UNL     1      34.819  67.428-150.818  1.00  0.00     0.202 HD
HETATM   18  N5  UNL     1      35.186  65.982-148.034  1.00  0.00     0.006 NA
HETATM   19  N6  UNL     1      35.419  65.021-148.911  1.00  0.00    -0.117 N 
ATOM     20  H6  UNL     1      35.657  64.059-148.667  1.00  0.00     0.202 HD
ENDBRANCH  12  14
ENDBRANCH   3  12
TORSDOF 7
ENDMDL
MODEL 2
REMARK VINA RESULT: -5.693095646      1.280      1.296
REMARK  7 active torsions:
REMARK  status: ('A' for Active; 'I' for Inactive)
REMARK    1  A    between atoms: C3_3  and  C4_4 
REMARK    2  A    between atoms: C3_3  and  N2_12 
REMARK    3  A    between atoms: C4_4  and  C5_5 
REMARK    4  A    between atoms: C5_5  and  C6_6 
REMARK    5  A    between atoms: C6_6  and  C7_7 
REMARK    6  A    between atoms: C7_7  and  N1_8 
REMARK    7  A    between atoms: N2_12  and  C8_14 
ROOT
HETATM    1  C1  UNL     1      38.584  66.699-151.850  1.00  0.00     0.014 C 
HETATM    2  C2  UNL     1      37.900  65.707-151.779  1.00  0.00    -0.091 C 
HETATM    3  C3  UNL     1      37.086  64.511-151.672  1.00  0.00     0.178 C 
ENDROOT
BRANCH   3   4
HETATM    4  C4  UNL     1      37.081  63.710-152.978  1.00  0.00     0.039 C 
BRANCH   4   5
HETATM    5  C5  UNL     1      38.438  63.231-153.334  1.00  0.00     0.004 C 
BRANCH   5   6
HETATM    6  C6  UNL     1      38.426  61.882-153.961  1.00  0.00     0.027 C 
BRANCH   6   7
HETATM    7  C7  UNL     1      39.659  61.068-153.911  1.00  0.00     0.229 C 
BRANCH   7   8
HETATM    8  N1  UNL     1      39.536  59.661-153.814  1.00  0.00    -0.079 N 
ATOM      9  H13 UNL     1      38.676  59.437-153.314  1.00  0.00     0.274 HD
ATOM     10  H12 UNL     1      39.331  59.281-154.738  1.00  0.00     0.274 HD
ATOM     11  H11 UNL     1      40.305  59.133-153.403  1.00  0.00     0.274 HD
ENDBRANCH   7   8
ENDBRANCH   6   7
ENDBRANCH   5   6
ENDBRANCH   4   5
ENDBRANCH   3   4
BRANCH   3  12
HETATM   12  N2  UNL     1      35.730  64.846-151.294  1.00  0.00    -0.209 N 
ATOM     13  H2  UNL     1      34.966  64.561-151.908  1.00  0.00     0.179 HD
BRANCH  12  14
HETATM   14  C8  UNL     1      35.445  65.488-150.213  1.00  0.00     0.704 A 
HETATM   15  N3  UNL     1      35.079  66.774-150.112  1.00  0.00    -0.117 N 
HETATM   16  N4  UNL     1      34.878  67.037-148.818  1.00  0.00     0.006 NA
ATOM     17  H3  UNL     1      34.973  67.432-150.884  1.00  0.00     0.202 HD
HETATM   18  N5  UNL     1      35.108  65.954-148.096  1.00  0.00     0.006 NA
HETATM   19  N6  UNL     1      35.453  65.013-148.958  1.00  0.00    -0.117 N 
ATOM     20  H6  UNL     1      35.692  64.054-148.704  1.00  0.00     0.202 HD
ENDBRANCH  12  14
ENDBRANCH   3  12
TORSDOF 7
ENDMDL
MODEL 3
REMARK VINA RESULT: -5.674883261      1.445      1.552
REMARK  7 active torsions:
REMARK  status: ('A' for Active; 'I' for Inactive)
REMARK    1  A    between atoms: C3_3  and  C4_4 
REMARK    2  A    between atoms: C3_3  and  N2_12 
REMARK    3  A    between atoms: C4_4  and  C5_5 
REMARK    4  A    between atoms: C5_5  and  C6_6 
REMARK    5  A    between atoms: C6_6  and  C7_7 
REMARK    6  A    between atoms: C7_7  and  N1_8 
REMARK    7  A    between atoms: N2_12  and  C8_14 
ROOT
HETATM    1  C1  UNL     1      38.931  67.522-151.002  1.00  0.00     0.014 C 
HETATM    2  C2  UNL     1      38.316  66.516-151.257  1.00  0.00    -0.091 C 
HETATM    3  C3  UNL     1      37.581  65.298-151.541  1.00  0.00     0.178 C 
ENDROOT
BRANCH   3   4
HETATM    4  C4  UNL     1      37.761  64.854-152.997  1.00  0.00     0.039 C 
BRANCH   4   5
HETATM    5  C5  UNL     1      37.392  63.431-153.188  1.00  0.00     0.004 C 
BRANCH   5   6
HETATM    6  C6  UNL     1      38.553  62.584-153.574  1.00  0.00     0.027 C 
BRANCH   6   7
HETATM    7  C7  UNL     1      38.784  62.312-155.008  1.00  0.00     0.229 C 
BRANCH   7   8
HETATM    8  N1  UNL     1      37.792  62.710-155.939  1.00  0.00    -0.079 N 
ATOM      9  H13 UNL     1      37.362  61.877-156.341  1.00  0.00     0.274 HD
ATOM     10  H12 UNL     1      37.005  63.113-155.432  1.00  0.00     0.274 HD
ATOM     11  H11 UNL     1      38.059  63.342-156.693  1.00  0.00     0.274 HD
ENDBRANCH   7   8
ENDBRANCH   6   7
ENDBRANCH   5   6
ENDBRANCH   4   5
ENDBRANCH   3   4
BRANCH   3  12
HETATM   12  N2  UNL     1      36.174  65.466-151.248  1.00  0.00    -0.209 N 
ATOM     13  H2  UNL     1      35.498  65.337-152.001  1.00  0.00     0.179 HD
BRANCH  12  14
HETATM   14  C8  UNL     1      35.738  65.773-150.074  1.00  0.00     0.704 A 
HETATM   15  N3  UNL     1      35.146  66.918-149.708  1.00  0.00    -0.117 N 
HETATM   16  N4  UNL     1      34.851  66.824-148.408  1.00  0.00     0.006 NA
ATOM     17  H3  UNL     1      34.956  67.718-150.312  1.00  0.00     0.202 HD
HETATM   18  N5  UNL     1      35.240  65.650-147.941  1.00  0.00     0.006 NA
HETATM   19  N6  UNL     1      35.780  65.015-148.967  1.00  0.00    -0.117 N 
ATOM     20  H6  UNL     1      36.175  64.075-148.923  1.00  0.00     0.202 HD
ENDBRANCH  12  14
ENDBRANCH   3  12
TORSDOF 7
ENDMDL
MODEL 4
REMARK VINA RESULT: -5.606245170      1.484      1.648
REMARK  7 active torsions:
REMARK  status: ('A' for Active; 'I' for Inactive)
REMARK    1  A    between atoms: C3_3  and  C4_4 
REMARK    2  A    between atoms: C3_3  and  N2_12 
REMARK    3  A    between atoms: C4_4  and  C5_5 
REMARK    4  A    between atoms: C5_5  and  C6_6 
REMARK    5  A    between atoms: C6_6  and  C7_7 
REMARK    6  A    between atoms: C7_7  and  N1_8 
REMARK    7  A    between atoms: N2_12  and  C8_14 
ROOT
HETATM    1  C1  UNL     1      38.562  66.711-151.619  1.00  0.00     0.014 C 
HETATM    2  C2  UNL     1      37.789  65.787-151.692  1.00  0.00    -0.091 C 
HETATM    3  C3  UNL     1      36.868  64.668-151.758  1.00  0.00     0.178 C 
ENDROOT
BRANCH   3   4
HETATM    4  C4  UNL     1      36.751  64.115-153.182  1.00  0.00     0.039 C 
BRANCH   4   5
HETATM    5  C5  UNL     1      37.764  63.066-153.450  1.00  0.00     0.004 C 
BRANCH   5   6
HETATM    6  C6  UNL     1      38.708  63.443-154.537  1.00  0.00     0.027 C 
BRANCH   6   7
HETATM    7  C7  UNL     1      38.522  64.744-155.214  1.00  0.00     0.229 C 
BRANCH   7   8
HETATM    8  N1  UNL     1      38.407  64.760-156.626  1.00  0.00    -0.079 N 
ATOM      9  H13 UNL     1      37.693  65.437-156.893  1.00  0.00     0.274 HD
ATOM     10  H12 UNL     1      39.243  65.189-157.022  1.00  0.00     0.274 HD
ATOM     11  H11 UNL     1      38.226  63.880-157.108  1.00  0.00     0.274 HD
ENDBRANCH   7   8
ENDBRANCH   6   7
ENDBRANCH   5   6
ENDBRANCH   4   5
ENDBRANCH   3   4
BRANCH   3  12
HETATM   12  N2  UNL     1      35.561  65.049-151.268  1.00  0.00    -0.209 N 
ATOM     13  H2  UNL     1      34.754  64.919-151.878  1.00  0.00     0.179 HD
BRANCH  12  14
HETATM   14  C8  UNL     1      35.374  65.545-150.093  1.00  0.00     0.704 A 
HETATM   15  N3  UNL     1      34.974  66.789-149.797  1.00  0.00    -0.117 N 
HETATM   16  N4  UNL     1      34.907  66.888-148.466  1.00  0.00     0.006 NA
ATOM     17  H3  UNL     1      34.758  67.528-150.468  1.00  0.00     0.202 HD
HETATM   18  N5  UNL     1      35.255  65.741-147.911  1.00  0.00     0.006 NA
HETATM   19  N6  UNL     1      35.538  64.926-148.913  1.00  0.00    -0.117 N 
ATOM     20  H6  UNL     1      35.840  63.958-148.804  1.00  0.00     0.202 HD
ENDBRANCH  12  14
ENDBRANCH   3  12
TORSDOF 7
ENDMDL
MODEL 5
REMARK VINA RESULT: -5.587888342      1.113      2.170
REMARK  7 active torsions:
REMARK  status: ('A' for Active; 'I' for Inactive)
REMARK    1  A    between atoms: C3_3  and  C4_4 
REMARK    2  A    between atoms: C3_3  and  N2_12 
REMARK    3  A    between atoms: C4_4  and  C5_5 
REMARK    4  A    between atoms: C5_5  and  C6_6 
REMARK    5  A    between atoms: C6_6  and  C7_7 
REMARK    6  A    between atoms: C7_7  and  N1_8 
REMARK    7  A    between atoms: N2_12  and  C8_14 
ROOT
HETATM    1  C1  UNL     1      37.464  63.024-153.556  1.00  0.00     0.014 C 
HETATM    2  C2  UNL     1      37.190  63.944-152.824  1.00  0.00    -0.091 C 
HETATM    3  C3  UNL     1      36.845  65.058-151.961  1.00  0.00     0.178 C 
ENDROOT
BRANCH   3   4
HETATM    4  C4  UNL     1      38.075  65.613-151.235  1.00  0.00     0.039 C 
BRANCH   4   5
HETATM    5  C5  UNL     1      38.928  66.422-152.138  1.00  0.00     0.004 C 
BRANCH   5   6
HETATM    6  C6  UNL     1      40.274  65.824-152.345  1.00  0.00     0.027 C 
BRANCH   6   7
HETATM    7  C7  UNL     1      40.677  64.680-151.499  1.00  0.00     0.229 C 
BRANCH   7   8
HETATM    8  N1  UNL     1      40.778  63.400-152.098  1.00  0.00    -0.079 N 
ATOM      9  H13 UNL     1      40.264  62.727-151.530  1.00  0.00     0.274 HD
ATOM     10  H12 UNL     1      40.230  63.392-152.957  1.00  0.00     0.274 HD
ATOM     11  H11 UNL     1      41.707  63.028-152.294  1.00  0.00     0.274 HD
ENDBRANCH   7   8
ENDBRANCH   6   7
ENDBRANCH   5   6
ENDBRANCH   4   5
ENDBRANCH   3   4
BRANCH   3  12
HETATM   12  N2  UNL     1      35.837  64.669-150.999  1.00  0.00    -0.209 N 
ATOM     13  H2  UNL     1      35.373  63.768-151.113  1.00  0.00     0.179 HD
BRANCH  12  14
HETATM   14  C8  UNL     1      35.501  65.414-150.001  1.00  0.00     0.704 A 
HETATM   15  N3  UNL     1      35.104  66.693-150.048  1.00  0.00    -0.117 N 
HETATM   16  N4  UNL     1      34.852  67.085-148.796  1.00  0.00     0.006 NA
ATOM     17  H3  UNL     1      35.011  67.265-150.888  1.00  0.00     0.202 HD
HETATM   18  N5  UNL     1      35.079  66.089-147.957  1.00  0.00     0.006 NA
HETATM   19  N6  UNL     1      35.475  65.072-148.703  1.00  0.00    -0.117 N 
ATOM     20  H6  UNL     1      35.726  64.152-148.342  1.00  0.00     0.202 HD
ENDBRANCH  12  14
ENDBRANCH   3  12
TORSDOF 7
ENDMDL
