MODEL 1
REMARK VINA RESULT: -4.909401011      0.000      0.000
REMARK  7 active torsions:
REMARK  status: ('A' for Active; 'I' for Inactive)
REMARK    1  A    between atoms: N1_1  and  C1_5 
REMARK    2  A    between atoms: C1_5  and  C2_6 
REMARK    3  A    between atoms: C2_6  and  N2_7 
REMARK    4  A    between atoms: N2_7  and  C3_10 
REMARK    5  A    between atoms: C3_10  and  C4_11 
REMARK    6  A    between atoms: C4_11  and  N3_12 
REMARK    7  A    between atoms: N3_12  and  C5_15 
ROOT
HETATM    1  N3  UNL     1      35.717  64.428-152.438  1.00  0.00    -0.069 N 
ATOM      2  H31 UNL     1      34.881  64.100-152.922  1.00  0.00     0.277 HD
ATOM      3  H32 UNL     1      35.733  65.384-152.795  1.00  0.00     0.277 HD
ENDROOT
BRANCH   1   4
HETATM    4  C4  UNL     1      36.905  63.677-152.839  1.00  0.00     0.260 C 
BRANCH   4   5
HETATM    5  C3  UNL     1      37.459  64.223-154.131  1.00  0.00     0.259 C 
BRANCH   5   6
HETATM    6  N2  UNL     1      37.453  63.265-155.184  1.00  0.00    -0.072 N 
ATOM      7  H22 UNL     1      36.937  63.603-155.996  1.00  0.00     0.277 HD
ATOM      8  H21 UNL     1      36.872  62.458-154.954  1.00  0.00     0.277 HD
BRANCH   6   9
HETATM    9  C2  UNL     1      38.769  62.877-155.529  1.00  0.00     0.259 C 
BRANCH   9  10
HETATM   10  C1  UNL     1      38.993  61.382-155.575  1.00  0.00     0.257 C 
BRANCH  10  11
HETATM   11  N1  UNL     1      38.334  60.738-154.458  1.00  0.00    -0.078 N 
ATOM     12  H13 UNL     1      38.065  61.409-153.738  1.00  0.00     0.274 HD
ATOM     13  H12 UNL     1      37.405  60.401-154.708  1.00  0.00     0.274 HD
ATOM     14  H11 UNL     1      38.920  59.992-154.081  1.00  0.00     0.274 HD
ENDBRANCH  10  11
ENDBRANCH   9  10
ENDBRANCH   6   9
ENDBRANCH   5   6
ENDBRANCH   4   5
ENDBRANCH   1   4
BRANCH   1  15
HETATM   15  C5  UNL     1      35.560  64.394-151.037  1.00  0.00     0.193 C 
HETATM   16  C6  UNL     1      34.299  65.095-150.531  1.00  0.00     0.066 C 
HETATM   17  C7  UNL     1      34.769  65.996-149.408  1.00  0.00     0.188 C 
HETATM   18  C8  UNL     1      35.923  65.139-148.877  1.00  0.00     0.041 C 
HETATM   19  N4  UNL     1      35.480  67.095-149.975  1.00  0.00    -0.070 N 
HETATM   20  C9  UNL     1      36.634  65.054-150.246  1.00  0.00     0.044 C 
HETATM   21  C10 UNL     1      36.728  66.535-150.507  1.00  0.00     0.239 C 
ATOM     22  H42 UNL     1      34.939  67.615-150.667  1.00  0.00     0.277 HD
ATOM     23  H41 UNL     1      35.624  67.866-149.324  1.00  0.00     0.277 HD
ENDBRANCH   1  15
TORSDOF 7
ENDMDL
MODEL 2
REMARK VINA RESULT: -4.842991235      1.226      1.257
REMARK  7 active torsions:
REMARK  status: ('A' for Active; 'I' for Inactive)
REMARK    1  A    between atoms: N1_1  and  C1_5 
REMARK    2  A    between atoms: C1_5  and  C2_6 
REMARK    3  A    between atoms: C2_6  and  N2_7 
REMARK    4  A    between atoms: N2_7  and  C3_10 
REMARK    5  A    between atoms: C3_10  and  C4_11 
REMARK    6  A    between atoms: C4_11  and  N3_12 
REMARK    7  A    between atoms: N3_12  and  C5_15 
ROOT
HETATM    1  N3  UNL     1      35.920  64.644-152.835  1.00  0.00    -0.069 N 
ATOM      2  H31 UNL     1      35.245  64.024-153.283  1.00  0.00     0.277 HD
ATOM      3  H32 UNL     1      35.478  65.536-153.057  1.00  0.00     0.277 HD
ENDROOT
BRANCH   1   4
HETATM    4  C4  UNL     1      37.247  64.529-153.438  1.00  0.00     0.260 C 
BRANCH   4   5
HETATM    5  C3  UNL     1      37.660  63.081-153.524  1.00  0.00     0.259 C 
BRANCH   5   6
HETATM    6  N2  UNL     1      38.995  62.860-153.085  1.00  0.00    -0.072 N 
ATOM      7  H22 UNL     1      39.028  62.606-152.098  1.00  0.00     0.277 HD
ATOM      8  H21 UNL     1      39.525  63.731-153.040  1.00  0.00     0.277 HD
BRANCH   6   9
HETATM    9  C2  UNL     1      39.645  61.896-153.892  1.00  0.00     0.259 C 
BRANCH   9  10
HETATM   10  C1  UNL     1      38.804  60.685-154.227  1.00  0.00     0.257 C 
BRANCH  10  11
HETATM   11  N1  UNL     1      39.514  59.469-153.891  1.00  0.00    -0.078 N 
ATOM     12  H13 UNL     1      40.515  59.552-154.069  1.00  0.00     0.274 HD
ATOM     13  H12 UNL     1      39.551  59.316-152.883  1.00  0.00     0.274 HD
ATOM     14  H11 UNL     1      39.106  58.672-154.381  1.00  0.00     0.274 HD
ENDBRANCH  10  11
ENDBRANCH   9  10
ENDBRANCH   6   9
ENDBRANCH   5   6
ENDBRANCH   4   5
ENDBRANCH   1   4
BRANCH   1  15
HETATM   15  C5  UNL     1      35.988  64.425-151.443  1.00  0.00     0.193 C 
HETATM   16  C6  UNL     1      34.693  64.741-150.696  1.00  0.00     0.066 C 
HETATM   17  C7  UNL     1      35.111  65.605-149.524  1.00  0.00     0.188 C 
HETATM   18  C8  UNL     1      36.496  65.004-149.262  1.00  0.00     0.041 C 
HETATM   19  N4  UNL     1      35.461  66.898-150.017  1.00  0.00    -0.070 N 
HETATM   20  C9  UNL     1      36.992  65.239-150.705  1.00  0.00     0.044 C 
HETATM   21  C10 UNL     1      36.708  66.718-150.768  1.00  0.00     0.239 C 
ATOM     22  H42 UNL     1      34.719  67.341-150.558  1.00  0.00     0.277 HD
ATOM     23  H41 UNL     1      35.523  67.608-149.288  1.00  0.00     0.277 HD
ENDBRANCH   1  15
TORSDOF 7
ENDMDL
MODEL 3
REMARK VINA RESULT: -4.778100539      1.052      1.745
REMARK  7 active torsions:
REMARK  status: ('A' for Active; 'I' for Inactive)
REMARK    1  A    between atoms: N1_1  and  C1_5 
REMARK    2  A    between atoms: C1_5  and  C2_6 
REMARK    3  A    between atoms: C2_6  and  N2_7 
REMARK    4  A    between atoms: N2_7  and  C3_10 
REMARK    5  A    between atoms: C3_10  and  C4_11 
REMARK    6  A    between atoms: C4_11  and  N3_12 
REMARK    7  A    between atoms: N3_12  and  C5_15 
ROOT
HETATM    1  N3  UNL     1      35.787  64.392-152.467  1.00  0.00    -0.069 N 
ATOM      2  H31 UNL     1      34.974  64.011-152.951  1.00  0.00     0.277 HD
ATOM      3  H32 UNL     1      35.756  65.340-152.841  1.00  0.00     0.277 HD
ENDROOT
BRANCH   1   4
HETATM    4  C4  UNL     1      37.018  63.699-152.846  1.00  0.00     0.260 C 
BRANCH   4   5
HETATM    5  C3  UNL     1      37.553  64.251-154.143  1.00  0.00     0.259 C 
BRANCH   5   6
HETATM    6  N2  UNL     1      37.567  63.287-155.190  1.00  0.00    -0.072 N 
ATOM      7  H22 UNL     1      36.724  63.343-155.763  1.00  0.00     0.277 HD
ATOM      8  H21 UNL     1      37.448  62.340-154.830  1.00  0.00     0.277 HD
BRANCH   6   9
HETATM    9  C2  UNL     1      38.738  63.403-155.975  1.00  0.00     0.259 C 
BRANCH   9  10
HETATM   10  C1  UNL     1      39.096  64.819-156.368  1.00  0.00     0.257 C 
BRANCH  10  11
HETATM   11  N1  UNL     1      38.393  65.201-157.575  1.00  0.00    -0.078 N 
ATOM     12  H13 UNL     1      38.820  66.012-158.022  1.00  0.00     0.274 HD
ATOM     13  H12 UNL     1      38.531  64.523-158.325  1.00  0.00     0.274 HD
ATOM     14  H11 UNL     1      37.404  65.353-157.378  1.00  0.00     0.274 HD
ENDBRANCH  10  11
ENDBRANCH   9  10
ENDBRANCH   6   9
ENDBRANCH   5   6
ENDBRANCH   4   5
ENDBRANCH   1   4
BRANCH   1  15
HETATM   15  C5  UNL     1      35.620  64.374-151.067  1.00  0.00     0.193 C 
HETATM   16  C6  UNL     1      34.357  65.082-150.578  1.00  0.00     0.066 C 
HETATM   17  C7  UNL     1      34.820  65.995-149.462  1.00  0.00     0.188 C 
HETATM   18  C8  UNL     1      35.970  65.143-148.913  1.00  0.00     0.041 C 
HETATM   19  N4  UNL     1      35.536  67.087-150.037  1.00  0.00    -0.070 N 
HETATM   20  C9  UNL     1      36.690  65.042-150.276  1.00  0.00     0.044 C 
HETATM   21  C10 UNL     1      36.787  66.520-150.553  1.00  0.00     0.239 C 
ATOM     22  H42 UNL     1      35.001  67.600-150.738  1.00  0.00     0.277 HD
ATOM     23  H41 UNL     1      35.676  67.866-149.394  1.00  0.00     0.277 HD
ENDBRANCH   1  15
TORSDOF 7
ENDMDL
MODEL 4
REMARK VINA RESULT: -4.759751885      1.145      1.164
REMARK  7 active torsions:
REMARK  status: ('A' for Active; 'I' for Inactive)
REMARK    1  A    between atoms: N1_1  and  C1_5 
REMARK    2  A    between atoms: C1_5  and  C2_6 
REMARK    3  A    between atoms: C2_6  and  N2_7 
REMARK    4  A    between atoms: N2_7  and  C3_10 
REMARK    5  A    between atoms: C3_10  and  C4_11 
REMARK    6  A    between atoms: C4_11  and  N3_12 
REMARK    7  A    between atoms: N3_12  and  C5_15 
ROOT
HETATM    1  N3  UNL     1      35.620  64.453-152.343  1.00  0.00    -0.069 N 
ATOM      2  H31 UNL     1      34.764  64.151-152.807  1.00  0.00     0.277 HD
ATOM      3  H32 UNL     1      35.658  65.407-152.702  1.00  0.00     0.277 HD
ENDROOT
BRANCH   1   4
HETATM    4  C4  UNL     1      36.776  63.665-152.768  1.00  0.00     0.260 C 
BRANCH   4   5
HETATM    5  C3  UNL     1      37.274  64.145-154.107  1.00  0.00     0.259 C 
BRANCH   5   6
HETATM    6  N2  UNL     1      37.787  63.092-154.916  1.00  0.00    -0.072 N 
ATOM      7  H22 UNL     1      38.339  63.452-155.695  1.00  0.00     0.277 HD
ATOM      8  H21 UNL     1      37.048  62.631-155.447  1.00  0.00     0.277 HD
BRANCH   6   9
HETATM    9  C2  UNL     1      38.524  62.166-154.141  1.00  0.00     0.259 C 
BRANCH   9  10
HETATM   10  C1  UNL     1      40.008  62.452-154.060  1.00  0.00     0.257 C 
BRANCH  10  11
HETATM   11  N1  UNL     1      40.375  62.837-152.713  1.00  0.00    -0.078 N 
ATOM     12  H13 UNL     1      39.566  62.864-152.092  1.00  0.00     0.274 HD
ATOM     13  H12 UNL     1      40.906  62.106-152.240  1.00  0.00     0.274 HD
ATOM     14  H11 UNL     1      40.876  63.725-152.721  1.00  0.00     0.274 HD
ENDBRANCH  10  11
ENDBRANCH   9  10
ENDBRANCH   6   9
ENDBRANCH   5   6
ENDBRANCH   4   5
ENDBRANCH   1   4
BRANCH   1  15
HETATM   15  C5  UNL     1      35.492  64.427-150.938  1.00  0.00     0.193 C 
HETATM   16  C6  UNL     1      34.248  65.140-150.410  1.00  0.00     0.066 C 
HETATM   17  C7  UNL     1      34.749  66.042-149.300  1.00  0.00     0.188 C 
HETATM   18  C8  UNL     1      35.907  65.178-148.790  1.00  0.00     0.041 C 
HETATM   19  N4  UNL     1      35.457  67.133-149.888  1.00  0.00    -0.070 N 
HETATM   20  C9  UNL     1      36.588  65.081-150.173  1.00  0.00     0.044 C 
HETATM   21  C10 UNL     1      36.689  66.561-150.443  1.00  0.00     0.239 C 
ATOM     22  H42 UNL     1      34.906  67.655-150.570  1.00  0.00     0.277 HD
ATOM     23  H41 UNL     1      35.621  67.906-149.243  1.00  0.00     0.277 HD
ENDBRANCH   1  15
TORSDOF 7
ENDMDL
MODEL 5
REMARK VINA RESULT: -4.696305104      1.287      6.296
REMARK  7 active torsions:
REMARK  status: ('A' for Active; 'I' for Inactive)
REMARK    1  A    between atoms: N1_1  and  C1_5 
REMARK    2  A    between atoms: C1_5  and  C2_6 
REMARK    3  A    between atoms: C2_6  and  N2_7 
REMARK    4  A    between atoms: N2_7  and  C3_10 
REMARK    5  A    between atoms: C3_10  and  C4_11 
REMARK    6  A    between atoms: C4_11  and  N3_12 
REMARK    7  A    between atoms: N3_12  and  C5_15 
ROOT
HETATM    1  N3  UNL     1      36.710  63.708-154.083  1.00  0.00    -0.069 N 
ATOM      2  H31 UNL     1      36.199  63.759-154.964  1.00  0.00     0.277 HD
ATOM      3  H32 UNL     1      36.425  62.771-153.796  1.00  0.00     0.277 HD
ENDROOT
BRANCH   1   4
HETATM    4  C4  UNL     1      36.260  64.727-153.135  1.00  0.00     0.260 C 
BRANCH   4   5
HETATM    5  C3  UNL     1      35.923  64.096-151.808  1.00  0.00     0.259 C 
BRANCH   5   6
HETATM    6  N2  UNL     1      36.792  64.515-150.761  1.00  0.00    -0.072 N 
ATOM      7  H22 UNL     1      37.352  65.322-151.038  1.00  0.00     0.277 HD
ATOM      8  H21 UNL     1      37.547  63.846-150.609  1.00  0.00     0.277 HD
BRANCH   6   9
HETATM    9  C2  UNL     1      36.072  64.765-149.569  1.00  0.00     0.259 C 
BRANCH   9  10
HETATM   10  C1  UNL     1      34.892  65.699-149.730  1.00  0.00     0.257 C 
BRANCH  10  11
HETATM   11  N1  UNL     1      35.349  67.059-149.925  1.00  0.00    -0.078 N 
ATOM     12  H13 UNL     1      36.181  67.100-150.514  1.00  0.00     0.274 HD
ATOM     13  H12 UNL     1      34.714  67.591-150.520  1.00  0.00     0.274 HD
ATOM     14  H11 UNL     1      35.498  67.516-149.025  1.00  0.00     0.274 HD
ENDBRANCH  10  11
ENDBRANCH   9  10
ENDBRANCH   6   9
ENDBRANCH   5   6
ENDBRANCH   4   5
ENDBRANCH   1   4
BRANCH   1  15
HETATM   15  C5  UNL     1      38.104  63.796-154.278  1.00  0.00     0.193 C 
HETATM   16  C6  UNL     1      38.541  63.659-155.737  1.00  0.00     0.066 C 
HETATM   17  C7  UNL     1      39.662  62.640-155.720  1.00  0.00     0.188 C 
HETATM   18  C8  UNL     1      40.259  62.958-154.345  1.00  0.00     0.041 C 
HETATM   19  N4  UNL     1      39.099  61.350-155.485  1.00  0.00    -0.070 N 
HETATM   20  C9  UNL     1      38.923  62.756-153.597  1.00  0.00     0.044 C 
HETATM   21  C10 UNL     1      38.632  61.363-154.093  1.00  0.00     0.239 C 
ATOM     22  H42 UNL     1      38.375  61.094-156.155  1.00  0.00     0.277 HD
ATOM     23  H41 UNL     1      39.738  60.583-155.693  1.00  0.00     0.277 HD
ENDBRANCH   1  15
TORSDOF 7
ENDMDL
