MODEL 1
REMARK VINA RESULT: -5.434870424      0.000      0.000
REMARK  6 active torsions:
REMARK  status: ('A' for Active; 'I' for Inactive)
REMARK    1  A    between atoms: C2_2  and  C3_3 
REMARK    2  A    between atoms: C3_3  and  N1_4 
REMARK    3  A    between atoms: N1_4  and  C4_7 
REMARK    4  A    between atoms: C4_7  and  C5_8 
REMARK    5  A    between atoms: C5_8  and  N2_9 
REMARK    6  A    between atoms: N2_9  and  C6_11 
ROOT
HETATM    1  C6  UNL     1      37.961  62.746-153.884  1.00  0.00     0.709 A 
HETATM    2  N3  UNL     1      37.979  61.420-154.215  1.00  0.00    -0.020 N 
ATOM      3  H3  UNL     1      37.192  60.903-154.608  1.00  0.00     0.203 HD
HETATM    4  C7  UNL     1      39.168  60.906-153.948  1.00  0.00     0.705 A 
HETATM    5  N4  UNL     1      39.618  59.698-154.104  1.00  0.00    -0.233 N 
ATOM      6  H41 UNL     1      40.535  59.302-153.898  1.00  0.00     0.174 HD
ATOM      7  H42 UNL     1      39.035  58.954-154.488  1.00  0.00     0.174 HD
HETATM    8  N5  UNL     1      39.935  61.886-153.444  1.00  0.00    -0.116 N 
ATOM      9  H5  UNL     1      40.905  61.800-153.141  1.00  0.00     0.206 HD
HETATM   10  N6  UNL     1      39.186  63.000-153.411  1.00  0.00    -0.114 N 
HETATM   11  C8  UNL     1      39.642  64.299-152.929  1.00  0.00     0.198 C 
ENDROOT
BRANCH   1  12
HETATM   12  N2  UNL     1      36.922  63.475-154.045  1.00  0.00    -0.223 N 
ATOM     13  H2  UNL     1      36.314  63.211-154.820  1.00  0.00     0.177 HD
BRANCH  12  14
HETATM   14  C5  UNL     1      36.502  64.600-153.293  1.00  0.00     0.165 C 
BRANCH  14  15
HETATM   15  C4  UNL     1      35.879  64.102-151.996  1.00  0.00     0.252 C 
BRANCH  15  16
HETATM   16  N1  UNL     1      36.644  64.568-150.850  1.00  0.00    -0.071 N 
ATOM     17  H12 UNL     1      37.646  64.427-150.981  1.00  0.00     0.277 HD
ATOM     18  H11 UNL     1      36.511  63.969-150.036  1.00  0.00     0.277 HD
BRANCH  16  19
HETATM   19  C3  UNL     1      36.330  65.951-150.558  1.00  0.00     0.259 C 
BRANCH  19  20
HETATM   20  C2  UNL     1      34.948  66.003-150.029  1.00  0.00    -0.010 C 
HETATM   21  C1  UNL     1      34.731  65.996-148.707  1.00  0.00     0.008 C 
ENDBRANCH  19  20
ENDBRANCH  16  19
ENDBRANCH  15  16
ENDBRANCH  14  15
ENDBRANCH  12  14
ENDBRANCH   1  12
TORSDOF 6
ENDMDL
MODEL 2
REMARK VINA RESULT: -5.177388041      0.955      2.067
REMARK  6 active torsions:
REMARK  status: ('A' for Active; 'I' for Inactive)
REMARK    1  A    between atoms: C2_2  and  C3_3 
REMARK    2  A    between atoms: C3_3  and  N1_4 
REMARK    3  A    between atoms: N1_4  and  C4_7 
REMARK    4  A    between atoms: C4_7  and  C5_8 
REMARK    5  A    between atoms: C5_8  and  N2_9 
REMARK    6  A    between atoms: N2_9  and  C6_11 
ROOT
HETATM    1  C6  UNL     1      38.371  62.908-153.398  1.00  0.00     0.709 A 
HETATM    2  N3  UNL     1      39.233  63.751-152.755  1.00  0.00    -0.020 N 
ATOM      3  H3  UNL     1      38.982  64.658-152.362  1.00  0.00     0.203 HD
HETATM    4  C7  UNL     1      40.442  63.215-152.718  1.00  0.00     0.705 A 
HETATM    5  N4  UNL     1      41.548  63.666-152.211  1.00  0.00    -0.233 N 
ATOM      6  H41 UNL     1      42.481  63.252-152.183  1.00  0.00     0.174 HD
ATOM      7  H42 UNL     1      41.595  64.571-151.742  1.00  0.00     0.174 HD
HETATM    8  N5  UNL     1      40.381  62.023-153.334  1.00  0.00    -0.116 N 
ATOM      9  H5  UNL     1      41.154  61.370-153.467  1.00  0.00     0.206 HD
HETATM   10  N6  UNL     1      39.114  61.850-153.743  1.00  0.00    -0.114 N 
HETATM   11  C8  UNL     1      38.619  60.679-154.457  1.00  0.00     0.198 C 
ENDROOT
BRANCH   1  12
HETATM   12  N2  UNL     1      37.135  63.195-153.567  1.00  0.00    -0.223 N 
ATOM     13  H2  UNL     1      36.583  62.494-154.061  1.00  0.00     0.177 HD
BRANCH  12  14
HETATM   14  C5  UNL     1      36.431  64.355-153.161  1.00  0.00     0.165 C 
BRANCH  14  15
HETATM   15  C4  UNL     1      35.715  64.045-151.852  1.00  0.00     0.252 C 
BRANCH  15  16
HETATM   16  N1  UNL     1      36.493  64.522-150.720  1.00  0.00    -0.071 N 
ATOM     17  H12 UNL     1      37.472  64.241-150.788  1.00  0.00     0.277 HD
ATOM     18  H11 UNL     1      36.253  64.029-149.860  1.00  0.00     0.277 HD
BRANCH  16  19
HETATM   19  C3  UNL     1      36.353  65.956-150.576  1.00  0.00     0.259 C 
BRANCH  19  20
HETATM   20  C2  UNL     1      35.018  66.229-149.996  1.00  0.00    -0.010 C 
HETATM   21  C1  UNL     1      34.766  65.931-148.715  1.00  0.00     0.008 C 
ENDBRANCH  19  20
ENDBRANCH  16  19
ENDBRANCH  15  16
ENDBRANCH  14  15
ENDBRANCH  12  14
ENDBRANCH   1  12
TORSDOF 6
ENDMDL
MODEL 3
REMARK VINA RESULT: -5.102706500      2.015      6.065
REMARK  6 active torsions:
REMARK  status: ('A' for Active; 'I' for Inactive)
REMARK    1  A    between atoms: C2_2  and  C3_3 
REMARK    2  A    between atoms: C3_3  and  N1_4 
REMARK    3  A    between atoms: N1_4  and  C4_7 
REMARK    4  A    between atoms: C4_7  and  C5_8 
REMARK    5  A    between atoms: C5_8  and  N2_9 
REMARK    6  A    between atoms: N2_9  and  C6_11 
ROOT
HETATM    1  C6  UNL     1      36.840  65.132-151.435  1.00  0.00     0.709 A 
HETATM    2  N3  UNL     1      35.554  64.841-151.072  1.00  0.00    -0.020 N 
ATOM      3  H3  UNL     1      35.069  63.969-151.280  1.00  0.00     0.203 HD
HETATM    4  C7  UNL     1      35.033  65.861-150.411  1.00  0.00     0.705 A 
HETATM    5  N4  UNL     1      33.854  66.013-149.890  1.00  0.00    -0.233 N 
ATOM      6  H41 UNL     1      33.451  66.801-149.381  1.00  0.00     0.174 HD
ATOM      7  H42 UNL     1      33.144  65.283-149.947  1.00  0.00     0.174 HD
HETATM    8  N5  UNL     1      35.967  66.823-150.337  1.00  0.00    -0.116 N 
ATOM      9  H5  UNL     1      35.865  67.733-149.887  1.00  0.00     0.206 HD
HETATM   10  N6  UNL     1      37.062  66.364-150.964  1.00  0.00    -0.114 N 
HETATM   11  C8  UNL     1      38.312  67.101-151.111  1.00  0.00     0.198 C 
ENDROOT
BRANCH   1  12
HETATM   12  N2  UNL     1      37.567  64.305-152.088  1.00  0.00    -0.223 N 
ATOM     13  H2  UNL     1      38.551  64.279-151.823  1.00  0.00     0.177 HD
BRANCH  12  14
HETATM   14  C5  UNL     1      37.189  63.421-153.129  1.00  0.00     0.165 C 
BRANCH  14  15
HETATM   15  C4  UNL     1      37.850  63.891-154.419  1.00  0.00     0.252 C 
BRANCH  15  16
HETATM   16  N1  UNL     1      37.691  62.894-155.465  1.00  0.00    -0.071 N 
ATOM     17  H12 UNL     1      37.211  63.274-156.281  1.00  0.00     0.277 HD
ATOM     18  H11 UNL     1      37.011  62.179-155.207  1.00  0.00     0.277 HD
BRANCH  16  19
HETATM   19  C3  UNL     1      38.972  62.316-155.815  1.00  0.00     0.259 C 
BRANCH  19  20
HETATM   20  C2  UNL     1      38.887  60.853-155.602  1.00  0.00    -0.010 C 
HETATM   21  C1  UNL     1      39.004  60.343-154.368  1.00  0.00     0.008 C 
ENDBRANCH  19  20
ENDBRANCH  16  19
ENDBRANCH  15  16
ENDBRANCH  14  15
ENDBRANCH  12  14
ENDBRANCH   1  12
TORSDOF 6
ENDMDL
MODEL 4
REMARK VINA RESULT: -5.079158254      1.418      2.356
REMARK  6 active torsions:
REMARK  status: ('A' for Active; 'I' for Inactive)
REMARK    1  A    between atoms: C2_2  and  C3_3 
REMARK    2  A    between atoms: C3_3  and  N1_4 
REMARK    3  A    between atoms: N1_4  and  C4_7 
REMARK    4  A    between atoms: C4_7  and  C5_8 
REMARK    5  A    between atoms: C5_8  and  N2_9 
REMARK    6  A    between atoms: N2_9  and  C6_11 
ROOT
HETATM    1  C6  UNL     1      38.655  64.165-152.906  1.00  0.00     0.709 A 
HETATM    2  N3  UNL     1      39.487  63.101-153.117  1.00  0.00    -0.020 N 
ATOM      3  H3  UNL     1      40.480  63.079-152.885  1.00  0.00     0.203 HD
HETATM    4  C7  UNL     1      38.813  62.105-153.667  1.00  0.00     0.705 A 
HETATM    5  N4  UNL     1      39.205  60.923-154.032  1.00  0.00    -0.233 N 
ATOM      6  H41 UNL     1      38.685  60.155-154.457  1.00  0.00     0.174 HD
ATOM      7  H42 UNL     1      40.171  60.618-153.916  1.00  0.00     0.174 HD
HETATM    8  N5  UNL     1      37.541  62.506-153.820  1.00  0.00    -0.116 N 
ATOM      9  H5  UNL     1      36.777  61.959-154.219  1.00  0.00     0.206 HD
HETATM   10  N6  UNL     1      37.460  63.762-153.352  1.00  0.00    -0.114 N 
HETATM   11  C8  UNL     1      36.246  64.570-153.332  1.00  0.00     0.198 C 
ENDROOT
BRANCH   1  12
HETATM   12  N2  UNL     1      39.065  65.258-152.382  1.00  0.00    -0.223 N 
ATOM     13  H2  UNL     1      39.269  66.012-153.037  1.00  0.00     0.177 HD
BRANCH  12  14
HETATM   14  C5  UNL     1      39.274  65.562-151.014  1.00  0.00     0.165 C 
BRANCH  14  15
HETATM   15  C4  UNL     1      37.920  65.843-150.374  1.00  0.00     0.252 C 
BRANCH  15  16
HETATM   16  N1  UNL     1      37.617  64.843-149.363  1.00  0.00    -0.071 N 
ATOM     17  H12 UNL     1      38.077  65.050-148.476  1.00  0.00     0.277 HD
ATOM     18  H11 UNL     1      38.068  63.951-149.564  1.00  0.00     0.277 HD
BRANCH  16  19
HETATM   19  C3  UNL     1      36.184  64.699-149.204  1.00  0.00     0.259 C 
BRANCH  19  20
HETATM   20  C2  UNL     1      35.543  65.940-149.697  1.00  0.00    -0.010 C 
HETATM   21  C1  UNL     1      34.222  65.976-149.915  1.00  0.00     0.008 C 
ENDBRANCH  19  20
ENDBRANCH  16  19
ENDBRANCH  15  16
ENDBRANCH  14  15
ENDBRANCH  12  14
ENDBRANCH   1  12
TORSDOF 6
ENDMDL
MODEL 5
REMARK VINA RESULT: -5.048618494      1.808      6.317
REMARK  6 active torsions:
REMARK  status: ('A' for Active; 'I' for Inactive)
REMARK    1  A    between atoms: C2_2  and  C3_3 
REMARK    2  A    between atoms: C3_3  and  N1_4 
REMARK    3  A    between atoms: N1_4  and  C4_7 
REMARK    4  A    between atoms: C4_7  and  C5_8 
REMARK    5  A    between atoms: C5_8  and  N2_9 
REMARK    6  A    between atoms: N2_9  and  C6_11 
ROOT
HETATM    1  C6  UNL     1      36.887  65.015-151.477  1.00  0.00     0.709 A 
HETATM    2  N3  UNL     1      35.612  64.772-151.050  1.00  0.00    -0.020 N 
ATOM      3  H3  UNL     1      35.113  63.890-151.168  1.00  0.00     0.203 HD
HETATM    4  C7  UNL     1      35.121  65.850-150.461  1.00  0.00     0.705 A 
HETATM    5  N4  UNL     1      33.961  66.059-149.918  1.00  0.00    -0.233 N 
ATOM      6  H41 UNL     1      33.583  66.891-149.464  1.00  0.00     0.174 HD
ATOM      7  H42 UNL     1      33.243  65.335-149.890  1.00  0.00     0.174 HD
HETATM    8  N5  UNL     1      36.066  66.803-150.498  1.00  0.00    -0.116 N 
ATOM      9  H5  UNL     1      35.987  67.749-150.123  1.00  0.00     0.206 HD
HETATM   10  N6  UNL     1      37.136  66.280-151.119  1.00  0.00    -0.114 N 
HETATM   11  C8  UNL     1      38.387  66.987-151.367  1.00  0.00     0.198 C 
ENDROOT
BRANCH   1  12
HETATM   12  N2  UNL     1      37.585  64.129-152.080  1.00  0.00    -0.223 N 
ATOM     13  H2  UNL     1      38.483  63.907-151.650  1.00  0.00     0.177 HD
BRANCH  12  14
HETATM   14  C5  UNL     1      37.280  63.414-153.264  1.00  0.00     0.165 C 
BRANCH  14  15
HETATM   15  C4  UNL     1      38.484  62.554-153.628  1.00  0.00     0.252 C 
BRANCH  15  16
HETATM   16  N1  UNL     1      38.060  61.365-154.350  1.00  0.00    -0.071 N 
ATOM     17  H12 UNL     1      37.769  61.583-155.303  1.00  0.00     0.277 HD
ATOM     18  H11 UNL     1      37.174  61.003-153.999  1.00  0.00     0.277 HD
BRANCH  16  19
HETATM   19  C3  UNL     1      39.101  60.357-154.323  1.00  0.00     0.259 C 
BRANCH  19  20
HETATM   20  C2  UNL     1      39.423  59.996-155.723  1.00  0.00    -0.010 C 
HETATM   21  C1  UNL     1      38.477  60.059-156.670  1.00  0.00     0.008 C 
ENDBRANCH  19  20
ENDBRANCH  16  19
ENDBRANCH  15  16
ENDBRANCH  14  15
ENDBRANCH  12  14
ENDBRANCH   1  12
TORSDOF 6
ENDMDL
