MODEL 1
REMARK VINA RESULT: -5.618161452      0.000      0.000
REMARK  5 active torsions:
REMARK  status: ('A' for Active; 'I' for Inactive)
REMARK    1  A    between atoms: C2_3  and  N2_4 
REMARK    2  A    between atoms: N2_4  and  C3_7 
REMARK    3  A    between atoms: C3_7  and  C4_8 
REMARK    4  A    between atoms: C4_8  and  C5_9 
REMARK    5  A    between atoms: C5_9  and  N3_10 
ROOT
HETATM    1  N1  UNL     1      35.026  65.974-147.696  1.00  0.00    -0.196 NA
HETATM    2  C1  UNL     1      35.006  65.717-148.840  1.00  0.00     0.086 C 
HETATM    3  C2  UNL     1      34.978  65.373-150.263  1.00  0.00     0.355 C 
ENDROOT
BRANCH   3   4
HETATM    4  N2  UNL     1      35.481  66.491-151.035  1.00  0.00    -0.063 N 
ATOM      5  H22 UNL     1      35.384  66.327-152.036  1.00  0.00     0.278 HD
ATOM      6  H21 UNL     1      34.875  67.307-150.950  1.00  0.00     0.278 HD
BRANCH   4   7
HETATM    7  C3  UNL     1      36.862  66.810-150.676  1.00  0.00     0.235 C 
BRANCH   7   8
HETATM    8  C4  UNL     1      37.812  65.776-151.207  1.00  0.00     0.050 C 
BRANCH   8   9
HETATM    9  C5  UNL     1      38.195  65.943-152.629  1.00  0.00     0.177 C 
BRANCH   9  10
HETATM   10  N3  UNL     1      38.355  64.786-153.422  1.00  0.00    -0.089 N 
HETATM   11  O1  UNL     1      39.582  64.422-153.890  1.00  0.00    -0.263 OA
HETATM   12  C6  UNL     1      39.847  63.200-153.231  1.00  0.00     0.222 C 
HETATM   13  C7  UNL     1      38.936  62.086-153.681  1.00  0.00     0.166 C 
HETATM   14  N4  UNL     1      37.629  62.539-154.078  1.00  0.00    -0.223 N 
HETATM   15  C8  UNL     1      37.296  63.908-153.789  1.00  0.00     0.693 C 
ATOM     16  H4  UNL     1      36.968  61.918-154.544  1.00  0.00     0.177 HD
HETATM   17  N5  UNL     1      36.100  64.372-153.835  1.00  0.00    -0.233 N 
ATOM     18  H52 UNL     1      35.864  65.343-153.630  1.00  0.00     0.174 HD
ATOM     19  H51 UNL     1      35.341  63.744-154.098  1.00  0.00     0.174 HD
ENDBRANCH   9  10
ENDBRANCH   8   9
ENDBRANCH   7   8
ENDBRANCH   4   7
ENDBRANCH   3   4
TORSDOF 5
ENDMDL
MODEL 2
REMARK VINA RESULT: -5.495711980      1.304      1.791
REMARK  5 active torsions:
REMARK  status: ('A' for Active; 'I' for Inactive)
REMARK    1  A    between atoms: C2_3  and  N2_4 
REMARK    2  A    between atoms: N2_4  and  C3_7 
REMARK    3  A    between atoms: C3_7  and  C4_8 
REMARK    4  A    between atoms: C4_8  and  C5_9 
REMARK    5  A    between atoms: C5_9  and  N3_10 
ROOT
HETATM    1  N1  UNL     1      35.148  65.994-147.622  1.00  0.00    -0.196 NA
HETATM    2  C1  UNL     1      34.712  66.020-148.711  1.00  0.00     0.086 C 
HETATM    3  C2  UNL     1      34.149  66.039-150.063  1.00  0.00     0.355 C 
ENDROOT
BRANCH   3   4
HETATM    4  N2  UNL     1      35.172  66.453-151.001  1.00  0.00    -0.063 N 
ATOM      5  H22 UNL     1      34.796  66.555-151.943  1.00  0.00     0.278 HD
ATOM      6  H21 UNL     1      35.457  67.419-150.840  1.00  0.00     0.278 HD
BRANCH   4   7
HETATM    7  C3  UNL     1      36.319  65.547-150.977  1.00  0.00     0.235 C 
BRANCH   7   8
HETATM    8  C4  UNL     1      36.100  64.374-151.888  1.00  0.00     0.050 C 
BRANCH   8   9
HETATM    9  C5  UNL     1      36.701  64.502-153.237  1.00  0.00     0.177 C 
BRANCH   9  10
HETATM   10  N3  UNL     1      38.072  64.206-153.394  1.00  0.00    -0.089 N 
HETATM   11  O1  UNL     1      39.000  65.201-153.458  1.00  0.00    -0.263 OA
HETATM   12  C6  UNL     1      39.775  65.018-152.290  1.00  0.00     0.222 C 
HETATM   13  C7  UNL     1      40.591  63.751-152.324  1.00  0.00     0.166 C 
HETATM   14  N4  UNL     1      39.971  62.690-153.074  1.00  0.00    -0.223 N 
HETATM   15  C8  UNL     1      38.607  62.890-153.482  1.00  0.00     0.693 C 
ATOM     16  H4  UNL     1      40.477  61.835-153.305  1.00  0.00     0.177 HD
HETATM   17  N5  UNL     1      37.849  61.945-153.911  1.00  0.00    -0.233 N 
ATOM     18  H52 UNL     1      36.882  62.086-154.201  1.00  0.00     0.174 HD
ATOM     19  H51 UNL     1      38.232  61.002-153.975  1.00  0.00     0.174 HD
ENDBRANCH   9  10
ENDBRANCH   8   9
ENDBRANCH   7   8
ENDBRANCH   4   7
ENDBRANCH   3   4
TORSDOF 5
ENDMDL
MODEL 3
REMARK VINA RESULT: -5.492855021      1.683      2.034
REMARK  5 active torsions:
REMARK  status: ('A' for Active; 'I' for Inactive)
REMARK    1  A    between atoms: C2_3  and  N2_4 
REMARK    2  A    between atoms: N2_4  and  C3_7 
REMARK    3  A    between atoms: C3_7  and  C4_8 
REMARK    4  A    between atoms: C4_8  and  C5_9 
REMARK    5  A    between atoms: C5_9  and  N3_10 
ROOT
HETATM    1  N1  UNL     1      35.139  65.970-147.593  1.00  0.00    -0.196 NA
HETATM    2  C1  UNL     1      34.746  65.957-148.699  1.00  0.00     0.086 C 
HETATM    3  C2  UNL     1      34.241  65.922-150.073  1.00  0.00     0.355 C 
ENDROOT
BRANCH   3   4
HETATM    4  N2  UNL     1      35.151  66.649-150.935  1.00  0.00    -0.063 N 
ATOM      5  H22 UNL     1      34.790  66.717-151.886  1.00  0.00     0.278 HD
ATOM      6  H21 UNL     1      35.171  67.642-150.703  1.00  0.00     0.278 HD
BRANCH   4   7
HETATM    7  C3  UNL     1      36.492  66.067-150.911  1.00  0.00     0.235 C 
BRANCH   7   8
HETATM    8  C4  UNL     1      36.555  64.821-151.745  1.00  0.00     0.050 C 
BRANCH   8   9
HETATM    9  C5  UNL     1      37.805  64.646-152.523  1.00  0.00     0.177 C 
BRANCH   9  10
HETATM   10  N3  UNL     1      37.713  64.537-153.927  1.00  0.00    -0.089 N 
HETATM   11  O1  UNL     1      37.356  65.607-154.691  1.00  0.00    -0.263 OA
HETATM   12  C6  UNL     1      38.515  65.881-155.452  1.00  0.00     0.222 C 
HETATM   13  C7  UNL     1      38.823  64.799-156.456  1.00  0.00     0.166 C 
HETATM   14  N4  UNL     1      38.411  63.488-156.029  1.00  0.00    -0.223 N 
HETATM   15  C8  UNL     1      37.987  63.349-154.662  1.00  0.00     0.693 C 
ATOM     16  H4  UNL     1      38.419  62.692-156.668  1.00  0.00     0.177 HD
HETATM   17  N5  UNL     1      37.853  62.215-154.073  1.00  0.00    -0.233 N 
ATOM     18  H52 UNL     1      37.552  62.117-153.103  1.00  0.00     0.174 HD
ATOM     19  H51 UNL     1      38.049  61.364-154.599  1.00  0.00     0.174 HD
ENDBRANCH   9  10
ENDBRANCH   8   9
ENDBRANCH   7   8
ENDBRANCH   4   7
ENDBRANCH   3   4
TORSDOF 5
ENDMDL
MODEL 4
REMARK VINA RESULT: -5.466486196      1.062      1.114
REMARK  5 active torsions:
REMARK  status: ('A' for Active; 'I' for Inactive)
REMARK    1  A    between atoms: C2_3  and  N2_4 
REMARK    2  A    between atoms: N2_4  and  C3_7 
REMARK    3  A    between atoms: C3_7  and  C4_8 
REMARK    4  A    between atoms: C4_8  and  C5_9 
REMARK    5  A    between atoms: C5_9  and  N3_10 
ROOT
HETATM    1  N1  UNL     1      34.987  67.180-149.110  1.00  0.00    -0.196 NA
HETATM    2  C1  UNL     1      35.240  66.256-149.788  1.00  0.00     0.086 C 
HETATM    3  C2  UNL     1      35.532  65.098-150.635  1.00  0.00     0.355 C 
ENDROOT
BRANCH   3   4
HETATM    4  N2  UNL     1      36.946  64.794-150.557  1.00  0.00    -0.063 N 
ATOM      5  H22 UNL     1      37.192  64.393-149.652  1.00  0.00     0.278 HD
ATOM      6  H21 UNL     1      37.191  64.002-151.151  1.00  0.00     0.278 HD
BRANCH   4   7
HETATM    7  C3  UNL     1      37.764  65.966-150.864  1.00  0.00     0.235 C 
BRANCH   7   8
HETATM    8  C4  UNL     1      38.963  65.588-151.685  1.00  0.00     0.050 C 
BRANCH   8   9
HETATM    9  C5  UNL     1      38.745  65.579-153.151  1.00  0.00     0.177 C 
BRANCH   9  10
HETATM   10  N3  UNL     1      38.777  64.341-153.828  1.00  0.00    -0.089 N 
HETATM   11  O1  UNL     1      39.932  63.874-154.379  1.00  0.00    -0.263 OA
HETATM   12  C6  UNL     1      40.222  62.714-153.624  1.00  0.00     0.222 C 
HETATM   13  C7  UNL     1      39.228  61.604-153.855  1.00  0.00     0.166 C 
HETATM   14  N4  UNL     1      37.904  62.076-154.161  1.00  0.00    -0.223 N 
HETATM   15  C8  UNL     1      37.654  63.482-153.987  1.00  0.00     0.693 C 
ATOM     16  H4  UNL     1      37.174  61.442-154.487  1.00  0.00     0.177 HD
HETATM   17  N5  UNL     1      36.477  63.994-153.958  1.00  0.00    -0.233 N 
ATOM     18  H52 UNL     1      36.299  64.992-153.835  1.00  0.00     0.174 HD
ATOM     19  H51 UNL     1      35.672  63.379-154.072  1.00  0.00     0.174 HD
ENDBRANCH   9  10
ENDBRANCH   8   9
ENDBRANCH   7   8
ENDBRANCH   4   7
ENDBRANCH   3   4
TORSDOF 5
ENDMDL
MODEL 5
REMARK VINA RESULT: -5.332272104      2.409      3.558
REMARK  5 active torsions:
REMARK  status: ('A' for Active; 'I' for Inactive)
REMARK    1  A    between atoms: C2_3  and  N2_4 
REMARK    2  A    between atoms: N2_4  and  C3_7 
REMARK    3  A    between atoms: C3_7  and  C4_8 
REMARK    4  A    between atoms: C4_8  and  C5_9 
REMARK    5  A    between atoms: C5_9  and  N3_10 
ROOT
HETATM    1  N1  UNL     1      35.065  67.296-149.297  1.00  0.00    -0.196 NA
HETATM    2  C1  UNL     1      35.413  66.178-149.229  1.00  0.00     0.086 C 
HETATM    3  C2  UNL     1      35.842  64.782-149.120  1.00  0.00     0.355 C 
ENDROOT
BRANCH   3   4
HETATM    4  N2  UNL     1      36.564  64.410-150.320  1.00  0.00    -0.063 N 
ATOM      5  H22 UNL     1      37.351  65.036-150.490  1.00  0.00     0.278 HD
ATOM      6  H21 UNL     1      37.081  63.540-150.190  1.00  0.00     0.278 HD
BRANCH   4   7
HETATM    7  C3  UNL     1      35.676  64.337-151.479  1.00  0.00     0.235 C 
BRANCH   7   8
HETATM    8  C4  UNL     1      36.436  64.550-152.756  1.00  0.00     0.050 C 
BRANCH   8   9
HETATM    9  C5  UNL     1      37.884  64.823-152.590  1.00  0.00     0.177 C 
BRANCH   9  10
HETATM   10  N3  UNL     1      38.316  66.166-152.559  1.00  0.00    -0.089 N 
HETATM   11  O1  UNL     1      37.750  67.064-151.705  1.00  0.00    -0.263 OA
HETATM   12  C6  UNL     1      38.800  67.400-150.821  1.00  0.00     0.222 C 
HETATM   13  C7  UNL     1      39.903  68.177-151.494  1.00  0.00     0.166 C 
HETATM   14  N4  UNL     1      40.073  67.843-152.884  1.00  0.00    -0.223 N 
HETATM   15  C8  UNL     1      39.356  66.696-153.373  1.00  0.00     0.693 C 
ATOM     16  H4  UNL     1      40.675  68.395-153.495  1.00  0.00     0.177 HD
HETATM   17  N5  UNL     1      39.613  66.125-154.494  1.00  0.00    -0.233 N 
ATOM     18  H52 UNL     1      39.104  65.311-154.841  1.00  0.00     0.174 HD
ATOM     19  H51 UNL     1      40.358  66.505-155.078  1.00  0.00     0.174 HD
ENDBRANCH   9  10
ENDBRANCH   8   9
ENDBRANCH   7   8
ENDBRANCH   4   7
ENDBRANCH   3   4
TORSDOF 5
ENDMDL
