MODEL 1
REMARK VINA RESULT: -5.024358093      0.000      0.000
REMARK  7 active torsions:
REMARK  status: ('A' for Active; 'I' for Inactive)
REMARK    1  A    between atoms: C2_2  and  O1_3 
REMARK    2  A    between atoms: C2_2  and  C3_5 
REMARK    3  A    between atoms: C3_5  and  N1_6 
REMARK    4  A    between atoms: C3_5  and  C4_10 
REMARK    5  A    between atoms: C4_10  and  N2_11 
REMARK    6  A    between atoms: C4_10  and  C5_15 
REMARK    7  A    between atoms: C5_15  and  N3_16 
ROOT
HETATM    1  C4  UNL     1      36.816  65.996-151.095  1.00  0.00     0.254 C 
ENDROOT
BRANCH   1   2
HETATM    2  C3  UNL     1      36.151  65.221-150.005  1.00  0.00     0.246 C 
BRANCH   2   3
HETATM    3  C2  UNL     1      35.156  65.928-149.168  1.00  0.00     0.146 C 
HETATM    4  C1  UNL     1      33.738  65.820-149.722  1.00  0.00     0.041 C 
BRANCH   3   5
HETATM    5  O1  UNL     1      35.138  65.661-147.838  1.00  0.00    -0.394 OA
ATOM      6  H1  UNL     1      35.438  64.772-147.693  1.00  0.00     0.210 HD
ENDBRANCH   3   5
ENDBRANCH   2   3
BRANCH   2   7
HETATM    7  N1  UNL     1      37.185  64.667-149.121  1.00  0.00    -0.070 N 
ATOM      8  H13 UNL     1      38.098  65.096-149.267  1.00  0.00     0.274 HD
ATOM      9  H12 UNL     1      37.058  64.941-148.146  1.00  0.00     0.274 HD
ATOM     10  H11 UNL     1      37.202  63.654-149.244  1.00  0.00     0.274 HD
ENDBRANCH   2   7
ENDBRANCH   1   2
BRANCH   1  11
HETATM   11  N2  UNL     1      36.870  67.426-150.692  1.00  0.00    -0.068 N 
ATOM     12  H23 UNL     1      36.656  67.563-149.704  1.00  0.00     0.275 HD
ATOM     13  H22 UNL     1      37.820  67.795-150.682  1.00  0.00     0.275 HD
ATOM     14  H21 UNL     1      36.250  67.957-151.304  1.00  0.00     0.275 HD
ENDBRANCH   1  11
BRANCH   1  15
HETATM   15  C5  UNL     1      38.261  65.565-151.282  1.00  0.00     0.092 C 
BRANCH  15  16
HETATM   16  N3  UNL     1      38.498  64.860-152.464  1.00  0.00    -0.391 N 
HETATM   17  C6  UNL     1      37.446  64.234-153.163  1.00  0.00     0.122 C 
HETATM   18  C7  UNL     1      37.987  62.828-153.539  1.00  0.00     0.021 C 
HETATM   19  C8  UNL     1      39.435  63.168-153.801  1.00  0.00     0.021 C 
HETATM   20  C9  UNL     1      39.711  64.152-152.649  1.00  0.00     0.122 C 
ENDBRANCH  15  16
ENDBRANCH   1  15
TORSDOF 7
ENDMDL
MODEL 2
REMARK VINA RESULT: -5.010308076      2.422      5.273
REMARK  7 active torsions:
REMARK  status: ('A' for Active; 'I' for Inactive)
REMARK    1  A    between atoms: C2_2  and  O1_3 
REMARK    2  A    between atoms: C2_2  and  C3_5 
REMARK    3  A    between atoms: C3_5  and  N1_6 
REMARK    4  A    between atoms: C3_5  and  C4_10 
REMARK    5  A    between atoms: C4_10  and  N2_11 
REMARK    6  A    between atoms: C4_10  and  C5_15 
REMARK    7  A    between atoms: C5_15  and  N3_16 
ROOT
HETATM    1  C4  UNL     1      37.035  64.824-152.896  1.00  0.00     0.254 C 
ENDROOT
BRANCH   1   2
HETATM    2  C3  UNL     1      38.394  64.270-153.174  1.00  0.00     0.246 C 
BRANCH   2   3
HETATM    3  C2  UNL     1      38.476  62.932-153.801  1.00  0.00     0.146 C 
HETATM    4  C1  UNL     1      39.830  62.262-153.584  1.00  0.00     0.041 C 
BRANCH   3   5
HETATM    5  O1  UNL     1      37.488  62.042-153.533  1.00  0.00    -0.394 OA
ATOM      6  H1  UNL     1      37.537  61.785-152.620  1.00  0.00     0.210 HD
ENDBRANCH   3   5
ENDBRANCH   2   3
BRANCH   2   7
HETATM    7  N1  UNL     1      39.157  64.238-151.919  1.00  0.00    -0.070 N 
ATOM      8  H13 UNL     1      39.975  63.632-151.973  1.00  0.00     0.274 HD
ATOM      9  H12 UNL     1      39.646  65.114-151.734  1.00  0.00     0.274 HD
ATOM     10  H11 UNL     1      38.522  63.975-151.165  1.00  0.00     0.274 HD
ENDBRANCH   2   7
ENDBRANCH   1   2
BRANCH   1  11
HETATM   11  N2  UNL     1      36.133  64.442-154.014  1.00  0.00    -0.068 N 
ATOM     12  H23 UNL     1      36.460  64.785-154.916  1.00  0.00     0.275 HD
ATOM     13  H22 UNL     1      36.168  63.444-154.223  1.00  0.00     0.275 HD
ATOM     14  H21 UNL     1      35.189  64.762-153.792  1.00  0.00     0.275 HD
ENDBRANCH   1  11
BRANCH   1  15
HETATM   15  C5  UNL     1      36.428  64.210-151.646  1.00  0.00     0.092 C 
BRANCH  15  16
HETATM   16  N3  UNL     1      36.174  65.127-150.624  1.00  0.00    -0.391 N 
HETATM   17  C6  UNL     1      36.379  64.787-149.271  1.00  0.00     0.122 C 
HETATM   18  C7  UNL     1      35.123  65.311-148.525  1.00  0.00     0.021 C 
HETATM   19  C8  UNL     1      34.856  66.569-149.316  1.00  0.00     0.021 C 
HETATM   20  C9  UNL     1      35.123  66.069-150.748  1.00  0.00     0.122 C 
ENDBRANCH  15  16
ENDBRANCH   1  15
TORSDOF 7
ENDMDL
MODEL 3
REMARK VINA RESULT: -4.955920416      2.744      5.320
REMARK  7 active torsions:
REMARK  status: ('A' for Active; 'I' for Inactive)
REMARK    1  A    between atoms: C2_2  and  O1_3 
REMARK    2  A    between atoms: C2_2  and  C3_5 
REMARK    3  A    between atoms: C3_5  and  N1_6 
REMARK    4  A    between atoms: C3_5  and  C4_10 
REMARK    5  A    between atoms: C4_10  and  N2_11 
REMARK    6  A    between atoms: C4_10  and  C5_15 
REMARK    7  A    between atoms: C5_15  and  N3_16 
ROOT
HETATM    1  C4  UNL     1      36.648  64.774-153.084  1.00  0.00     0.254 C 
ENDROOT
BRANCH   1   2
HETATM    2  C3  UNL     1      38.054  65.205-152.822  1.00  0.00     0.246 C 
BRANCH   2   3
HETATM    3  C2  UNL     1      38.752  65.958-153.889  1.00  0.00     0.146 C 
HETATM    4  C1  UNL     1      40.123  65.376-154.219  1.00  0.00     0.041 C 
BRANCH   3   5
HETATM    5  O1  UNL     1      38.079  66.200-155.042  1.00  0.00    -0.394 OA
ATOM      6  H1  UNL     1      37.230  65.775-155.004  1.00  0.00     0.210 HD
ENDBRANCH   3   5
ENDBRANCH   2   3
BRANCH   2   7
HETATM    7  N1  UNL     1      38.858  64.022-152.493  1.00  0.00    -0.070 N 
ATOM      8  H13 UNL     1      38.286  63.210-152.262  1.00  0.00     0.274 HD
ATOM      9  H12 UNL     1      39.332  63.629-153.306  1.00  0.00     0.274 HD
ATOM     10  H11 UNL     1      39.504  64.272-151.744  1.00  0.00     0.274 HD
ENDBRANCH   2   7
ENDBRANCH   1   2
BRANCH   1  11
HETATM   11  N2  UNL     1      36.672  63.667-154.077  1.00  0.00    -0.068 N 
ATOM     12  H23 UNL     1      36.792  64.001-155.033  1.00  0.00     0.275 HD
ATOM     13  H22 UNL     1      37.522  63.106-154.018  1.00  0.00     0.275 HD
ATOM     14  H21 UNL     1      35.826  63.110-153.960  1.00  0.00     0.275 HD
ENDBRANCH   1  11
BRANCH   1  15
HETATM   15  C5  UNL     1      36.002  64.196-151.836  1.00  0.00     0.092 C 
BRANCH  15  16
HETATM   16  N3  UNL     1      35.947  65.082-150.758  1.00  0.00    -0.391 N 
HETATM   17  C6  UNL     1      36.298  64.669-149.456  1.00  0.00     0.122 C 
HETATM   18  C7  UNL     1      35.188  65.243-148.535  1.00  0.00     0.021 C 
HETATM   19  C8  UNL     1      34.916  66.551-149.240  1.00  0.00     0.021 C 
HETATM   20  C9  UNL     1      34.961  66.099-150.711  1.00  0.00     0.122 C 
ENDBRANCH  15  16
ENDBRANCH   1  15
TORSDOF 7
ENDMDL
MODEL 4
REMARK VINA RESULT: -4.927088599      1.212      1.603
REMARK  7 active torsions:
REMARK  status: ('A' for Active; 'I' for Inactive)
REMARK    1  A    between atoms: C2_2  and  O1_3 
REMARK    2  A    between atoms: C2_2  and  C3_5 
REMARK    3  A    between atoms: C3_5  and  N1_6 
REMARK    4  A    between atoms: C3_5  and  C4_10 
REMARK    5  A    between atoms: C4_10  and  N2_11 
REMARK    6  A    between atoms: C4_10  and  C5_15 
REMARK    7  A    between atoms: C5_15  and  N3_16 
ROOT
HETATM    1  C4  UNL     1      37.720  65.941-150.648  1.00  0.00     0.254 C 
ENDROOT
BRANCH   1   2
HETATM    2  C3  UNL     1      36.397  65.376-150.246  1.00  0.00     0.246 C 
BRANCH   2   3
HETATM    3  C2  UNL     1      35.255  66.311-150.134  1.00  0.00     0.146 C 
HETATM    4  C1  UNL     1      33.929  65.594-149.896  1.00  0.00     0.041 C 
BRANCH   3   5
HETATM    5  O1  UNL     1      35.365  67.348-149.266  1.00  0.00    -0.394 OA
ATOM      6  H1  UNL     1      35.271  68.165-149.742  1.00  0.00     0.210 HD
ENDBRANCH   3   5
ENDBRANCH   2   3
BRANCH   2   7
HETATM    7  N1  UNL     1      36.551  64.680-148.962  1.00  0.00    -0.070 N 
ATOM      8  H13 UNL     1      37.438  64.888-148.507  1.00  0.00     0.274 HD
ATOM      9  H12 UNL     1      35.934  65.050-148.238  1.00  0.00     0.274 HD
ATOM     10  H11 UNL     1      36.415  63.681-149.121  1.00  0.00     0.274 HD
ENDBRANCH   2   7
ENDBRANCH   1   2
BRANCH   1  11
HETATM   11  N2  UNL     1      38.790  65.162-149.970  1.00  0.00    -0.068 N 
ATOM     12  H23 UNL     1      39.720  65.386-150.323  1.00  0.00     0.275 HD
ATOM     13  H22 UNL     1      38.934  65.454-149.003  1.00  0.00     0.275 HD
ATOM     14  H21 UNL     1      38.569  64.170-150.052  1.00  0.00     0.275 HD
ENDBRANCH   1  11
BRANCH   1  15
HETATM   15  C5  UNL     1      37.967  65.775-152.138  1.00  0.00     0.092 C 
BRANCH  15  16
HETATM   16  N3  UNL     1      38.332  64.481-152.516  1.00  0.00    -0.391 N 
HETATM   17  C6  UNL     1      39.613  64.208-153.039  1.00  0.00     0.122 C 
HETATM   18  C7  UNL     1      39.364  63.288-154.264  1.00  0.00     0.021 C 
HETATM   19  C8  UNL     1      38.190  62.488-153.755  1.00  0.00     0.021 C 
HETATM   20  C9  UNL     1      37.372  63.592-153.058  1.00  0.00     0.122 C 
ENDBRANCH  15  16
ENDBRANCH   1  15
TORSDOF 7
ENDMDL
MODEL 5
REMARK VINA RESULT: -4.863081979      1.588      1.881
REMARK  7 active torsions:
REMARK  status: ('A' for Active; 'I' for Inactive)
REMARK    1  A    between atoms: C2_2  and  O1_3 
REMARK    2  A    between atoms: C2_2  and  C3_5 
REMARK    3  A    between atoms: C3_5  and  N1_6 
REMARK    4  A    between atoms: C3_5  and  C4_10 
REMARK    5  A    between atoms: C4_10  and  N2_11 
REMARK    6  A    between atoms: C4_10  and  C5_15 
REMARK    7  A    between atoms: C5_15  and  N3_16 
ROOT
HETATM    1  C4  UNL     1      36.890  65.109-151.753  1.00  0.00     0.254 C 
ENDROOT
BRANCH   1   2
HETATM    2  C3  UNL     1      35.909  64.999-150.633  1.00  0.00     0.246 C 
BRANCH   2   3
HETATM    3  C2  UNL     1      35.362  66.254-150.072  1.00  0.00     0.146 C 
HETATM    4  C1  UNL     1      34.704  66.052-148.709  1.00  0.00     0.041 C 
BRANCH   3   5
HETATM    5  O1  UNL     1      36.179  67.336-150.018  1.00  0.00    -0.394 OA
ATOM      6  H1  UNL     1      35.824  67.966-149.401  1.00  0.00     0.210 HD
ENDBRANCH   3   5
ENDBRANCH   2   3
BRANCH   2   7
HETATM    7  N1  UNL     1      36.524  64.235-149.540  1.00  0.00    -0.070 N 
ATOM      8  H13 UNL     1      37.300  63.654-149.855  1.00  0.00     0.274 HD
ATOM      9  H12 UNL     1      37.047  64.826-148.893  1.00  0.00     0.274 HD
ATOM     10  H11 UNL     1      35.792  63.696-149.076  1.00  0.00     0.274 HD
ENDBRANCH   2   7
ENDBRANCH   1   2
BRANCH   1  11
HETATM   11  N2  UNL     1      38.262  65.118-151.179  1.00  0.00    -0.068 N 
ATOM     12  H23 UNL     1      38.795  65.943-151.451  1.00  0.00     0.275 HD
ATOM     13  H22 UNL     1      38.264  65.277-150.171  1.00  0.00     0.275 HD
ATOM     14  H21 UNL     1      38.727  64.248-151.439  1.00  0.00     0.275 HD
ENDBRANCH   1  11
BRANCH   1  15
HETATM   15  C5  UNL     1      36.832  63.897-152.667  1.00  0.00     0.092 C 
BRANCH  15  16
HETATM   16  N3  UNL     1      37.957  63.738-153.479  1.00  0.00    -0.391 N 
HETATM   17  C6  UNL     1      38.127  64.509-154.648  1.00  0.00     0.122 C 
HETATM   18  C7  UNL     1      38.589  63.502-155.735  1.00  0.00     0.021 C 
HETATM   19  C8  UNL     1      39.436  62.579-154.891  1.00  0.00     0.021 C 
HETATM   20  C9  UNL     1      38.565  62.467-153.626  1.00  0.00     0.122 C 
ENDBRANCH  15  16
ENDBRANCH   1  15
TORSDOF 7
ENDMDL
