MODEL 1
REMARK VINA RESULT: -4.250636689      0.000      0.000
REMARK  2 active torsions:
REMARK  status: ('A' for Active; 'I' for Inactive)
REMARK    1  A    between atoms: C6_6  and  N1_7 
REMARK    2  A    between atoms: N1_7  and  O1_8 
ROOT
HETATM    1  C1  UNL     1      41.890  -1.839  28.851  1.00  0.00     0.015 C 
HETATM    2  C2  UNL     1      43.403  -1.851  28.702  1.00  0.00    -0.046 C 
HETATM    3  C3  UNL     1      43.997  -1.608  30.063  1.00  0.00     0.015 C 
HETATM    4  C4  UNL     1      43.904  -3.141  28.140  1.00  0.00     0.010 C 
HETATM    5  C5  UNL     1      44.387  -2.888  26.740  1.00  0.00     0.024 C 
HETATM    6  C6  UNL     1      43.673  -1.577  26.390  1.00  0.00     0.107 C 
HETATM    7  C7  UNL     1      43.855  -0.821  27.691  1.00  0.00     0.032 C 
ENDROOT
BRANCH   6   8
HETATM    8  N1  UNL     1      44.366  -0.927  25.296  1.00  0.00    -0.099 NA
BRANCH   8   9
HETATM    9  O1  UNL     1      43.518  -0.047  24.725  1.00  0.00    -0.296 OA
ATOM     10  H1  UNL     1      43.299  -0.366  23.857  1.00  0.00     0.238 HD
ENDBRANCH   8   9
ENDBRANCH   6   8
TORSDOF 2
ENDMDL
MODEL 2
REMARK VINA RESULT: -4.187338468      1.703      2.402
REMARK  2 active torsions:
REMARK  status: ('A' for Active; 'I' for Inactive)
REMARK    1  A    between atoms: C6_6  and  N1_7 
REMARK    2  A    between atoms: N1_7  and  O1_8 
ROOT
HETATM    1  C1  UNL     1      43.478  -2.292  30.293  1.00  0.00     0.015 C 
HETATM    2  C2  UNL     1      42.717  -2.035  29.002  1.00  0.00    -0.046 C 
HETATM    3  C3  UNL     1      41.316  -1.628  29.373  1.00  0.00     0.015 C 
HETATM    4  C4  UNL     1      43.361  -0.977  28.169  1.00  0.00     0.010 C 
HETATM    5  C5  UNL     1      43.962  -1.633  26.958  1.00  0.00     0.024 C 
HETATM    6  C6  UNL     1      44.073  -3.093  27.410  1.00  0.00     0.107 C 
HETATM    7  C7  UNL     1      42.738  -3.256  28.109  1.00  0.00     0.032 C 
ENDROOT
BRANCH   6   8
HETATM    8  N1  UNL     1      44.172  -3.953  26.249  1.00  0.00    -0.099 NA
BRANCH   8   9
HETATM    9  O1  UNL     1      44.525  -3.192  25.191  1.00  0.00    -0.296 OA
ATOM     10  H1  UNL     1      45.473  -3.174  25.143  1.00  0.00     0.238 HD
ENDBRANCH   8   9
ENDBRANCH   6   8
TORSDOF 2
ENDMDL
MODEL 3
REMARK VINA RESULT: -4.179305858      2.158      2.442
REMARK  2 active torsions:
REMARK  status: ('A' for Active; 'I' for Inactive)
REMARK    1  A    between atoms: C6_6  and  N1_7 
REMARK    2  A    between atoms: N1_7  and  O1_8 
ROOT
HETATM    1  C1  UNL     1      40.824  -1.624  29.700  1.00  0.00     0.015 C 
HETATM    2  C2  UNL     1      42.095  -2.454  29.779  1.00  0.00    -0.046 C 
HETATM    3  C3  UNL     1      42.049  -3.238  31.062  1.00  0.00     0.015 C 
HETATM    4  C4  UNL     1      42.241  -3.376  28.613  1.00  0.00     0.010 C 
HETATM    5  C5  UNL     1      43.361  -2.870  27.750  1.00  0.00     0.024 C 
HETATM    6  C6  UNL     1      43.468  -1.407  28.194  1.00  0.00     0.107 C 
HETATM    7  C7  UNL     1      43.323  -1.574  29.693  1.00  0.00     0.032 C 
ENDROOT
BRANCH   6   8
HETATM    8  N1  UNL     1      44.775  -0.889  27.842  1.00  0.00    -0.099 NA
BRANCH   8   9
HETATM    9  O1  UNL     1      45.315  -0.325  28.943  1.00  0.00    -0.296 OA
ATOM     10  H1  UNL     1      46.260  -0.340  28.850  1.00  0.00     0.238 HD
ENDBRANCH   8   9
ENDBRANCH   6   8
TORSDOF 2
ENDMDL
MODEL 4
REMARK VINA RESULT: -4.173932467      2.264      2.734
REMARK  2 active torsions:
REMARK  status: ('A' for Active; 'I' for Inactive)
REMARK    1  A    between atoms: C6_6  and  N1_7 
REMARK    2  A    between atoms: N1_7  and  O1_8 
ROOT
HETATM    1  C1  UNL     1      40.396  -2.710  29.382  1.00  0.00     0.015 C 
HETATM    2  C2  UNL     1      41.800  -3.237  29.632  1.00  0.00    -0.046 C 
HETATM    3  C3  UNL     1      41.696  -4.349  30.640  1.00  0.00     0.015 C 
HETATM    4  C4  UNL     1      42.448  -3.730  28.380  1.00  0.00     0.010 C 
HETATM    5  C5  UNL     1      43.542  -2.771  28.007  1.00  0.00     0.024 C 
HETATM    6  C6  UNL     1      43.135  -1.510  28.778  1.00  0.00     0.107 C 
HETATM    7  C7  UNL     1      42.719  -2.129  30.097  1.00  0.00     0.032 C 
ENDROOT
BRANCH   6   8
HETATM    8  N1  UNL     1      44.288  -0.647  28.936  1.00  0.00    -0.099 NA
BRANCH   8   9
HETATM    9  O1  UNL     1      44.098   0.453  28.178  1.00  0.00    -0.296 OA
ATOM     10  H1  UNL     1      44.819   1.051  28.338  1.00  0.00     0.238 HD
ENDBRANCH   8   9
ENDBRANCH   6   8
TORSDOF 2
ENDMDL
MODEL 5
REMARK VINA RESULT: -4.120077045      1.614      1.723
REMARK  2 active torsions:
REMARK  status: ('A' for Active; 'I' for Inactive)
REMARK    1  A    between atoms: C6_6  and  N1_7 
REMARK    2  A    between atoms: N1_7  and  O1_8 
ROOT
HETATM    1  C1  UNL     1      41.438  -1.348  29.307  1.00  0.00     0.015 C 
HETATM    2  C2  UNL     1      42.591  -2.333  29.408  1.00  0.00    -0.046 C 
HETATM    3  C3  UNL     1      42.750  -2.702  30.858  1.00  0.00     0.015 C 
HETATM    4  C4  UNL     1      42.360  -3.556  28.584  1.00  0.00     0.010 C 
HETATM    5  C5  UNL     1      43.304  -3.521  27.415  1.00  0.00     0.024 C 
HETATM    6  C6  UNL     1      43.674  -2.035  27.351  1.00  0.00     0.107 C 
HETATM    7  C7  UNL     1      43.857  -1.744  28.827  1.00  0.00     0.032 C 
ENDROOT
BRANCH   6   8
HETATM    8  N1  UNL     1      44.915  -1.878  26.621  1.00  0.00    -0.099 NA
BRANCH   8   9
HETATM    9  O1  UNL     1      44.930  -2.780  25.617  1.00  0.00    -0.296 OA
ATOM     10  H1  UNL     1      45.205  -3.617  25.974  1.00  0.00     0.238 HD
ENDBRANCH   8   9
ENDBRANCH   6   8
TORSDOF 2
ENDMDL
