MODEL 1
REMARK VINA RESULT: -4.916473605      0.000      0.000
REMARK  3 active torsions:
REMARK  status: ('A' for Active; 'I' for Inactive)
REMARK    1  A    between atoms: O1_2  and  C2_3 
REMARK    2  A    between atoms: C2_3  and  N2_7 
REMARK    3  A    between atoms: N2_7  and  C3_9 
ROOT
HETATM    1  N2  UNL     1      43.866  -1.240  27.295  1.00  0.00    -0.352 N 
ATOM      2  H2  UNL     1      43.693  -0.261  27.524  1.00  0.00     0.163 HD
ENDROOT
BRANCH   1   3
HETATM    3  C2  UNL     1      44.138  -1.614  25.946  1.00  0.00     0.212 C 
HETATM    4  N1  UNL     1      43.912  -0.803  24.982  1.00  0.00    -0.366 N 
ATOM      5  H12 UNL     1      44.107  -1.071  24.017  1.00  0.00     0.159 HD
ATOM      6  H11 UNL     1      43.535   0.120  25.196  1.00  0.00     0.159 HD
BRANCH   3   7
HETATM    7  O1  UNL     1      44.650  -2.868  25.656  1.00  0.00    -0.328 OA
HETATM    8  C1  UNL     1      43.922  -3.709  24.793  1.00  0.00     0.213 C 
ENDBRANCH   3   7
ENDBRANCH   1   3
BRANCH   1   9
HETATM    9  C3  UNL     1      43.836  -2.235  28.339  1.00  0.00     0.085 C 
HETATM   10  C4  UNL     1      42.582  -3.062  28.270  1.00  0.00     0.025 C 
HETATM   11  C5  UNL     1      42.050  -3.088  29.708  1.00  0.00     0.002 C 
HETATM   12  C6  UNL     1      42.471  -1.702  30.184  1.00  0.00     0.002 C 
HETATM   13  C7  UNL     1      43.871  -1.567  29.679  1.00  0.00     0.025 C 
ENDBRANCH   1   9
TORSDOF 3
ENDMDL
MODEL 2
REMARK VINA RESULT: -4.660616764      1.637      2.260
REMARK  3 active torsions:
REMARK  status: ('A' for Active; 'I' for Inactive)
REMARK    1  A    between atoms: O1_2  and  C2_3 
REMARK    2  A    between atoms: C2_3  and  N2_7 
REMARK    3  A    between atoms: N2_7  and  C3_9 
ROOT
HETATM    1  N2  UNL     1      43.725  -3.728  27.840  1.00  0.00    -0.352 N 
ATOM      2  H2  UNL     1      43.922  -4.609  28.317  1.00  0.00     0.163 HD
ENDROOT
BRANCH   1   3
HETATM    3  C2  UNL     1      44.277  -3.483  26.548  1.00  0.00     0.212 C 
HETATM    4  N1  UNL     1      44.194  -4.364  25.621  1.00  0.00    -0.366 N 
ATOM      5  H12 UNL     1      44.589  -4.188  24.697  1.00  0.00     0.159 HD
ATOM      6  H11 UNL     1      43.723  -5.245  25.824  1.00  0.00     0.159 HD
BRANCH   3   7
HETATM    7  O1  UNL     1      44.917  -2.286  26.274  1.00  0.00    -0.328 OA
HETATM    8  C1  UNL     1      44.147  -1.205  25.802  1.00  0.00     0.213 C 
ENDBRANCH   3   7
ENDBRANCH   1   3
BRANCH   1   9
HETATM    9  C3  UNL     1      42.890  -2.740  28.478  1.00  0.00     0.085 C 
HETATM   10  C4  UNL     1      43.621  -2.042  29.591  1.00  0.00     0.025 C 
HETATM   11  C5  UNL     1      42.648  -2.068  30.776  1.00  0.00     0.002 C 
HETATM   12  C6  UNL     1      41.954  -3.404  30.535  1.00  0.00     0.002 C 
HETATM   13  C7  UNL     1      41.682  -3.400  29.066  1.00  0.00     0.025 C 
ENDBRANCH   1   9
TORSDOF 3
ENDMDL
MODEL 3
REMARK VINA RESULT: -4.599139699      1.188      1.779
REMARK  3 active torsions:
REMARK  status: ('A' for Active; 'I' for Inactive)
REMARK    1  A    between atoms: O1_2  and  C2_3 
REMARK    2  A    between atoms: C2_3  and  N2_7 
REMARK    3  A    between atoms: N2_7  and  C3_9 
ROOT
HETATM    1  N2  UNL     1      44.077  -2.951  28.173  1.00  0.00    -0.352 N 
ATOM      2  H2  UNL     1      44.717  -3.510  28.737  1.00  0.00     0.163 HD
ENDROOT
BRANCH   1   3
HETATM    3  C2  UNL     1      44.243  -2.897  26.757  1.00  0.00     0.212 C 
HETATM    4  N1  UNL     1      44.703  -1.845  26.190  1.00  0.00    -0.366 N 
ATOM      5  H12 UNL     1      44.822  -1.807  25.177  1.00  0.00     0.159 HD
ATOM      6  H11 UNL     1      44.951  -1.044  26.770  1.00  0.00     0.159 HD
BRANCH   3   7
HETATM    7  O1  UNL     1      43.906  -3.985  25.970  1.00  0.00    -0.328 OA
HETATM    8  C1  UNL     1      43.891  -3.824  24.571  1.00  0.00     0.213 C 
ENDBRANCH   3   7
ENDBRANCH   1   3
BRANCH   1   9
HETATM    9  C3  UNL     1      43.009  -2.222  28.813  1.00  0.00     0.085 C 
HETATM   10  C4  UNL     1      43.409  -1.760  30.186  1.00  0.00     0.025 C 
HETATM   11  C5  UNL     1      42.235  -2.156  31.090  1.00  0.00     0.002 C 
HETATM   12  C6  UNL     1      41.786  -3.445  30.412  1.00  0.00     0.002 C 
HETATM   13  C7  UNL     1      41.808  -3.103  28.957  1.00  0.00     0.025 C 
ENDBRANCH   1   9
TORSDOF 3
ENDMDL
MODEL 4
REMARK VINA RESULT: -4.528101192      1.605      2.035
REMARK  3 active torsions:
REMARK  status: ('A' for Active; 'I' for Inactive)
REMARK    1  A    between atoms: O1_2  and  C2_3 
REMARK    2  A    between atoms: C2_3  and  N2_7 
REMARK    3  A    between atoms: N2_7  and  C3_9 
ROOT
HETATM    1  N2  UNL     1      43.103  -1.178  28.157  1.00  0.00    -0.352 N 
ATOM      2  H2  UNL     1      42.421  -0.739  27.537  1.00  0.00     0.163 HD
ENDROOT
BRANCH   1   3
HETATM    3  C2  UNL     1      44.496  -1.052  27.878  1.00  0.00     0.212 C 
HETATM    4  N1  UNL     1      45.262  -0.378  28.653  1.00  0.00    -0.366 N 
ATOM      5  H12 UNL     1      46.258  -0.288  28.454  1.00  0.00     0.159 HD
ATOM      6  H11 UNL     1      44.857   0.068  29.475  1.00  0.00     0.159 HD
BRANCH   3   7
HETATM    7  O1  UNL     1      45.046  -1.659  26.761  1.00  0.00    -0.328 OA
HETATM    8  C1  UNL     1      44.335  -2.707  26.146  1.00  0.00     0.213 C 
ENDBRANCH   3   7
ENDBRANCH   1   3
BRANCH   1   9
HETATM    9  C3  UNL     1      42.651  -1.921  29.308  1.00  0.00     0.085 C 
HETATM   10  C4  UNL     1      41.754  -3.058  28.907  1.00  0.00     0.025 C 
HETATM   11  C5  UNL     1      40.543  -2.950  29.841  1.00  0.00     0.002 C 
HETATM   12  C6  UNL     1      40.453  -1.438  30.004  1.00  0.00     0.002 C 
HETATM   13  C7  UNL     1      41.872  -1.022  30.218  1.00  0.00     0.025 C 
ENDBRANCH   1   9
TORSDOF 3
ENDMDL
MODEL 5
REMARK VINA RESULT: -4.520461745      2.107      2.717
REMARK  3 active torsions:
REMARK  status: ('A' for Active; 'I' for Inactive)
REMARK    1  A    between atoms: O1_2  and  C2_3 
REMARK    2  A    between atoms: C2_3  and  N2_7 
REMARK    3  A    between atoms: N2_7  and  C3_9 
ROOT
HETATM    1  N2  UNL     1      43.299  -2.949  29.050  1.00  0.00    -0.352 N 
ATOM      2  H2  UNL     1      44.209  -2.496  29.135  1.00  0.00     0.163 HD
ENDROOT
BRANCH   1   3
HETATM    3  C2  UNL     1      43.022  -3.775  27.920  1.00  0.00     0.212 C 
HETATM    4  N1  UNL     1      42.622  -4.982  28.072  1.00  0.00    -0.366 N 
ATOM      5  H12 UNL     1      42.423  -5.572  27.264  1.00  0.00     0.159 HD
ATOM      6  H11 UNL     1      42.502  -5.343  29.018  1.00  0.00     0.159 HD
BRANCH   3   7
HETATM    7  O1  UNL     1      43.185  -3.284  26.636  1.00  0.00    -0.328 OA
HETATM    8  C1  UNL     1      44.357  -2.565  26.334  1.00  0.00     0.213 C 
ENDBRANCH   3   7
ENDBRANCH   1   3
BRANCH   1   9
HETATM    9  C3  UNL     1      42.301  -2.749  30.073  1.00  0.00     0.085 C 
HETATM   10  C4  UNL     1      41.003  -2.273  29.484  1.00  0.00     0.025 C 
HETATM   11  C5  UNL     1      40.590  -1.082  30.358  1.00  0.00     0.002 C 
HETATM   12  C6  UNL     1      41.958  -0.507  30.705  1.00  0.00     0.002 C 
HETATM   13  C7  UNL     1      42.771  -1.712  31.045  1.00  0.00     0.025 C 
ENDBRANCH   1   9
TORSDOF 3
ENDMDL
