MODEL 1
REMARK VINA RESULT: -4.173828450      0.000      0.000
REMARK  3 active torsions:
REMARK  status: ('A' for Active; 'I' for Inactive)
REMARK    1  A    between atoms: S1_2  and  C2_3 
REMARK    2  A    between atoms: C2_3  and  N2_7 
REMARK    3  A    between atoms: N2_7  and  C3_9 
ROOT
HETATM    1  C2  UNL     1      42.688  -4.269  28.277  1.00  0.00     0.133 C 
HETATM    2  N1  UNL     1      42.205  -5.410  28.634  1.00  0.00    -0.380 N 
ATOM      3  H11 UNL     1      42.573  -6.231  28.153  1.00  0.00     0.158 HD
ATOM      4  H12 UNL     1      41.493  -5.479  29.360  1.00  0.00     0.158 HD
ENDROOT
BRANCH   1   5
HETATM    5  S1  UNL     1      42.044  -2.832  29.118  1.00  0.00    -0.099 SA
HETATM    6  C1  UNL     1      43.312  -1.911  29.986  1.00  0.00     0.099 C 
ENDBRANCH   1   5
BRANCH   1   7
HETATM    7  N2  UNL     1      43.681  -4.174  27.264  1.00  0.00    -0.367 N 
ATOM      8  H2  UNL     1      44.437  -4.858  27.267  1.00  0.00     0.162 HD
BRANCH   7   9
HETATM    9  C3  UNL     1      43.682  -3.177  26.243  1.00  0.00     0.075 C 
HETATM   10  C4  UNL     1      44.011  -3.821  24.893  1.00  0.00     0.032 C 
HETATM   11  C5  UNL     1      44.649  -2.060  26.446  1.00  0.00     0.032 C 
ENDBRANCH   7   9
ENDBRANCH   1   7
TORSDOF 3
ENDMDL
MODEL 2
REMARK VINA RESULT: -4.032351832      1.084      1.164
REMARK  3 active torsions:
REMARK  status: ('A' for Active; 'I' for Inactive)
REMARK    1  A    between atoms: S1_2  and  C2_3 
REMARK    2  A    between atoms: C2_3  and  N2_7 
REMARK    3  A    between atoms: N2_7  and  C3_9 
ROOT
HETATM    1  C2  UNL     1      42.622  -4.218  28.293  1.00  0.00     0.133 C 
HETATM    2  N1  UNL     1      42.154  -5.351  28.691  1.00  0.00    -0.380 N 
ATOM      3  H11 UNL     1      42.549  -6.186  28.257  1.00  0.00     0.158 HD
ATOM      4  H12 UNL     1      41.426  -5.402  29.403  1.00  0.00     0.158 HD
ENDROOT
BRANCH   1   5
HETATM    5  S1  UNL     1      41.930  -2.758  29.052  1.00  0.00    -0.099 SA
HETATM    6  C1  UNL     1      40.234  -2.991  29.584  1.00  0.00     0.099 C 
ENDBRANCH   1   5
BRANCH   1   7
HETATM    7  N2  UNL     1      43.637  -4.148  27.300  1.00  0.00    -0.367 N 
ATOM      8  H2  UNL     1      44.383  -4.843  27.326  1.00  0.00     0.162 HD
BRANCH   7   9
HETATM    9  C3  UNL     1      43.674  -3.163  26.269  1.00  0.00     0.075 C 
HETATM   10  C4  UNL     1      44.020  -3.826  24.932  1.00  0.00     0.032 C 
HETATM   11  C5  UNL     1      44.655  -2.059  26.480  1.00  0.00     0.032 C 
ENDBRANCH   7   9
ENDBRANCH   1   7
TORSDOF 3
ENDMDL
MODEL 3
REMARK VINA RESULT: -3.966098492      1.774      3.987
REMARK  3 active torsions:
REMARK  status: ('A' for Active; 'I' for Inactive)
REMARK    1  A    between atoms: S1_2  and  C2_3 
REMARK    2  A    between atoms: C2_3  and  N2_7 
REMARK    3  A    between atoms: N2_7  and  C3_9 
ROOT
HETATM    1  C2  UNL     1      43.477  -3.504  27.773  1.00  0.00     0.133 C 
HETATM    2  N1  UNL     1      42.855  -4.624  27.629  1.00  0.00    -0.380 N 
ATOM      3  H11 UNL     1      42.483  -5.051  28.477  1.00  0.00     0.158 HD
ATOM      4  H12 UNL     1      42.745  -5.053  26.711  1.00  0.00     0.158 HD
ENDROOT
BRANCH   1   5
HETATM    5  S1  UNL     1      44.129  -2.756  26.288  1.00  0.00    -0.099 SA
HETATM    6  C1  UNL     1      43.931  -3.798  24.844  1.00  0.00     0.099 C 
ENDBRANCH   1   5
BRANCH   1   7
HETATM    7  N2  UNL     1      43.630  -2.905  29.054  1.00  0.00    -0.367 N 
ATOM      8  H2  UNL     1      44.328  -3.297  29.686  1.00  0.00     0.162 HD
BRANCH   7   9
HETATM    9  C3  UNL     1      42.865  -1.790  29.507  1.00  0.00     0.075 C 
HETATM   10  C4  UNL     1      43.286  -1.419  30.932  1.00  0.00     0.032 C 
HETATM   11  C5  UNL     1      41.388  -1.996  29.523  1.00  0.00     0.032 C 
ENDBRANCH   7   9
ENDBRANCH   1   7
TORSDOF 3
ENDMDL
MODEL 4
REMARK VINA RESULT: -3.922808005      2.843      4.617
REMARK  3 active torsions:
REMARK  status: ('A' for Active; 'I' for Inactive)
REMARK    1  A    between atoms: S1_2  and  C2_3 
REMARK    2  A    between atoms: C2_3  and  N2_7 
REMARK    3  A    between atoms: N2_7  and  C3_9 
ROOT
HETATM    1  C2  UNL     1      44.154  -0.859  28.247  1.00  0.00     0.133 C 
HETATM    2  N1  UNL     1      45.282  -0.398  28.668  1.00  0.00    -0.380 N 
ATOM      3  H11 UNL     1      45.253   0.172  29.514  1.00  0.00     0.158 HD
ATOM      4  H12 UNL     1      46.152  -0.596  28.176  1.00  0.00     0.158 HD
ENDROOT
BRANCH   1   5
HETATM    5  S1  UNL     1      44.205  -1.857  26.766  1.00  0.00    -0.099 SA
HETATM    6  C1  UNL     1      43.788  -3.572  27.071  1.00  0.00     0.099 C 
ENDBRANCH   1   5
BRANCH   1   7
HETATM    7  N2  UNL     1      42.941  -0.582  28.933  1.00  0.00    -0.367 N 
ATOM      8  H2  UNL     1      42.390   0.221  28.628  1.00  0.00     0.162 HD
BRANCH   7   9
HETATM    9  C3  UNL     1      42.449  -1.359  30.024  1.00  0.00     0.075 C 
HETATM   10  C4  UNL     1      41.237  -2.178  29.569  1.00  0.00     0.032 C 
HETATM   11  C5  UNL     1      42.028  -0.578  31.223  1.00  0.00     0.032 C 
ENDBRANCH   7   9
ENDBRANCH   1   7
TORSDOF 3
ENDMDL
MODEL 5
REMARK VINA RESULT: -3.917710773      2.415      4.257
REMARK  3 active torsions:
REMARK  status: ('A' for Active; 'I' for Inactive)
REMARK    1  A    between atoms: S1_2  and  C2_3 
REMARK    2  A    between atoms: C2_3  and  N2_7 
REMARK    3  A    between atoms: N2_7  and  C3_9 
ROOT
HETATM    1  C2  UNL     1      43.881  -1.898  26.665  1.00  0.00     0.133 C 
HETATM    2  N1  UNL     1      44.050  -1.120  25.651  1.00  0.00    -0.380 N 
ATOM      3  H11 UNL     1      43.951  -0.119  25.823  1.00  0.00     0.158 HD
ATOM      4  H12 UNL     1      44.271  -1.494  24.729  1.00  0.00     0.158 HD
ENDROOT
BRANCH   1   5
HETATM    5  S1  UNL     1      44.055  -3.650  26.364  1.00  0.00    -0.099 SA
HETATM    6  C1  UNL     1      43.863  -4.078  24.635  1.00  0.00     0.099 C 
ENDBRANCH   1   5
BRANCH   1   7
HETATM    7  N2  UNL     1      43.574  -1.377  27.951  1.00  0.00    -0.367 N 
ATOM      8  H2  UNL     1      43.587  -0.364  28.074  1.00  0.00     0.162 HD
BRANCH   7   9
HETATM    9  C3  UNL     1      43.247  -2.185  29.080  1.00  0.00     0.075 C 
HETATM   10  C4  UNL     1      41.758  -2.544  29.046  1.00  0.00     0.032 C 
HETATM   11  C5  UNL     1      43.520  -1.564  30.408  1.00  0.00     0.032 C 
ENDBRANCH   7   9
ENDBRANCH   1   7
TORSDOF 3
ENDMDL
