MODEL 1
REMARK VINA RESULT: -5.171019898      0.000      0.000
REMARK  2 active torsions:
REMARK  status: ('A' for Active; 'I' for Inactive)
REMARK    1  A    between atoms: C4_4  and  O1_5 
REMARK    2  A    between atoms: C7_9  and  O2_10 
ROOT
HETATM    1  C1  UNL     1      44.108  -3.728  25.775  1.00  0.00     0.012 C 
HETATM    2  C2  UNL     1      43.524  -2.691  26.728  1.00  0.00     0.013 C 
HETATM    3  C3  UNL     1      44.655  -1.791  27.143  1.00  0.00     0.038 C 
HETATM    4  C4  UNL     1      44.247  -0.735  28.131  1.00  0.00     0.118 C 
HETATM    5  C5  UNL     1      43.353  -1.249  29.211  1.00  0.00     0.034 C 
HETATM    6  C6  UNL     1      43.180  -2.734  29.217  1.00  0.00     0.034 C 
HETATM    7  C7  UNL     1      42.831  -3.324  27.894  1.00  0.00     0.122 C 
ENDROOT
BRANCH   4   8
HETATM    8  O1  UNL     1      45.446  -0.187  28.639  1.00  0.00    -0.396 OA
ATOM      9  H1  UNL     1      46.136  -0.797  28.406  1.00  0.00     0.210 HD
ENDBRANCH   4   8
BRANCH   7  10
HETATM   10  O2  UNL     1      43.127  -4.705  27.965  1.00  0.00    -0.395 OA
ATOM     11  H2  UNL     1      43.826  -4.869  28.587  1.00  0.00     0.210 HD
ENDBRANCH   7  10
TORSDOF 2
ENDMDL
MODEL 2
REMARK VINA RESULT: -5.079725508      1.133      3.695
REMARK  2 active torsions:
REMARK  status: ('A' for Active; 'I' for Inactive)
REMARK    1  A    between atoms: C4_4  and  O1_5 
REMARK    2  A    between atoms: C7_9  and  O2_10 
ROOT
HETATM    1  C1  UNL     1      43.472  -2.054  29.958  1.00  0.00     0.012 C 
HETATM    2  C2  UNL     1      43.355  -1.973  28.440  1.00  0.00     0.013 C 
HETATM    3  C3  UNL     1      43.721  -3.327  27.900  1.00  0.00     0.038 C 
HETATM    4  C4  UNL     1      43.701  -3.397  26.399  1.00  0.00     0.118 C 
HETATM    5  C5  UNL     1      44.325  -2.209  25.742  1.00  0.00     0.034 C 
HETATM    6  C6  UNL     1      45.008  -1.270  26.684  1.00  0.00     0.034 C 
HETATM    7  C7  UNL     1      44.194  -0.874  27.868  1.00  0.00     0.122 C 
ENDROOT
BRANCH   4   8
HETATM    8  O1  UNL     1      44.348  -4.604  26.052  1.00  0.00    -0.396 OA
ATOM      9  H1  UNL     1      44.791  -4.903  26.837  1.00  0.00     0.210 HD
ENDBRANCH   4   8
BRANCH   7  10
HETATM   10  O2  UNL     1      45.091  -0.370  28.837  1.00  0.00    -0.395 OA
ATOM     11  H2  UNL     1      45.329  -1.045  29.462  1.00  0.00     0.210 HD
ENDBRANCH   7  10
TORSDOF 2
ENDMDL
MODEL 3
REMARK VINA RESULT: -5.019974530      1.675      2.758
REMARK  2 active torsions:
REMARK  status: ('A' for Active; 'I' for Inactive)
REMARK    1  A    between atoms: C4_4  and  O1_5 
REMARK    2  A    between atoms: C7_9  and  O2_10 
ROOT
HETATM    1  C1  UNL     1      43.866  -3.782  25.146  1.00  0.00     0.012 C 
HETATM    2  C2  UNL     1      44.280  -3.157  26.473  1.00  0.00     0.013 C 
HETATM    3  C3  UNL     1      43.205  -3.489  27.469  1.00  0.00     0.038 C 
HETATM    4  C4  UNL     1      43.445  -2.895  28.829  1.00  0.00     0.118 C 
HETATM    5  C5  UNL     1      43.917  -1.479  28.781  1.00  0.00     0.034 C 
HETATM    6  C6  UNL     1      43.889  -0.863  27.420  1.00  0.00     0.034 C 
HETATM    7  C7  UNL     1      44.523  -1.685  26.351  1.00  0.00     0.122 C 
ENDROOT
BRANCH   4   8
HETATM    8  O1  UNL     1      42.232  -3.034  29.539  1.00  0.00    -0.396 OA
ATOM      9  H1  UNL     1      42.424  -2.802  30.440  1.00  0.00     0.210 HD
ENDBRANCH   4   8
BRANCH   7  10
HETATM   10  O2  UNL     1      44.043  -1.198  25.113  1.00  0.00    -0.395 OA
ATOM     11  H2  UNL     1      43.451  -0.466  25.245  1.00  0.00     0.210 HD
ENDBRANCH   7  10
TORSDOF 2
ENDMDL
MODEL 4
REMARK VINA RESULT: -4.755520986      1.036      2.307
REMARK  2 active torsions:
REMARK  status: ('A' for Active; 'I' for Inactive)
REMARK    1  A    between atoms: C4_4  and  O1_5 
REMARK    2  A    between atoms: C7_9  and  O2_10 
ROOT
HETATM    1  C1  UNL     1      42.127  -3.650  29.278  1.00  0.00     0.012 C 
HETATM    2  C2  UNL     1      43.406  -3.021  28.738  1.00  0.00     0.013 C 
HETATM    3  C3  UNL     1      43.200  -1.532  28.744  1.00  0.00     0.038 C 
HETATM    4  C4  UNL     1      44.367  -0.765  28.188  1.00  0.00     0.118 C 
HETATM    5  C5  UNL     1      44.936  -1.371  26.947  1.00  0.00     0.034 C 
HETATM    6  C6  UNL     1      44.139  -2.506  26.391  1.00  0.00     0.034 C 
HETATM    7  C7  UNL     1      43.767  -3.551  27.385  1.00  0.00     0.122 C 
ENDROOT
BRANCH   4   8
HETATM    8  O1  UNL     1      43.908   0.554  27.982  1.00  0.00    -0.396 OA
ATOM      9  H1  UNL     1      43.435   0.545  27.157  1.00  0.00     0.210 HD
ENDBRANCH   4   8
BRANCH   7  10
HETATM   10  O2  UNL     1      42.694  -4.288  26.832  1.00  0.00    -0.395 OA
ATOM     11  H2  UNL     1      42.805  -4.394  25.894  1.00  0.00     0.210 HD
ENDBRANCH   7  10
TORSDOF 2
ENDMDL
MODEL 5
REMARK VINA RESULT: -4.630757600      1.637      2.850
REMARK  2 active torsions:
REMARK  status: ('A' for Active; 'I' for Inactive)
REMARK    1  A    between atoms: C4_4  and  O1_5 
REMARK    2  A    between atoms: C7_9  and  O2_10 
ROOT
HETATM    1  C1  UNL     1      43.012  -1.158  29.759  1.00  0.00     0.012 C 
HETATM    2  C2  UNL     1      43.831  -1.893  28.705  1.00  0.00     0.013 C 
HETATM    3  C3  UNL     1      43.731  -1.095  27.435  1.00  0.00     0.038 C 
HETATM    4  C4  UNL     1      44.453  -1.722  26.276  1.00  0.00     0.118 C 
HETATM    5  C5  UNL     1      44.240  -3.197  26.173  1.00  0.00     0.034 C 
HETATM    6  C6  UNL     1      43.216  -3.740  27.116  1.00  0.00     0.034 C 
HETATM    7  C7  UNL     1      43.385  -3.312  28.534  1.00  0.00     0.122 C 
ENDROOT
BRANCH   4   8
HETATM    8  O1  UNL     1      44.019  -1.033  25.122  1.00  0.00    -0.396 OA
ATOM      9  H1  UNL     1      44.306  -1.552  24.380  1.00  0.00     0.210 HD
ENDBRANCH   4   8
BRANCH   7  10
HETATM   10  O2  UNL     1      42.150  -3.533  29.184  1.00  0.00    -0.395 OA
ATOM     11  H2  UNL     1      42.159  -4.357  29.657  1.00  0.00     0.210 HD
ENDBRANCH   7  10
TORSDOF 2
ENDMDL
