MODEL 1
REMARK VINA RESULT: -4.569750707      0.000      0.000
REMARK  2 active torsions:
REMARK  status: ('A' for Active; 'I' for Inactive)
REMARK    1  A    between atoms: C4_4  and  O1_5 
REMARK    2  A    between atoms: C5_7  and  O2_9 
ROOT
HETATM    1  C1  UNL     1      43.543  -2.337  29.700  1.00  0.00     0.010 C 
HETATM    2  C2  UNL     1      43.138  -2.406  28.259  1.00  0.00    -0.013 C 
HETATM    3  C3  UNL     1      43.939  -3.445  27.498  1.00  0.00     0.039 C 
HETATM    4  C4  UNL     1      43.809  -2.882  26.072  1.00  0.00     0.152 C 
HETATM    5  C5  UNL     1      44.260  -1.460  26.329  1.00  0.00     0.080 C 
HETATM    6  C6  UNL     1      44.036  -0.568  25.145  1.00  0.00     0.048 C 
HETATM    7  C7  UNL     1      43.449  -1.092  27.529  1.00  0.00     0.044 C 
ENDROOT
BRANCH   5   8
HETATM    8  O2  UNL     1      45.619  -1.482  26.608  1.00  0.00    -0.388 OA
ATOM      9  H2  UNL     1      45.938  -0.587  26.592  1.00  0.00     0.210 HD
ENDBRANCH   5   8
BRANCH   4  10
HETATM   10  O1  UNL     1      44.617  -3.559  25.196  1.00  0.00    -0.393 OA
ATOM     11  H1  UNL     1      44.535  -3.213  24.315  1.00  0.00     0.210 HD
ENDBRANCH   4  10
TORSDOF 2
ENDMDL
MODEL 2
REMARK VINA RESULT: -4.413855819      2.605      3.893
REMARK  2 active torsions:
REMARK  status: ('A' for Active; 'I' for Inactive)
REMARK    1  A    between atoms: C4_4  and  O1_5 
REMARK    2  A    between atoms: C5_7  and  O2_9 
ROOT
HETATM    1  C1  UNL     1      43.862  -1.243  27.092  1.00  0.00     0.010 C 
HETATM    2  C2  UNL     1      43.872  -2.452  27.976  1.00  0.00    -0.013 C 
HETATM    3  C3  UNL     1      43.200  -3.640  27.315  1.00  0.00     0.039 C 
HETATM    4  C4  UNL     1      42.793  -4.440  28.564  1.00  0.00     0.152 C 
HETATM    5  C5  UNL     1      42.068  -3.350  29.324  1.00  0.00     0.080 C 
HETATM    6  C6  UNL     1      41.724  -3.764  30.724  1.00  0.00     0.048 C 
HETATM    7  C7  UNL     1      43.042  -2.220  29.247  1.00  0.00     0.044 C 
ENDROOT
BRANCH   5   8
HETATM    8  O2  UNL     1      40.888  -3.066  28.651  1.00  0.00    -0.388 OA
ATOM      9  H2  UNL     1      41.044  -2.321  28.083  1.00  0.00     0.210 HD
ENDBRANCH   5   8
BRANCH   4  10
HETATM   10  O1  UNL     1      41.989  -5.500  28.234  1.00  0.00    -0.393 OA
ATOM     11  H1  UNL     1      42.401  -6.054  27.580  1.00  0.00     0.210 HD
ENDBRANCH   4  10
TORSDOF 2
ENDMDL
MODEL 3
REMARK VINA RESULT: -4.383877949      2.002      3.367
REMARK  2 active torsions:
REMARK  status: ('A' for Active; 'I' for Inactive)
REMARK    1  A    between atoms: C4_4  and  O1_5 
REMARK    2  A    between atoms: C5_7  and  O2_9 
ROOT
HETATM    1  C1  UNL     1      44.324  -4.146  26.089  1.00  0.00     0.010 C 
HETATM    2  C2  UNL     1      43.632  -2.876  26.485  1.00  0.00    -0.013 C 
HETATM    3  C3  UNL     1      44.619  -1.804  26.905  1.00  0.00     0.039 C 
HETATM    4  C4  UNL     1      43.710  -0.950  27.804  1.00  0.00     0.152 C 
HETATM    5  C5  UNL     1      43.176  -2.037  28.713  1.00  0.00     0.080 C 
HETATM    6  C6  UNL     1      42.064  -1.550  29.594  1.00  0.00     0.048 C 
HETATM    7  C7  UNL     1      42.758  -3.082  27.730  1.00  0.00     0.044 C 
ENDROOT
BRANCH   5   8
HETATM    8  O2  UNL     1      44.216  -2.472  29.523  1.00  0.00    -0.388 OA
ATOM      9  H2  UNL     1      44.696  -3.143  29.052  1.00  0.00     0.210 HD
ENDBRANCH   5   8
BRANCH   4  10
HETATM   10  O1  UNL     1      44.429   0.009  28.469  1.00  0.00    -0.393 OA
ATOM     11  H1  UNL     1      44.532   0.791  27.939  1.00  0.00     0.210 HD
ENDBRANCH   4  10
TORSDOF 2
ENDMDL
MODEL 4
REMARK VINA RESULT: -4.184067067      1.566      2.357
REMARK  2 active torsions:
REMARK  status: ('A' for Active; 'I' for Inactive)
REMARK    1  A    between atoms: C4_4  and  O1_5 
REMARK    2  A    between atoms: C5_7  and  O2_9 
ROOT
HETATM    1  C1  UNL     1      44.691  -0.540  28.324  1.00  0.00     0.010 C 
HETATM    2  C2  UNL     1      43.646  -1.408  27.691  1.00  0.00    -0.013 C 
HETATM    3  C3  UNL     1      43.416  -2.682  28.481  1.00  0.00     0.039 C 
HETATM    4  C4  UNL     1      42.863  -3.586  27.367  1.00  0.00     0.152 C 
HETATM    5  C5  UNL     1      43.953  -3.393  26.334  1.00  0.00     0.080 C 
HETATM    6  C6  UNL     1      43.593  -3.992  25.006  1.00  0.00     0.048 C 
HETATM    7  C7  UNL     1      44.096  -1.906  26.310  1.00  0.00     0.044 C 
ENDROOT
BRANCH   5   8
HETATM    8  O2  UNL     1      45.102  -4.019  26.797  1.00  0.00    -0.388 OA
ATOM      9  H2  UNL     1      45.161  -4.872  26.384  1.00  0.00     0.210 HD
ENDBRANCH   5   8
BRANCH   4  10
HETATM   10  O1  UNL     1      42.741  -4.882  27.794  1.00  0.00    -0.393 OA
ATOM     11  H1  UNL     1      43.592  -5.297  27.881  1.00  0.00     0.210 HD
ENDBRANCH   4  10
TORSDOF 2
ENDMDL
MODEL 5
REMARK VINA RESULT: -4.119895484      2.190      2.639
REMARK  2 active torsions:
REMARK  status: ('A' for Active; 'I' for Inactive)
REMARK    1  A    between atoms: C4_4  and  O1_5 
REMARK    2  A    between atoms: C5_7  and  O2_9 
ROOT
HETATM    1  C1  UNL     1      40.678  -2.928  30.863  1.00  0.00     0.010 C 
HETATM    2  C2  UNL     1      41.093  -2.949  29.423  1.00  0.00    -0.013 C 
HETATM    3  C3  UNL     1      41.974  -4.143  29.107  1.00  0.00     0.039 C 
HETATM    4  C4  UNL     1      42.721  -3.600  27.878  1.00  0.00     0.152 C 
HETATM    5  C5  UNL     1      43.215  -2.289  28.454  1.00  0.00     0.080 C 
HETATM    6  C6  UNL     1      43.817  -1.398  27.409  1.00  0.00     0.048 C 
HETATM    7  C7  UNL     1      41.974  -1.740  29.079  1.00  0.00     0.044 C 
ENDROOT
BRANCH   5   8
HETATM    8  O2  UNL     1      44.191  -2.573  29.399  1.00  0.00    -0.388 OA
ATOM      9  H2  UNL     1      44.297  -1.808  29.953  1.00  0.00     0.210 HD
ENDBRANCH   5   8
BRANCH   4  10
HETATM   10  O1  UNL     1      43.733  -4.443  27.500  1.00  0.00    -0.393 OA
ATOM     11  H1  UNL     1      43.435  -5.070  26.851  1.00  0.00     0.210 HD
ENDBRANCH   4  10
TORSDOF 2
ENDMDL
