MODEL 1
REMARK VINA RESULT: -7.842258629      0.000      0.000
REMARK  7 active torsions:
REMARK  status: ('A' for Active; 'I' for Inactive)
REMARK    1  A    between atoms: C3_3  and  N1_4 
REMARK    2  A    between atoms: N1_4  and  C4_6 
REMARK    3  A    between atoms: C9_14  and  O1_15 
REMARK    4  A    between atoms: N3_17  and  C10_18 
REMARK    5  A    between atoms: C16_25  and  N4_26 
REMARK    6  A    between atoms: N4_26  and  N5_28 
REMARK    7  A    between atoms: N5_28  and  C17_29 
ROOT
HETATM    1  C1  UNL     1      25.381  31.975   1.653  1.00  0.00     0.055 C 
HETATM    2  C2  UNL     1      24.915  32.003   3.059  1.00  0.00     0.014 A 
HETATM    3  C3  UNL     1      25.460  31.274   4.089  1.00  0.00     0.090 A 
HETATM    4  C9  UNL     1      24.735  31.592   5.223  1.00  0.00     0.176 A 
HETATM    5  N3  UNL     1      23.775  32.483   4.926  1.00  0.00    -0.275 N 
HETATM    6  C16 UNL     1      23.870  32.747   3.601  1.00  0.00     0.134 A 
ENDROOT
BRANCH   3   7
HETATM    7  N1  UNL     1      26.553  30.374   4.004  1.00  0.00    -0.380 N 
ATOM      8  H1  UNL     1      27.475  30.763   3.804  1.00  0.00     0.160 HD
BRANCH   7   9
HETATM    9  C4  UNL     1      26.453  28.960   4.180  1.00  0.00     0.107 C 
HETATM   10  C5  UNL     1      27.577  28.358   4.992  1.00  0.00     0.028 C 
HETATM   11  C6  UNL     1      27.193  26.910   5.260  1.00  0.00     0.029 C 
HETATM   12  C7  UNL     1      27.027  26.199   3.957  1.00  0.00     0.232 C 
HETATM   13  N2  UNL     1      26.098  26.867   3.068  1.00  0.00    -0.073 N 
HETATM   14  C8  UNL     1      26.425  28.243   2.854  1.00  0.00     0.257 C 
ATOM     15  H22 UNL     1      26.020  26.369   2.181  1.00  0.00     0.277 HD
ATOM     16  H21 UNL     1      25.139  26.767   3.400  1.00  0.00     0.277 HD
ENDBRANCH   7   9
ENDBRANCH   3   7
BRANCH   4  17
HETATM   17  O1  UNL     1      24.978  31.056   6.493  1.00  0.00    -0.344 OA
ATOM     18  H1  UNL     1      24.373  31.112   7.224  1.00  0.00     0.219 HD
ENDBRANCH   4  17
BRANCH   6  19
HETATM   19  N4  UNL     1      23.027  33.644   2.904  1.00  0.00    -0.288 N 
ATOM     20  H4  UNL     1      23.254  34.638   2.883  1.00  0.00     0.184 HD
BRANCH  19  21
HETATM   21  N5  UNL     1      21.896  33.186   2.252  1.00  0.00    -0.132 NA
BRANCH  21  22
HETATM   22  C17 UNL     1      20.677  33.741   2.803  1.00  0.00     0.130 C 
HETATM   23  C18 UNL     1      19.787  34.315   1.702  1.00  0.00     0.057 C 
HETATM   24  C19 UNL     1      18.552  33.463   1.831  1.00  0.00     0.123 C 
HETATM   25  C20 UNL     1      17.793  33.814   3.079  1.00  0.00     0.034 C 
HETATM   26  O2  UNL     1      19.121  32.222   2.202  1.00  0.00    -0.379 OA
HETATM   27  C21 UNL     1      18.718  33.265   4.165  1.00  0.00     0.036 C 
HETATM   28  C22 UNL     1      19.815  32.643   3.359  1.00  0.00     0.143 C 
ENDBRANCH  21  22
ENDBRANCH  19  21
ENDBRANCH   6  19
BRANCH   5  29
HETATM   29  C10 UNL     1      22.859  33.010   5.880  1.00  0.00     0.043 A 
HETATM   30  C11 UNL     1      22.954  34.326   6.336  1.00  0.00     0.033 A 
HETATM   31  C12 UNL     1      22.076  34.850   7.258  1.00  0.00     0.044 A 
HETATM   32  C13 UNL     1      21.070  34.066   7.752  1.00  0.00     0.116 A 
HETATM   33  F1  UNL     1      20.222  34.606   8.656  1.00  0.00    -0.206 F 
HETATM   34  C14 UNL     1      20.960  32.756   7.308  1.00  0.00     0.044 A 
HETATM   35  C15 UNL     1      21.841  32.230   6.384  1.00  0.00     0.033 A 
ENDBRANCH   5  29
TORSDOF 7
ENDMDL
MODEL 2
REMARK VINA RESULT: -7.562555948      4.111      7.466
REMARK  7 active torsions:
REMARK  status: ('A' for Active; 'I' for Inactive)
REMARK    1  A    between atoms: C3_3  and  N1_4 
REMARK    2  A    between atoms: N1_4  and  C4_6 
REMARK    3  A    between atoms: C9_14  and  O1_15 
REMARK    4  A    between atoms: N3_17  and  C10_18 
REMARK    5  A    between atoms: C16_25  and  N4_26 
REMARK    6  A    between atoms: N4_26  and  N5_28 
REMARK    7  A    between atoms: N5_28  and  C17_29 
ROOT
HETATM    1  C1  UNL     1      20.624  32.847   6.179  1.00  0.00     0.055 C 
HETATM    2  C2  UNL     1      21.086  33.125   4.800  1.00  0.00     0.014 A 
HETATM    3  C3  UNL     1      20.279  33.166   3.687  1.00  0.00     0.090 A 
HETATM    4  C9  UNL     1      21.104  33.454   2.614  1.00  0.00     0.176 A 
HETATM    5  N3  UNL     1      22.375  33.591   3.029  1.00  0.00    -0.275 N 
HETATM    6  C16 UNL     1      22.383  33.391   4.368  1.00  0.00     0.134 A 
ENDROOT
BRANCH   3   7
HETATM    7  N1  UNL     1      18.877  32.956   3.648  1.00  0.00    -0.380 N 
ATOM      8  H1  UNL     1      18.272  33.738   3.899  1.00  0.00     0.160 HD
BRANCH   7   9
HETATM    9  C4  UNL     1      18.253  31.725   3.282  1.00  0.00     0.107 C 
HETATM   10  C5  UNL     1      18.361  31.392   1.812  1.00  0.00     0.028 C 
HETATM   11  C6  UNL     1      17.847  29.969   1.649  1.00  0.00     0.029 C 
HETATM   12  C7  UNL     1      16.429  29.905   2.114  1.00  0.00     0.232 C 
HETATM   13  N2  UNL     1      16.258  30.410   3.461  1.00  0.00    -0.073 N 
HETATM   14  C8  UNL     1      16.787  31.727   3.634  1.00  0.00     0.257 C 
ATOM     15  H22 UNL     1      15.278  30.371   3.744  1.00  0.00     0.277 HD
ATOM     16  H21 UNL     1      16.654  29.765   4.145  1.00  0.00     0.277 HD
ENDBRANCH   7   9
ENDBRANCH   3   7
BRANCH   4  17
HETATM   17  O1  UNL     1      20.664  33.584   1.292  1.00  0.00    -0.344 OA
ATOM     18  H1  UNL     1      21.232  33.779   0.554  1.00  0.00     0.219 HD
ENDBRANCH   4  17
BRANCH   6  19
HETATM   19  N4  UNL     1      23.542  33.452   5.176  1.00  0.00    -0.288 N 
ATOM     20  H4  UNL     1      24.369  32.915   4.914  1.00  0.00     0.184 HD
BRANCH  19  21
HETATM   21  N5  UNL     1      23.565  34.233   6.317  1.00  0.00    -0.132 NA
BRANCH  21  22
HETATM   22  C17 UNL     1      24.655  35.188   6.312  1.00  0.00     0.130 C 
HETATM   23  C18 UNL     1      25.545  35.000   5.085  1.00  0.00     0.057 C 
HETATM   24  C19 UNL     1      25.393  36.327   4.389  1.00  0.00     0.123 C 
HETATM   25  C20 UNL     1      26.106  37.409   5.147  1.00  0.00     0.034 C 
HETATM   26  O2  UNL     1      24.044  36.632   4.690  1.00  0.00    -0.379 OA
HETATM   27  C21 UNL     1      25.221  37.553   6.384  1.00  0.00     0.036 C 
HETATM   28  C22 UNL     1      24.123  36.577   6.100  1.00  0.00     0.143 C 
ENDBRANCH  21  22
ENDBRANCH  19  21
ENDBRANCH   6  19
BRANCH   5  29
HETATM   29  C10 UNL     1      23.464  33.889   2.162  1.00  0.00     0.043 A 
HETATM   30  C11 UNL     1      24.449  32.943   1.873  1.00  0.00     0.033 A 
HETATM   31  C12 UNL     1      25.508  33.215   1.037  1.00  0.00     0.044 A 
HETATM   32  C13 UNL     1      25.612  34.452   0.462  1.00  0.00     0.116 A 
HETATM   33  F1  UNL     1      26.662  34.694  -0.355  1.00  0.00    -0.206 F 
HETATM   34  C14 UNL     1      24.641  35.405   0.738  1.00  0.00     0.044 A 
HETATM   35  C15 UNL     1      23.579  35.131   1.576  1.00  0.00     0.033 A 
ENDBRANCH   5  29
TORSDOF 7
ENDMDL
MODEL 3
REMARK VINA RESULT: -7.546591841      4.418      7.825
REMARK  7 active torsions:
REMARK  status: ('A' for Active; 'I' for Inactive)
REMARK    1  A    between atoms: C3_3  and  N1_4 
REMARK    2  A    between atoms: N1_4  and  C4_6 
REMARK    3  A    between atoms: C9_14  and  O1_15 
REMARK    4  A    between atoms: N3_17  and  C10_18 
REMARK    5  A    between atoms: C16_25  and  N4_26 
REMARK    6  A    between atoms: N4_26  and  N5_28 
REMARK    7  A    between atoms: N5_28  and  C17_29 
ROOT
HETATM    1  C1  UNL     1      17.913  35.730   7.985  1.00  0.00     0.055 C 
HETATM    2  C2  UNL     1      19.187  35.696   7.230  1.00  0.00     0.014 A 
HETATM    3  C3  UNL     1      20.226  36.583   7.389  1.00  0.00     0.090 A 
HETATM    4  C9  UNL     1      21.212  36.195   6.499  1.00  0.00     0.176 A 
HETATM    5  N3  UNL     1      20.817  35.113   5.810  1.00  0.00    -0.275 N 
HETATM    6  C16 UNL     1      19.575  34.792   6.245  1.00  0.00     0.134 A 
ENDROOT
BRANCH   3   7
HETATM    7  N1  UNL     1      20.276  37.677   8.289  1.00  0.00    -0.380 N 
ATOM      8  H1  UNL     1      19.681  38.482   8.093  1.00  0.00     0.160 HD
BRANCH   7   9
HETATM    9  C4  UNL     1      21.102  37.730   9.453  1.00  0.00     0.107 C 
HETATM   10  C5  UNL     1      20.352  38.043  10.728  1.00  0.00     0.028 C 
HETATM   11  C6  UNL     1      21.335  37.841  11.872  1.00  0.00     0.029 C 
HETATM   12  C7  UNL     1      22.496  38.763  11.688  1.00  0.00     0.232 C 
HETATM   13  N2  UNL     1      23.118  38.628  10.387  1.00  0.00    -0.073 N 
HETATM   14  C8  UNL     1      22.189  38.765   9.308  1.00  0.00     0.257 C 
ATOM     15  H22 UNL     1      23.895  39.282  10.284  1.00  0.00     0.277 HD
ATOM     16  H21 UNL     1      23.631  37.749  10.317  1.00  0.00     0.277 HD
ENDBRANCH   7   9
ENDBRANCH   3   7
BRANCH   4  17
HETATM   17  O1  UNL     1      22.442  36.847   6.350  1.00  0.00    -0.344 OA
ATOM     18  H1  UNL     1      23.170  36.509   5.841  1.00  0.00     0.219 HD
ENDBRANCH   4  17
BRANCH   6  19
HETATM   19  N4  UNL     1      18.816  33.703   5.757  1.00  0.00    -0.288 N 
ATOM     20  H4  UNL     1      19.201  32.759   5.802  1.00  0.00     0.184 HD
BRANCH  19  21
HETATM   21  N5  UNL     1      17.558  33.905   5.220  1.00  0.00    -0.132 NA
BRANCH  21  22
HETATM   22  C17 UNL     1      17.329  33.107   4.033  1.00  0.00     0.130 C 
HETATM   23  C18 UNL     1      18.083  33.676   2.832  1.00  0.00     0.057 C 
HETATM   24  C19 UNL     1      19.010  32.540   2.487  1.00  0.00     0.123 C 
HETATM   25  C20 UNL     1      18.248  31.398   1.881  1.00  0.00     0.034 C 
HETATM   26  O2  UNL     1      19.291  32.024   3.774  1.00  0.00    -0.379 OA
HETATM   27  C21 UNL     1      17.474  30.869   3.088  1.00  0.00     0.036 C 
HETATM   28  C22 UNL     1      17.966  31.755   4.189  1.00  0.00     0.143 C 
ENDBRANCH  21  22
ENDBRANCH  19  21
ENDBRANCH   6  19
BRANCH   5  29
HETATM   29  C10 UNL     1      21.610  34.472   4.815  1.00  0.00     0.043 A 
HETATM   30  C11 UNL     1      21.602  34.901   3.486  1.00  0.00     0.033 A 
HETATM   31  C12 UNL     1      22.363  34.293   2.513  1.00  0.00     0.044 A 
HETATM   32  C13 UNL     1      23.158  33.231   2.846  1.00  0.00     0.116 A 
HETATM   33  F1  UNL     1      23.895  32.652   1.871  1.00  0.00    -0.206 F 
HETATM   34  C14 UNL     1      23.177  32.792   4.162  1.00  0.00     0.044 A 
HETATM   35  C15 UNL     1      22.415  33.402   5.138  1.00  0.00     0.033 A 
ENDBRANCH   5  29
TORSDOF 7
ENDMDL
MODEL 4
REMARK VINA RESULT: -7.523168476      2.591      4.300
REMARK  7 active torsions:
REMARK  status: ('A' for Active; 'I' for Inactive)
REMARK    1  A    between atoms: C3_3  and  N1_4 
REMARK    2  A    between atoms: N1_4  and  C4_6 
REMARK    3  A    between atoms: C9_14  and  O1_15 
REMARK    4  A    between atoms: N3_17  and  C10_18 
REMARK    5  A    between atoms: C16_25  and  N4_26 
REMARK    6  A    between atoms: N4_26  and  N5_28 
REMARK    7  A    between atoms: N5_28  and  C17_29 
ROOT
HETATM    1  C1  UNL     1      25.625  33.690   6.358  1.00  0.00     0.055 C 
HETATM    2  C2  UNL     1      24.759  33.456   5.179  1.00  0.00     0.014 A 
HETATM    3  C3  UNL     1      25.130  32.769   4.047  1.00  0.00     0.090 A 
HETATM    4  C9  UNL     1      24.034  32.784   3.202  1.00  0.00     0.176 A 
HETATM    5  N3  UNL     1      23.017  33.449   3.772  1.00  0.00    -0.275 N 
HETATM    6  C16 UNL     1      23.443  33.870   4.987  1.00  0.00     0.134 A 
ENDROOT
BRANCH   3   7
HETATM    7  N1  UNL     1      26.387  32.162   3.798  1.00  0.00    -0.380 N 
ATOM      8  H1  UNL     1      27.142  32.756   3.455  1.00  0.00     0.160 HD
BRANCH   7   9
HETATM    9  C4  UNL     1      26.670  30.776   3.996  1.00  0.00     0.107 C 
HETATM   10  C5  UNL     1      26.387  29.911   2.789  1.00  0.00     0.028 C 
HETATM   11  C6  UNL     1      26.946  28.531   3.102  1.00  0.00     0.029 C 
HETATM   12  C7  UNL     1      26.269  27.995   4.321  1.00  0.00     0.232 C 
HETATM   13  N2  UNL     1      26.349  28.899   5.451  1.00  0.00    -0.073 N 
HETATM   14  C8  UNL     1      25.874  30.213   5.146  1.00  0.00     0.257 C 
ATOM     15  H22 UNL     1      25.863  28.514   6.261  1.00  0.00     0.277 HD
ATOM     16  H21 UNL     1      27.297  28.932   5.825  1.00  0.00     0.277 HD
ENDBRANCH   7   9
ENDBRANCH   3   7
BRANCH   4  17
HETATM   17  O1  UNL     1      24.005  32.187   1.936  1.00  0.00    -0.344 OA
ATOM     18  H1  UNL     1      23.243  31.757   1.564  1.00  0.00     0.219 HD
ENDBRANCH   4  17
BRANCH   6  19
HETATM   19  N4  UNL     1      22.654  34.610   5.897  1.00  0.00    -0.288 N 
ATOM     20  H4  UNL     1      22.407  35.577   5.682  1.00  0.00     0.184 HD
BRANCH  19  21
HETATM   21  N5  UNL     1      22.212  34.037   7.076  1.00  0.00    -0.132 NA
BRANCH  21  22
HETATM   22  C17 UNL     1      20.771  34.086   7.209  1.00  0.00     0.130 C 
HETATM   23  C18 UNL     1      20.362  34.713   8.542  1.00  0.00     0.057 C 
HETATM   24  C19 UNL     1      19.596  35.927   8.087  1.00  0.00     0.123 C 
HETATM   25  C20 UNL     1      18.275  35.530   7.495  1.00  0.00     0.034 C 
HETATM   26  O2  UNL     1      20.319  36.278   6.923  1.00  0.00    -0.379 OA
HETATM   27  C21 UNL     1      18.710  34.875   6.185  1.00  0.00     0.036 C 
HETATM   28  C22 UNL     1      20.194  35.058   6.219  1.00  0.00     0.143 C 
ENDBRANCH  21  22
ENDBRANCH  19  21
ENDBRANCH   6  19
BRANCH   5  29
HETATM   29  C10 UNL     1      21.749  33.641   3.154  1.00  0.00     0.043 A 
HETATM   30  C11 UNL     1      20.625  32.912   3.548  1.00  0.00     0.033 A 
HETATM   31  C12 UNL     1      19.392  33.085   2.961  1.00  0.00     0.044 A 
HETATM   32  C13 UNL     1      19.249  34.000   1.954  1.00  0.00     0.116 A 
HETATM   33  F1  UNL     1      18.027  34.151   1.394  1.00  0.00    -0.206 F 
HETATM   34  C14 UNL     1      20.355  34.734   1.550  1.00  0.00     0.044 A 
HETATM   35  C15 UNL     1      21.591  34.560   2.140  1.00  0.00     0.033 A 
ENDBRANCH   5  29
TORSDOF 7
ENDMDL
MODEL 5
REMARK VINA RESULT: -7.451431368      1.070      1.339
REMARK  7 active torsions:
REMARK  status: ('A' for Active; 'I' for Inactive)
REMARK    1  A    between atoms: C3_3  and  N1_4 
REMARK    2  A    between atoms: N1_4  and  C4_6 
REMARK    3  A    between atoms: C9_14  and  O1_15 
REMARK    4  A    between atoms: N3_17  and  C10_18 
REMARK    5  A    between atoms: C16_25  and  N4_26 
REMARK    6  A    between atoms: N4_26  and  N5_28 
REMARK    7  A    between atoms: N5_28  and  C17_29 
ROOT
HETATM    1  C1  UNL     1      25.040  32.071   1.626  1.00  0.00     0.055 C 
HETATM    2  C2  UNL     1      24.774  32.302   3.065  1.00  0.00     0.014 A 
HETATM    3  C3  UNL     1      25.684  32.115   4.078  1.00  0.00     0.090 A 
HETATM    4  C9  UNL     1      25.033  32.443   5.255  1.00  0.00     0.176 A 
HETATM    5  N3  UNL     1      23.770  32.822   4.998  1.00  0.00    -0.275 N 
HETATM    6  C16 UNL     1      23.593  32.741   3.658  1.00  0.00     0.134 A 
ENDROOT
BRANCH   3   7
HETATM    7  N1  UNL     1      27.025  31.674   3.943  1.00  0.00    -0.380 N 
ATOM      8  H1  UNL     1      27.740  32.378   3.761  1.00  0.00     0.160 HD
BRANCH   7   9
HETATM    9  C4  UNL     1      27.443  30.313   4.045  1.00  0.00     0.107 C 
HETATM   10  C5  UNL     1      26.327  29.348   4.373  1.00  0.00     0.028 C 
HETATM   11  C6  UNL     1      26.905  27.947   4.223  1.00  0.00     0.029 C 
HETATM   12  C7  UNL     1      28.052  27.788   5.167  1.00  0.00     0.232 C 
HETATM   13  N2  UNL     1      29.053  28.824   5.013  1.00  0.00    -0.073 N 
HETATM   14  C8  UNL     1      28.506  30.144   5.101  1.00  0.00     0.257 C 
ATOM     15  H22 UNL     1      29.813  28.699   5.683  1.00  0.00     0.277 HD
ATOM     16  H21 UNL     1      29.574  28.702   4.145  1.00  0.00     0.277 HD
ENDBRANCH   7   9
ENDBRANCH   3   7
BRANCH   4  17
HETATM   17  O1  UNL     1      25.620  32.385   6.525  1.00  0.00    -0.344 OA
ATOM     18  H1  UNL     1      26.060  33.114   6.946  1.00  0.00     0.219 HD
ENDBRANCH   4  17
BRANCH   6  19
HETATM   19  N4  UNL     1      22.387  33.061   2.993  1.00  0.00    -0.288 N 
ATOM     20  H4  UNL     1      21.846  32.321   2.544  1.00  0.00     0.184 HD
BRANCH  19  21
HETATM   21  N5  UNL     1      21.933  34.367   2.945  1.00  0.00    -0.132 NA
BRANCH  21  22
HETATM   22  C17 UNL     1      20.518  34.472   3.236  1.00  0.00     0.130 C 
HETATM   23  C18 UNL     1      19.712  34.740   1.966  1.00  0.00     0.057 C 
HETATM   24  C19 UNL     1      18.829  33.523   1.901  1.00  0.00     0.123 C 
HETATM   25  C20 UNL     1      17.776  33.573   2.971  1.00  0.00     0.034 C 
HETATM   26  O2  UNL     1      19.696  32.534   2.423  1.00  0.00    -0.379 OA
HETATM   27  C21 UNL     1      18.608  33.340   4.232  1.00  0.00     0.036 C 
HETATM   28  C22 UNL     1      19.980  33.138   3.670  1.00  0.00     0.143 C 
ENDBRANCH  21  22
ENDBRANCH  19  21
ENDBRANCH   6  19
BRANCH   5  29
HETATM   29  C10 UNL     1      22.842  33.220   6.001  1.00  0.00     0.043 A 
HETATM   30  C11 UNL     1      22.699  34.558   6.374  1.00  0.00     0.033 A 
HETATM   31  C12 UNL     1      21.806  34.960   7.342  1.00  0.00     0.044 A 
HETATM   32  C13 UNL     1      21.026  34.026   7.968  1.00  0.00     0.116 A 
HETATM   33  F1  UNL     1      20.157  34.448   8.915  1.00  0.00    -0.206 F 
HETATM   34  C14 UNL     1      21.155  32.692   7.609  1.00  0.00     0.044 A 
HETATM   35  C15 UNL     1      22.050  32.290   6.638  1.00  0.00     0.033 A 
ENDBRANCH   5  29
TORSDOF 7
ENDMDL
