MODEL 1
REMARK VINA RESULT: -8.919197926      0.000      0.000
REMARK  8 active torsions:
REMARK  status: ('A' for Active; 'I' for Inactive)
REMARK    1  A    between atoms: C2_3  and  N2_4 
REMARK    2  A    between atoms: N2_4  and  C3_6 
REMARK    3  A    between atoms: C6_9  and  C7_10 
REMARK    4  A    between atoms: C7_10  and  C8_14 
REMARK    5  A    between atoms: C8_14  and  O1_15 
REMARK    6  A    between atoms: C11_19  and  C12_20 
REMARK    7  A    between atoms: C13_25  and  C14_26 
REMARK    8  A    between atoms: C20_36  and  N7_37 
ROOT
HETATM    1  C1  UNL     1      18.708  31.245   1.439  1.00  0.00     0.177 C 
HETATM    2  N1  UNL     1      18.273  31.830   2.690  1.00  0.00    -0.170 N 
HETATM    3  C2  UNL     1      18.672  32.922   3.370  1.00  0.00     0.155 A 
HETATM    4  C11 UNL     1      17.931  33.007   4.575  1.00  0.00     0.146 A 
HETATM    5  N6  UNL     1      17.105  31.945   4.560  1.00  0.00    -0.184 N 
ATOM      6  H6  UNL     1      16.433  31.715   5.292  1.00  0.00     0.184 HD
HETATM    7  C20 UNL     1      17.295  31.246   3.460  1.00  0.00     0.680 A 
ENDROOT
BRANCH   3   8
HETATM    8  N2  UNL     1      19.596  33.907   3.012  1.00  0.00    -0.347 N 
ATOM      9  H2  UNL     1      19.129  34.709   2.589  1.00  0.00     0.167 HD
BRANCH   8  10
HETATM   10  C3  UNL     1      20.997  34.107   3.068  1.00  0.00    -0.012 C 
HETATM   11  C4  UNL     1      21.662  34.355   1.770  1.00  0.00     0.053 C 
HETATM   12  C5  UNL     1      23.179  34.405   1.928  1.00  0.00     0.016 C 
HETATM   13  C6  UNL     1      23.552  33.032   2.482  1.00  0.00     0.034 C 
HETATM   14  C9  UNL     1      23.121  33.009   3.924  1.00  0.00     0.016 C 
HETATM   15  C10 UNL     1      21.662  33.231   4.060  1.00  0.00     0.053 C 
BRANCH  13  16
HETATM   16  C7  UNL     1      25.001  32.777   2.326  1.00  0.00     0.008 C 
HETATM   17  N3  UNL     1      25.818  33.739   2.339  1.00  0.00    -0.404 N 
ATOM     18  H32 UNL     1      25.490  34.698   2.456  1.00  0.00     0.155 HD
ATOM     19  H31 UNL     1      26.816  33.563   2.231  1.00  0.00     0.155 HD
BRANCH  16  20
HETATM   20  C8  UNL     1      25.475  31.391   2.157  1.00  0.00     0.216 C 
BRANCH  20  21
HETATM   21  O1  UNL     1      24.739  30.667   1.244  1.00  0.00    -0.395 OA
ATOM     22  H1  UNL     1      24.510  29.797   1.547  1.00  0.00     0.209 HD
ENDBRANCH  20  21
ENDBRANCH  16  20
ENDBRANCH  13  16
ENDBRANCH   8  10
ENDBRANCH   3   8
BRANCH   4  23
HETATM   23  C12 UNL     1      17.995  34.010   5.634  1.00  0.00     0.196 A 
HETATM   24  N4  UNL     1      17.081  34.567   6.428  1.00  0.00    -0.276 N 
HETATM   25  N5  UNL     1      17.627  35.445   7.248  1.00  0.00    -0.277 N 
ATOM     26  H4  UNL     1      16.087  34.343   6.405  1.00  0.00     0.189 HD
HETATM   27  C13 UNL     1      18.963  35.445   6.957  1.00  0.00     0.174 A 
ATOM     28  H5  UNL     1      17.151  36.008   7.953  1.00  0.00     0.189 HD
HETATM   29  O2  UNL     1      19.126  34.582   5.998  1.00  0.00    -0.271 OA
BRANCH  27  30
HETATM   30  C14 UNL     1      19.949  36.276   7.631  1.00  0.00     0.017 A 
HETATM   31  C15 UNL     1      21.267  36.199   7.249  1.00  0.00     0.019 A 
HETATM   32  C16 UNL     1      22.223  36.984   7.881  1.00  0.00     0.043 A 
HETATM   33  C17 UNL     1      21.856  37.856   8.905  1.00  0.00     0.116 A 
HETATM   34  F1  UNL     1      22.830  38.604   9.491  1.00  0.00    -0.206 F 
HETATM   35  C18 UNL     1      20.536  37.931   9.283  1.00  0.00     0.043 A 
HETATM   36  C19 UNL     1      19.582  37.135   8.640  1.00  0.00     0.019 A 
ENDBRANCH  27  30
ENDBRANCH   4  23
BRANCH   7  37
HETATM   37  N7  UNL     1      16.656  30.180   3.160  1.00  0.00    -0.234 N 
ATOM     38  H72 UNL     1      16.308  29.958   2.227  1.00  0.00     0.174 HD
ATOM     39  H71 UNL     1      16.422  29.429   3.810  1.00  0.00     0.174 HD
ENDBRANCH   7  37
TORSDOF 8
ENDMDL
MODEL 2
REMARK VINA RESULT: -8.884425542      3.256      6.272
REMARK  8 active torsions:
REMARK  status: ('A' for Active; 'I' for Inactive)
REMARK    1  A    between atoms: C2_3  and  N2_4 
REMARK    2  A    between atoms: N2_4  and  C3_6 
REMARK    3  A    between atoms: C6_9  and  C7_10 
REMARK    4  A    between atoms: C7_10  and  C8_14 
REMARK    5  A    between atoms: C8_14  and  O1_15 
REMARK    6  A    between atoms: C11_19  and  C12_20 
REMARK    7  A    between atoms: C13_25  and  C14_26 
REMARK    8  A    between atoms: C20_36  and  N7_37 
ROOT
HETATM    1  C1  UNL     1      22.767  37.530   8.173  1.00  0.00     0.177 C 
HETATM    2  N1  UNL     1      21.453  36.958   7.968  1.00  0.00    -0.170 N 
HETATM    3  C2  UNL     1      20.960  36.126   7.031  1.00  0.00     0.155 A 
HETATM    4  C11 UNL     1      19.581  35.921   7.282  1.00  0.00     0.146 A 
HETATM    5  N6  UNL     1      19.305  36.651   8.377  1.00  0.00    -0.184 N 
ATOM      6  H6  UNL     1      18.390  36.719   8.821  1.00  0.00     0.184 HD
HETATM    7  C20 UNL     1      20.395  37.265   8.791  1.00  0.00     0.680 A 
ENDROOT
BRANCH   3   8
HETATM    8  N2  UNL     1      21.619  35.464   5.992  1.00  0.00    -0.347 N 
ATOM      9  H2  UNL     1      21.792  34.489   6.232  1.00  0.00     0.167 HD
BRANCH   8  10
HETATM   10  C3  UNL     1      22.114  35.765   4.699  1.00  0.00    -0.012 C 
HETATM   11  C4  UNL     1      21.762  34.796   3.637  1.00  0.00     0.053 C 
HETATM   12  C5  UNL     1      22.468  35.134   2.327  1.00  0.00     0.016 C 
HETATM   13  C6  UNL     1      23.956  35.062   2.665  1.00  0.00     0.034 C 
HETATM   14  C9  UNL     1      24.281  36.284   3.480  1.00  0.00     0.016 C 
HETATM   15  C10 UNL     1      23.480  36.335   4.727  1.00  0.00     0.053 C 
BRANCH  13  16
HETATM   16  C7  UNL     1      24.772  34.977   1.433  1.00  0.00     0.008 C 
HETATM   17  N3  UNL     1      25.914  34.440   1.467  1.00  0.00    -0.404 N 
ATOM     18  H32 UNL     1      26.285  34.061   2.339  1.00  0.00     0.155 HD
ATOM     19  H31 UNL     1      26.476  34.381   0.618  1.00  0.00     0.155 HD
BRANCH  16  20
HETATM   20  C8  UNL     1      24.236  35.524   0.174  1.00  0.00     0.216 C 
BRANCH  20  21
HETATM   21  O1  UNL     1      24.878  36.669  -0.244  1.00  0.00    -0.395 OA
ATOM     22  H1  UNL     1      24.727  37.416   0.323  1.00  0.00     0.209 HD
ENDBRANCH  20  21
ENDBRANCH  16  20
ENDBRANCH  13  16
ENDBRANCH   8  10
ENDBRANCH   3   8
BRANCH   4  23
HETATM   23  C12 UNL     1      18.618  35.099   6.553  1.00  0.00     0.196 A 
HETATM   24  N4  UNL     1      17.292  34.981   6.598  1.00  0.00    -0.276 N 
HETATM   25  N5  UNL     1      16.859  34.087   5.728  1.00  0.00    -0.277 N 
ATOM     26  H4  UNL     1      16.688  35.513   7.224  1.00  0.00     0.189 HD
HETATM   27  C13 UNL     1      17.974  33.612   5.097  1.00  0.00     0.174 A 
ATOM     28  H5  UNL     1      15.892  33.808   5.562  1.00  0.00     0.189 HD
HETATM   29  O2  UNL     1      18.985  34.241   5.620  1.00  0.00    -0.271 OA
BRANCH  27  30
HETATM   30  C14 UNL     1      17.957  32.599   4.052  1.00  0.00     0.017 A 
HETATM   31  C15 UNL     1      18.723  32.782   2.926  1.00  0.00     0.019 A 
HETATM   32  C16 UNL     1      18.719  31.825   1.918  1.00  0.00     0.043 A 
HETATM   33  C17 UNL     1      17.941  30.675   2.039  1.00  0.00     0.116 A 
HETATM   34  F1  UNL     1      17.972  29.769   1.024  1.00  0.00    -0.206 F 
HETATM   35  C18 UNL     1      17.176  30.496   3.168  1.00  0.00     0.043 A 
HETATM   36  C19 UNL     1      17.188  31.466   4.176  1.00  0.00     0.019 A 
ENDBRANCH  27  30
ENDBRANCH   4  23
BRANCH   7  37
HETATM   37  N7  UNL     1      20.451  38.032   9.812  1.00  0.00    -0.234 N 
ATOM     38  H72 UNL     1      20.147  37.769  10.750  1.00  0.00     0.174 HD
ATOM     39  H71 UNL     1      20.803  38.990   9.812  1.00  0.00     0.174 HD
ENDBRANCH   7  37
TORSDOF 8
ENDMDL
MODEL 3
REMARK VINA RESULT: -8.874529114      3.488      6.451
REMARK  8 active torsions:
REMARK  status: ('A' for Active; 'I' for Inactive)
REMARK    1  A    between atoms: C2_3  and  N2_4 
REMARK    2  A    between atoms: N2_4  and  C3_6 
REMARK    3  A    between atoms: C6_9  and  C7_10 
REMARK    4  A    between atoms: C7_10  and  C8_14 
REMARK    5  A    between atoms: C8_14  and  O1_15 
REMARK    6  A    between atoms: C11_19  and  C12_20 
REMARK    7  A    between atoms: C13_25  and  C14_26 
REMARK    8  A    between atoms: C20_36  and  N7_37 
ROOT
HETATM    1  C1  UNL     1      23.163  35.512   6.636  1.00  0.00     0.177 C 
HETATM    2  N1  UNL     1      21.740  35.254   6.567  1.00  0.00    -0.170 N 
HETATM    3  C2  UNL     1      21.010  34.370   5.859  1.00  0.00     0.155 A 
HETATM    4  C11 UNL     1      19.637  34.582   6.140  1.00  0.00     0.146 A 
HETATM    5  N6  UNL     1      19.607  35.599   7.020  1.00  0.00    -0.184 N 
ATOM      6  H6  UNL     1      18.761  35.998   7.426  1.00  0.00     0.184 HD
HETATM    7  C20 UNL     1      20.834  36.003   7.280  1.00  0.00     0.680 A 
ENDROOT
BRANCH   3   8
HETATM    8  N2  UNL     1      21.431  33.336   5.020  1.00  0.00    -0.347 N 
ATOM      9  H2  UNL     1      21.139  32.429   5.384  1.00  0.00     0.167 HD
BRANCH   8  10
HETATM   10  C3  UNL     1      22.149  33.190   3.807  1.00  0.00    -0.012 C 
HETATM   11  C4  UNL     1      23.598  32.926   3.948  1.00  0.00     0.053 C 
HETATM   12  C5  UNL     1      24.295  32.937   2.591  1.00  0.00     0.016 C 
HETATM   13  C6  UNL     1      24.044  34.340   2.043  1.00  0.00     0.034 C 
HETATM   14  C9  UNL     1      22.601  34.393   1.617  1.00  0.00     0.016 C 
HETATM   15  C10 UNL     1      21.688  34.122   2.753  1.00  0.00     0.053 C 
BRANCH  13  16
HETATM   16  C7  UNL     1      24.969  34.644   0.929  1.00  0.00     0.008 C 
HETATM   17  N3  UNL     1      26.172  34.265   0.985  1.00  0.00    -0.404 N 
ATOM     18  H32 UNL     1      26.518  33.749   1.794  1.00  0.00     0.155 HD
ATOM     19  H31 UNL     1      26.809  34.475   0.217  1.00  0.00     0.155 HD
BRANCH  16  20
HETATM   20  C8  UNL     1      24.469  35.390  -0.240  1.00  0.00     0.216 C 
BRANCH  20  21
HETATM   21  O1  UNL     1      24.854  36.713  -0.252  1.00  0.00    -0.395 OA
ATOM     22  H1  UNL     1      25.796  36.833  -0.261  1.00  0.00     0.209 HD
ENDBRANCH  20  21
ENDBRANCH  16  20
ENDBRANCH  13  16
ENDBRANCH   8  10
ENDBRANCH   3   8
BRANCH   4  23
HETATM   23  C12 UNL     1      18.466  33.876   5.627  1.00  0.00     0.196 A 
HETATM   24  N4  UNL     1      17.164  33.940   5.899  1.00  0.00    -0.276 N 
HETATM   25  N5  UNL     1      16.476  33.086   5.164  1.00  0.00    -0.277 N 
ATOM     26  H4  UNL     1      16.751  34.568   6.588  1.00  0.00     0.189 HD
HETATM   27  C13 UNL     1      17.396  32.445   4.382  1.00  0.00     0.174 A 
ATOM     28  H5  UNL     1      15.467  32.935   5.176  1.00  0.00     0.189 HD
HETATM   29  O2  UNL     1      18.553  32.948   4.694  1.00  0.00    -0.271 OA
BRANCH  27  30
HETATM   30  C14 UNL     1      17.069  31.412   3.411  1.00  0.00     0.017 A 
HETATM   31  C15 UNL     1      18.016  31.029   2.491  1.00  0.00     0.019 A 
HETATM   32  C16 UNL     1      17.722  30.045   1.556  1.00  0.00     0.043 A 
HETATM   33  C17 UNL     1      16.467  29.437   1.542  1.00  0.00     0.116 A 
HETATM   34  F1  UNL     1      16.229  28.478   0.606  1.00  0.00    -0.206 F 
HETATM   35  C18 UNL     1      15.523  29.822   2.464  1.00  0.00     0.043 A 
HETATM   36  C19 UNL     1      15.830  30.815   3.400  1.00  0.00     0.019 A 
ENDBRANCH  27  30
ENDBRANCH   4  23
BRANCH   7  37
HETATM   37  N7  UNL     1      21.129  36.954   8.082  1.00  0.00    -0.234 N 
ATOM     38  H72 UNL     1      21.294  37.919   7.797  1.00  0.00     0.174 HD
ATOM     39  H71 UNL     1      21.232  36.863   9.093  1.00  0.00     0.174 HD
ENDBRANCH   7  37
TORSDOF 8
ENDMDL
MODEL 4
REMARK VINA RESULT: -8.727243367      2.976      6.112
REMARK  8 active torsions:
REMARK  status: ('A' for Active; 'I' for Inactive)
REMARK    1  A    between atoms: C2_3  and  N2_4 
REMARK    2  A    between atoms: N2_4  and  C3_6 
REMARK    3  A    between atoms: C6_9  and  C7_10 
REMARK    4  A    between atoms: C7_10  and  C8_14 
REMARK    5  A    between atoms: C8_14  and  O1_15 
REMARK    6  A    between atoms: C11_19  and  C12_20 
REMARK    7  A    between atoms: C13_25  and  C14_26 
REMARK    8  A    between atoms: C20_36  and  N7_37 
ROOT
HETATM    1  C1  UNL     1      22.878  37.484   8.009  1.00  0.00     0.177 C 
HETATM    2  N1  UNL     1      21.574  36.873   7.856  1.00  0.00    -0.170 N 
HETATM    3  C2  UNL     1      21.028  36.130   6.874  1.00  0.00     0.155 A 
HETATM    4  C11 UNL     1      19.688  35.828   7.221  1.00  0.00     0.146 A 
HETATM    5  N6  UNL     1      19.489  36.412   8.416  1.00  0.00    -0.184 N 
ATOM      6  H6  UNL     1      18.617  36.383   8.945  1.00  0.00     0.184 HD
HETATM    7  C20 UNL     1      20.587  37.029   8.801  1.00  0.00     0.680 A 
ENDROOT
BRANCH   3   8
HETATM    8  N2  UNL     1      21.611  35.627   5.709  1.00  0.00    -0.347 N 
ATOM      9  H2  UNL     1      21.481  36.270   4.929  1.00  0.00     0.167 HD
BRANCH   8  10
HETATM   10  C3  UNL     1      22.332  34.476   5.304  1.00  0.00    -0.012 C 
HETATM   11  C4  UNL     1      23.737  34.406   5.761  1.00  0.00     0.053 C 
HETATM   12  C5  UNL     1      24.458  33.211   5.146  1.00  0.00     0.016 C 
HETATM   13  C6  UNL     1      24.382  33.451   3.640  1.00  0.00     0.034 C 
HETATM   14  C9  UNL     1      22.965  33.169   3.220  1.00  0.00     0.016 C 
HETATM   15  C10 UNL     1      22.003  34.051   3.923  1.00  0.00     0.053 C 
BRANCH  13  16
HETATM   16  C7  UNL     1      25.359  32.603   2.921  1.00  0.00     0.008 C 
HETATM   17  N3  UNL     1      26.467  32.321   3.457  1.00  0.00    -0.404 N 
ATOM     18  H32 UNL     1      26.700  32.673   4.386  1.00  0.00     0.155 HD
ATOM     19  H31 UNL     1      27.140  31.737   2.961  1.00  0.00     0.155 HD
BRANCH  16  20
HETATM   20  C8  UNL     1      25.023  32.096   1.579  1.00  0.00     0.216 C 
BRANCH  20  21
HETATM   21  O1  UNL     1      25.018  30.720   1.498  1.00  0.00    -0.395 OA
ATOM     22  H1  UNL     1      25.768  30.365   1.037  1.00  0.00     0.209 HD
ENDBRANCH  20  21
ENDBRANCH  16  20
ENDBRANCH  13  16
ENDBRANCH   8  10
ENDBRANCH   3   8
BRANCH   4  23
HETATM   23  C12 UNL     1      18.694  35.047   6.489  1.00  0.00     0.196 A 
HETATM   24  N4  UNL     1      17.363  35.000   6.515  1.00  0.00    -0.276 N 
HETATM   25  N5  UNL     1      16.897  34.117   5.651  1.00  0.00    -0.277 N 
ATOM     26  H4  UNL     1      16.779  35.571   7.125  1.00  0.00     0.189 HD
HETATM   27  C13 UNL     1      17.994  33.575   5.043  1.00  0.00     0.174 A 
ATOM     28  H5  UNL     1      15.919  33.887   5.474  1.00  0.00     0.189 HD
HETATM   29  O2  UNL     1      19.029  34.158   5.573  1.00  0.00    -0.271 OA
BRANCH  27  30
HETATM   30  C14 UNL     1      17.939  32.551   4.012  1.00  0.00     0.017 A 
HETATM   31  C15 UNL     1      18.701  32.696   2.877  1.00  0.00     0.019 A 
HETATM   32  C16 UNL     1      18.661  31.728   1.882  1.00  0.00     0.043 A 
HETATM   33  C17 UNL     1      17.850  30.602   2.024  1.00  0.00     0.116 A 
HETATM   34  F1  UNL     1      17.847  29.682   1.021  1.00  0.00    -0.206 F 
HETATM   35  C18 UNL     1      17.090  30.460   3.161  1.00  0.00     0.043 A 
HETATM   36  C19 UNL     1      17.138  31.442   4.157  1.00  0.00     0.019 A 
ENDBRANCH  27  30
ENDBRANCH   4  23
BRANCH   7  37
HETATM   37  N7  UNL     1      20.709  37.676   9.897  1.00  0.00    -0.234 N 
ATOM     38  H72 UNL     1      20.636  37.259  10.825  1.00  0.00     0.174 HD
ATOM     39  H71 UNL     1      20.893  38.677   9.975  1.00  0.00     0.174 HD
ENDBRANCH   7  37
TORSDOF 8
ENDMDL
MODEL 5
REMARK VINA RESULT: -8.720004364      3.003      6.085
REMARK  8 active torsions:
REMARK  status: ('A' for Active; 'I' for Inactive)
REMARK    1  A    between atoms: C2_3  and  N2_4 
REMARK    2  A    between atoms: N2_4  and  C3_6 
REMARK    3  A    between atoms: C6_9  and  C7_10 
REMARK    4  A    between atoms: C7_10  and  C8_14 
REMARK    5  A    between atoms: C8_14  and  O1_15 
REMARK    6  A    between atoms: C11_19  and  C12_20 
REMARK    7  A    between atoms: C13_25  and  C14_26 
REMARK    8  A    between atoms: C20_36  and  N7_37 
ROOT
HETATM    1  C1  UNL     1      23.053  36.992   7.840  1.00  0.00     0.177 C 
HETATM    2  N1  UNL     1      21.684  36.574   7.623  1.00  0.00    -0.170 N 
HETATM    3  C2  UNL     1      21.135  35.634   6.829  1.00  0.00     0.155 A 
HETATM    4  C11 UNL     1      19.727  35.678   6.975  1.00  0.00     0.146 A 
HETATM    5  N6  UNL     1      19.491  36.657   7.866  1.00  0.00    -0.184 N 
ATOM      6  H6  UNL     1      18.568  36.944   8.192  1.00  0.00     0.184 HD
HETATM    7  C20 UNL     1      20.630  37.192   8.255  1.00  0.00     0.680 A 
ENDROOT
BRANCH   3   8
HETATM    8  N2  UNL     1      21.755  34.681   6.018  1.00  0.00    -0.347 N 
ATOM      9  H2  UNL     1      21.699  33.753   6.437  1.00  0.00     0.167 HD
BRANCH   8  10
HETATM   10  C3  UNL     1      22.441  34.637   4.779  1.00  0.00    -0.012 C 
HETATM   11  C4  UNL     1      21.987  33.595   3.832  1.00  0.00     0.053 C 
HETATM   12  C5  UNL     1      22.887  33.540   2.601  1.00  0.00     0.016 C 
HETATM   13  C6  UNL     1      24.272  33.213   3.154  1.00  0.00     0.034 C 
HETATM   14  C9  UNL     1      24.785  34.461   3.819  1.00  0.00     0.016 C 
HETATM   15  C10 UNL     1      23.892  34.900   4.918  1.00  0.00     0.053 C 
BRANCH  13  16
HETATM   16  C7  UNL     1      25.171  32.742   2.077  1.00  0.00     0.008 C 
HETATM   17  N3  UNL     1      25.519  33.529   1.153  1.00  0.00    -0.404 N 
ATOM     18  H32 UNL     1      25.186  34.493   1.139  1.00  0.00     0.155 HD
ATOM     19  H31 UNL     1      26.138  33.204   0.412  1.00  0.00     0.155 HD
BRANCH  16  20
HETATM   20  C8  UNL     1      25.652  31.348   2.098  1.00  0.00     0.216 C 
BRANCH  20  21
HETATM   21  O1  UNL     1      24.913  30.501   1.302  1.00  0.00    -0.395 OA
ATOM     22  H1  UNL     1      24.152  30.138   1.739  1.00  0.00     0.209 HD
ENDBRANCH  20  21
ENDBRANCH  16  20
ENDBRANCH  13  16
ENDBRANCH   8  10
ENDBRANCH   3   8
BRANCH   4  23
HETATM   23  C12 UNL     1      18.702  34.857   6.334  1.00  0.00     0.196 A 
HETATM   24  N4  UNL     1      17.384  34.748   6.490  1.00  0.00    -0.276 N 
HETATM   25  N5  UNL     1      16.876  33.850   5.666  1.00  0.00    -0.277 N 
ATOM     26  H4  UNL     1      16.837  35.288   7.159  1.00  0.00     0.189 HD
HETATM   27  C13 UNL     1      17.932  33.363   4.948  1.00  0.00     0.174 A 
ATOM     28  H5  UNL     1      15.896  33.576   5.582  1.00  0.00     0.189 HD
HETATM   29  O2  UNL     1      18.986  33.990   5.381  1.00  0.00    -0.271 OA
BRANCH  27  30
HETATM   30  C14 UNL     1      17.822  32.343   3.917  1.00  0.00     0.017 A 
HETATM   31  C15 UNL     1      18.591  32.449   2.781  1.00  0.00     0.019 A 
HETATM   32  C16 UNL     1      18.500  31.485   1.785  1.00  0.00     0.043 A 
HETATM   33  C17 UNL     1      17.631  30.403   1.927  1.00  0.00     0.116 A 
HETATM   34  F1  UNL     1      17.580  29.485   0.924  1.00  0.00    -0.206 F 
HETATM   35  C18 UNL     1      16.866  30.300   3.065  1.00  0.00     0.043 A 
HETATM   36  C19 UNL     1      16.966  31.277   4.061  1.00  0.00     0.019 A 
ENDBRANCH  27  30
ENDBRANCH   4  23
BRANCH   7  37
HETATM   37  N7  UNL     1      20.732  38.147   9.099  1.00  0.00    -0.234 N 
ATOM     38  H72 UNL     1      20.691  38.029  10.112  1.00  0.00     0.174 HD
ATOM     39  H71 UNL     1      20.865  39.131   8.864  1.00  0.00     0.174 HD
ENDBRANCH   7  37
TORSDOF 8
ENDMDL
