MODEL 1
REMARK VINA RESULT: -8.318103877      0.000      0.000
REMARK  10 active torsions:
REMARK  status: ('A' for Active; 'I' for Inactive)
REMARK    1  A    between atoms: C3_4  and  C4_5 
REMARK    2  A    between atoms: C4_5  and  N2_6 
REMARK    3  A    between atoms: C4_5  and  C5_10 
REMARK    4  A    between atoms: C5_10  and  N3_11 
REMARK    5  A    between atoms: C6_12  and  N4_13 
REMARK    6  A    between atoms: C11_26  and  N9_27 
REMARK    7  A    between atoms: C12_30  and  C13_31 
REMARK    8  A    between atoms: C13_31  and  N10_32 
REMARK    9  A    between atoms: C13_31  and  C14_36 
REMARK   10  A    between atoms: C14_36  and  O1_37 
ROOT
HETATM    1  N4  UNL     1      17.173  15.788   7.702  1.00  0.00    -0.126 N 
ATOM      2  H4  UNL     1      17.363  15.310   6.822  1.00  0.00     0.197 HD
HETATM    3  C7  UNL     1      16.922  15.055   8.862  1.00  0.00     0.196 C 
HETATM    4  N5  UNL     1      16.726  14.429   9.831  1.00  0.00    -0.171 NA
ENDROOT
BRANCH   1   5
HETATM    5  C6  UNL     1      17.159  17.201   7.760  1.00  0.00     0.690 C 
HETATM    6  N3  UNL     1      15.922  17.935   7.926  1.00  0.00    -0.202 N 
HETATM    7  C12 UNL     1      15.997  19.201   8.626  1.00  0.00     0.187 C 
HETATM    8  C9  UNL     1      17.130  19.992   7.962  1.00  0.00     0.067 A 
HETATM    9  C8  UNL     1      18.273  19.272   7.745  1.00  0.00     0.117 A 
HETATM   10  N7  UNL     1      17.093  21.294   7.761  1.00  0.00    -0.352 N 
HETATM   11  N6  UNL     1      18.306  17.837   7.658  1.00  0.00    -0.185 N 
HETATM   12  C11 UNL     1      19.393  20.003   7.315  1.00  0.00     0.129 A 
ATOM     13  H6  UNL     1      19.182  17.333   7.524  1.00  0.00     0.184 HD
HETATM   14  N8  UNL     1      19.328  21.333   7.121  1.00  0.00    -0.337 N 
HETATM   15  C10 UNL     1      18.182  21.987   7.339  1.00  0.00     0.182 A 
ATOM     16  H8  UNL     1      20.154  21.843   6.808  1.00  0.00     0.168 HD
ATOM     17  H7  UNL     1      16.221  21.795   7.927  1.00  0.00     0.166 HD
BRANCH   6  18
HETATM   18  C5  UNL     1      14.752  17.407   7.321  1.00  0.00     0.181 C 
BRANCH  18  19
HETATM   19  C4  UNL     1      14.125  18.060   6.158  1.00  0.00     0.253 C 
BRANCH  19  20
HETATM   20  C3  UNL     1      13.643  16.968   5.198  1.00  0.00     0.072 A 
HETATM   21  C2  UNL     1      14.045  15.658   5.157  1.00  0.00     0.135 A 
HETATM   22  N1  UNL     1      13.353  15.063   4.146  1.00  0.00    -0.289 N 
HETATM   23  C1  UNL     1      13.415  13.691   3.695  1.00  0.00     0.174 C 
HETATM   24  N12 UNL     1      12.564  15.976   3.599  1.00  0.00    -0.021 NA
HETATM   25  N11 UNL     1      12.735  17.127   4.228  1.00  0.00    -0.285 N 
ATOM     26  H11 UNL     1      12.251  17.997   4.009  1.00  0.00     0.184 HD
ENDBRANCH  19  20
BRANCH  19  27
HETATM   27  N2  UNL     1      12.844  18.712   6.510  1.00  0.00    -0.068 N 
ATOM     28  H23 UNL     1      12.653  19.590   6.028  1.00  0.00     0.275 HD
ATOM     29  H22 UNL     1      12.005  18.241   6.172  1.00  0.00     0.275 HD
ATOM     30  H21 UNL     1      12.931  18.778   7.524  1.00  0.00     0.275 HD
ENDBRANCH  19  27
ENDBRANCH  18  19
ENDBRANCH   6  18
BRANCH   7  31
HETATM   31  C13 UNL     1      16.403  19.015  10.071  1.00  0.00     0.236 C 
BRANCH  31  32
HETATM   32  N10 UNL     1      15.417  18.096  10.714  1.00  0.00    -0.071 N 
ATOM     33 3H10 UNL     1      14.851  18.560  11.426  1.00  0.00     0.274 HD
ATOM     34 2H10 UNL     1      14.659  17.831  10.087  1.00  0.00     0.274 HD
ATOM     35 1H10 UNL     1      15.927  17.291  11.079  1.00  0.00     0.274 HD
ENDBRANCH  31  32
BRANCH  31  36
HETATM   36  C14 UNL     1      16.286  20.241  10.940  1.00  0.00     0.199 C 
BRANCH  36  37
HETATM   37  O1  UNL     1      15.033  20.578  11.371  1.00  0.00    -0.399 OA
ATOM     38  H1  UNL     1      14.450  19.863  11.601  1.00  0.00     0.209 HD
ENDBRANCH  36  37
ENDBRANCH  31  36
ENDBRANCH   7  31
BRANCH  12  39
HETATM   39  N9  UNL     1      20.475  19.364   7.112  1.00  0.00    -0.384 N 
ATOM     40  H92 UNL     1      20.592  18.410   7.453  1.00  0.00     0.157 HD
ATOM     41  H91 UNL     1      21.217  19.839   6.598  1.00  0.00     0.157 HD
ENDBRANCH  12  39
ENDBRANCH   1   5
TORSDOF 10
ENDMDL
MODEL 2
REMARK VINA RESULT: -8.300599755      1.175      1.187
REMARK  10 active torsions:
REMARK  status: ('A' for Active; 'I' for Inactive)
REMARK    1  A    between atoms: C3_4  and  C4_5 
REMARK    2  A    between atoms: C4_5  and  N2_6 
REMARK    3  A    between atoms: C4_5  and  C5_10 
REMARK    4  A    between atoms: C5_10  and  N3_11 
REMARK    5  A    between atoms: C6_12  and  N4_13 
REMARK    6  A    between atoms: C11_26  and  N9_27 
REMARK    7  A    between atoms: C12_30  and  C13_31 
REMARK    8  A    between atoms: C13_31  and  N10_32 
REMARK    9  A    between atoms: C13_31  and  C14_36 
REMARK   10  A    between atoms: C14_36  and  O1_37 
ROOT
HETATM    1  N4  UNL     1      16.752  15.691   8.891  1.00  0.00    -0.126 N 
ATOM      2  H4  UNL     1      16.098  15.087   8.395  1.00  0.00     0.197 HD
HETATM    3  C7  UNL     1      17.711  15.142   9.742  1.00  0.00     0.196 C 
HETATM    4  N5  UNL     1      18.519  14.670  10.444  1.00  0.00    -0.171 NA
ENDROOT
BRANCH   1   5
HETATM    5  C6  UNL     1      16.697  17.094   8.723  1.00  0.00     0.690 C 
HETATM    6  N3  UNL     1      15.528  17.738   8.161  1.00  0.00    -0.202 N 
HETATM    7  C12 UNL     1      15.238  19.085   8.612  1.00  0.00     0.187 C 
HETATM    8  C9  UNL     1      16.542  19.877   8.465  1.00  0.00     0.067 A 
HETATM    9  C8  UNL     1      17.653  19.232   8.937  1.00  0.00     0.117 A 
HETATM   10  N7  UNL     1      16.594  21.135   8.080  1.00  0.00    -0.352 N 
HETATM   11  N6  UNL     1      17.740  17.805   9.092  1.00  0.00    -0.185 N 
HETATM   12  C11 UNL     1      18.832  19.994   8.995  1.00  0.00     0.129 A 
ATOM     13  H6  UNL     1      18.576  17.362   9.473  1.00  0.00     0.184 HD
HETATM   14  N8  UNL     1      18.856  21.278   8.598  1.00  0.00    -0.337 N 
HETATM   15  C10 UNL     1      17.742  21.858   8.136  1.00  0.00     0.182 A 
ATOM     16  H8  UNL     1      19.723  21.812   8.649  1.00  0.00     0.168 HD
ATOM     17  H7  UNL     1      15.746  21.580   7.728  1.00  0.00     0.166 HD
BRANCH   6  18
HETATM   18  C5  UNL     1      14.809  17.045   7.153  1.00  0.00     0.181 C 
BRANCH  18  19
HETATM   19  C4  UNL     1      14.161  17.758   6.039  1.00  0.00     0.253 C 
BRANCH  19  20
HETATM   20  C3  UNL     1      13.611  16.718   5.059  1.00  0.00     0.072 A 
HETATM   21  C2  UNL     1      14.064  15.438   4.861  1.00  0.00     0.135 A 
HETATM   22  N1  UNL     1      13.277  14.884   3.898  1.00  0.00    -0.289 N 
HETATM   23  C1  UNL     1      13.343  13.556   3.330  1.00  0.00     0.174 C 
HETATM   24  N12 UNL     1      12.383  15.792   3.529  1.00  0.00    -0.021 NA
HETATM   25  N11 UNL     1      12.581  16.898   4.225  1.00  0.00    -0.285 N 
ATOM     26  H11 UNL     1      12.033  17.755   4.139  1.00  0.00     0.184 HD
ENDBRANCH  19  20
BRANCH  19  27
HETATM   27  N2  UNL     1      12.914  18.435   6.461  1.00  0.00    -0.068 N 
ATOM     28  H23 UNL     1      12.115  18.306   5.842  1.00  0.00     0.275 HD
ATOM     29  H22 UNL     1      12.456  18.038   7.281  1.00  0.00     0.275 HD
ATOM     30  H21 UNL     1      13.240  19.396   6.563  1.00  0.00     0.275 HD
ENDBRANCH  19  27
ENDBRANCH  18  19
ENDBRANCH   6  18
BRANCH   7  31
HETATM   31  C13 UNL     1      14.888  19.115  10.083  1.00  0.00     0.236 C 
BRANCH  31  32
HETATM   32  N10 UNL     1      13.523  18.532  10.247  1.00  0.00    -0.071 N 
ATOM     33 3H10 UNL     1      12.873  19.173  10.703  1.00  0.00     0.274 HD
ATOM     34 2H10 UNL     1      13.025  18.440   9.362  1.00  0.00     0.274 HD
ATOM     35 1H10 UNL     1      13.615  17.645  10.741  1.00  0.00     0.274 HD
ENDBRANCH  31  32
BRANCH  31  36
HETATM   36  C14 UNL     1      14.705  20.488  10.677  1.00  0.00     0.199 C 
BRANCH  36  37
HETATM   37  O1  UNL     1      13.566  20.703  11.402  1.00  0.00    -0.399 OA
ATOM     38  H1  UNL     1      13.175  19.947  11.823  1.00  0.00     0.209 HD
ENDBRANCH  36  37
ENDBRANCH  31  36
ENDBRANCH   7  31
BRANCH  12  39
HETATM   39  N9  UNL     1      19.882  19.425   9.436  1.00  0.00    -0.384 N 
ATOM     40  H92 UNL     1      19.841  18.493   9.847  1.00  0.00     0.157 HD
ATOM     41  H91 UNL     1      20.763  19.935   9.365  1.00  0.00     0.157 HD
ENDBRANCH  12  39
ENDBRANCH   1   5
TORSDOF 10
ENDMDL
MODEL 3
REMARK VINA RESULT: -8.267288420      2.612      6.489
REMARK  10 active torsions:
REMARK  status: ('A' for Active; 'I' for Inactive)
REMARK    1  A    between atoms: C3_4  and  C4_5 
REMARK    2  A    between atoms: C4_5  and  N2_6 
REMARK    3  A    between atoms: C4_5  and  C5_10 
REMARK    4  A    between atoms: C5_10  and  N3_11 
REMARK    5  A    between atoms: C6_12  and  N4_13 
REMARK    6  A    between atoms: C11_26  and  N9_27 
REMARK    7  A    between atoms: C12_30  and  C13_31 
REMARK    8  A    between atoms: C13_31  and  N10_32 
REMARK    9  A    between atoms: C13_31  and  C14_36 
REMARK   10  A    between atoms: C14_36  and  O1_37 
ROOT
HETATM    1  N4  UNL     1      16.191  20.465   9.779  1.00  0.00    -0.126 N 
ATOM      2  H4  UNL     1      17.044  20.861  10.173  1.00  0.00     0.197 HD
HETATM    3  C7  UNL     1      14.993  20.521  10.492  1.00  0.00     0.196 C 
HETATM    4  N5  UNL     1      13.992  20.585  11.094  1.00  0.00    -0.171 NA
ENDROOT
BRANCH   1   5
HETATM    5  C6  UNL     1      16.210  19.853   8.504  1.00  0.00     0.690 C 
HETATM    6  N3  UNL     1      17.440  19.725   7.751  1.00  0.00    -0.202 N 
HETATM    7  C12 UNL     1      17.553  18.583   6.865  1.00  0.00     0.187 C 
HETATM    8  C9  UNL     1      16.275  18.568   6.019  1.00  0.00     0.067 A 
HETATM    9  C8  UNL     1      15.122  18.759   6.730  1.00  0.00     0.117 A 
HETATM   10  N7  UNL     1      16.246  18.234   4.745  1.00  0.00    -0.352 N 
HETATM   11  N6  UNL     1      15.076  19.400   8.016  1.00  0.00    -0.185 N 
HETATM   12  C11 UNL     1      13.922  18.564   6.026  1.00  0.00     0.129 A 
ATOM     13  H6  UNL     1      14.200  19.499   8.529  1.00  0.00     0.184 HD
HETATM   14  N8  UNL     1      13.921  18.220   4.726  1.00  0.00    -0.337 N 
HETATM   15  C10 UNL     1      15.078  18.055   4.075  1.00  0.00     0.182 A 
ATOM     16  H8  UNL     1      13.038  18.084   4.235  1.00  0.00     0.168 HD
ATOM     17  H7  UNL     1      17.127  18.107   4.247  1.00  0.00     0.166 HD
BRANCH   6  18
HETATM   18  C5  UNL     1      18.399  20.764   7.866  1.00  0.00     0.181 C 
BRANCH  18  19
HETATM   19  C4  UNL     1      18.288  22.006   7.082  1.00  0.00     0.253 C 
BRANCH  19  20
HETATM   20  C3  UNL     1      19.460  22.058   6.097  1.00  0.00     0.072 A 
HETATM   21  C2  UNL     1      20.197  21.003   5.623  1.00  0.00     0.135 A 
HETATM   22  N1  UNL     1      21.130  21.520   4.777  1.00  0.00    -0.289 N 
HETATM   23  C1  UNL     1      22.148  20.826   4.021  1.00  0.00     0.174 C 
HETATM   24  N12 UNL     1      20.964  22.835   4.740  1.00  0.00    -0.021 NA
HETATM   25  N11 UNL     1      19.960  23.164   5.535  1.00  0.00    -0.285 N 
ATOM     26  H11 UNL     1      19.619  24.113   5.694  1.00  0.00     0.184 HD
ENDBRANCH  19  20
BRANCH  19  27
HETATM   27  N2  UNL     1      17.139  21.976   6.150  1.00  0.00    -0.068 N 
ATOM     28  H23 UNL     1      16.978  22.835   5.625  1.00  0.00     0.275 HD
ATOM     29  H22 UNL     1      17.258  21.388   5.325  1.00  0.00     0.275 HD
ATOM     30  H21 UNL     1      16.385  21.699   6.780  1.00  0.00     0.275 HD
ENDBRANCH  19  27
ENDBRANCH  18  19
ENDBRANCH   6  18
BRANCH   7  31
HETATM   31  C13 UNL     1      17.565  17.282   7.636  1.00  0.00     0.236 C 
BRANCH  31  32
HETATM   32  N10 UNL     1      18.985  16.943   7.950  1.00  0.00    -0.071 N 
ATOM     33 3H10 UNL     1      19.584  16.946   7.124  1.00  0.00     0.274 HD
ATOM     34 2H10 UNL     1      19.461  17.681   8.467  1.00  0.00     0.274 HD
ATOM     35 1H10 UNL     1      18.995  16.049   8.441  1.00  0.00     0.274 HD
ENDBRANCH  31  32
BRANCH  31  36
HETATM   36  C14 UNL     1      17.128  16.066   6.859  1.00  0.00     0.199 C 
BRANCH  36  37
HETATM   37  O1  UNL     1      17.750  15.838   5.663  1.00  0.00    -0.399 OA
ATOM     38  H1  UNL     1      17.192  15.737   4.900  1.00  0.00     0.209 HD
ENDBRANCH  36  37
ENDBRANCH  31  36
ENDBRANCH   7  31
BRANCH  12  39
HETATM   39  N9  UNL     1      12.830  18.726   6.661  1.00  0.00    -0.384 N 
ATOM     40  H92 UNL     1      12.831  18.960   7.653  1.00  0.00     0.157 HD
ATOM     41  H91 UNL     1      11.959  18.614   6.143  1.00  0.00     0.157 HD
ENDBRANCH  12  39
ENDBRANCH   1   5
TORSDOF 10
ENDMDL
MODEL 4
REMARK VINA RESULT: -8.215678984      3.015      5.307
REMARK  10 active torsions:
REMARK  status: ('A' for Active; 'I' for Inactive)
REMARK    1  A    between atoms: C3_4  and  C4_5 
REMARK    2  A    between atoms: C4_5  and  N2_6 
REMARK    3  A    between atoms: C4_5  and  C5_10 
REMARK    4  A    between atoms: C5_10  and  N3_11 
REMARK    5  A    between atoms: C6_12  and  N4_13 
REMARK    6  A    between atoms: C11_26  and  N9_27 
REMARK    7  A    between atoms: C12_30  and  C13_31 
REMARK    8  A    between atoms: C13_31  and  N10_32 
REMARK    9  A    between atoms: C13_31  and  C14_36 
REMARK   10  A    between atoms: C14_36  and  O1_37 
ROOT
HETATM    1  N4  UNL     1      17.200  21.648   7.578  1.00  0.00    -0.126 N 
ATOM      2  H4  UNL     1      16.881  22.093   6.718  1.00  0.00     0.197 HD
HETATM    3  C7  UNL     1      18.247  22.203   8.313  1.00  0.00     0.196 C 
HETATM    4  N5  UNL     1      19.118  22.685   8.927  1.00  0.00    -0.171 NA
ENDROOT
BRANCH   1   5
HETATM    5  C6  UNL     1      16.587  20.459   8.037  1.00  0.00     0.690 C 
HETATM    6  N3  UNL     1      16.853  19.183   7.405  1.00  0.00    -0.202 N 
HETATM    7  C12 UNL     1      16.783  18.005   8.246  1.00  0.00     0.187 C 
HETATM    8  C9  UNL     1      15.445  18.088   8.990  1.00  0.00     0.067 A 
HETATM    9  C8  UNL     1      15.170  19.316   9.525  1.00  0.00     0.117 A 
HETATM   10  N7  UNL     1      14.689  17.042   9.251  1.00  0.00    -0.352 N 
HETATM   11  N6  UNL     1      15.763  20.540   9.059  1.00  0.00    -0.185 N 
HETATM   12  C11 UNL     1      14.050  19.385  10.372  1.00  0.00     0.129 A 
ATOM     13  H6  UNL     1      15.553  21.435   9.502  1.00  0.00     0.184 HD
HETATM   14  N8  UNL     1      13.297  18.300  10.625  1.00  0.00    -0.337 N 
HETATM   15  C10 UNL     1      13.606  17.124  10.068  1.00  0.00     0.182 A 
ATOM     16  H8  UNL     1      12.489  18.373  11.243  1.00  0.00     0.168 HD
ATOM     17  H7  UNL     1      14.923  16.144   8.829  1.00  0.00     0.166 HD
BRANCH   6  18
HETATM   18  C5  UNL     1      17.074  19.171   6.004  1.00  0.00     0.181 C 
BRANCH  18  19
HETATM   19  C4  UNL     1      16.275  18.320   5.105  1.00  0.00     0.253 C 
BRANCH  19  20
HETATM   20  C3  UNL     1      16.296  18.947   3.707  1.00  0.00     0.072 A 
HETATM   21  C2  UNL     1      16.926  20.103   3.322  1.00  0.00     0.135 A 
HETATM   22  N1  UNL     1      16.672  20.268   1.994  1.00  0.00    -0.289 N 
HETATM   23  C1  UNL     1      17.108  21.331   1.116  1.00  0.00     0.174 C 
HETATM   24  N12 UNL     1      15.921  19.252   1.592  1.00  0.00    -0.021 NA
HETATM   25  N11 UNL     1      15.691  18.454   2.621  1.00  0.00    -0.285 N 
ATOM     26  H11 UNL     1      15.139  17.597   2.590  1.00  0.00     0.184 HD
ENDBRANCH  19  20
BRANCH  19  27
HETATM   27  N2  UNL     1      16.931  17.020   4.840  1.00  0.00    -0.068 N 
ATOM     28  H23 UNL     1      16.325  16.203   4.905  1.00  0.00     0.275 HD
ATOM     29  H22 UNL     1      17.200  16.854   3.871  1.00  0.00     0.275 HD
ATOM     30  H21 UNL     1      17.700  17.050   5.510  1.00  0.00     0.275 HD
ENDBRANCH  19  27
ENDBRANCH  18  19
ENDBRANCH   6  18
BRANCH   7  31
HETATM   31  C13 UNL     1      17.859  18.016   9.309  1.00  0.00     0.236 C 
BRANCH  31  32
HETATM   32  N10 UNL     1      19.120  18.518   8.686  1.00  0.00    -0.071 N 
ATOM     33 3H10 UNL     1      19.241  19.525   8.796  1.00  0.00     0.274 HD
ATOM     34 2H10 UNL     1      19.954  18.224   9.193  1.00  0.00     0.274 HD
ATOM     35 1H10 UNL     1      19.129  18.224   7.709  1.00  0.00     0.274 HD
ENDBRANCH  31  32
BRANCH  31  36
HETATM   36  C14 UNL     1      18.287  16.661   9.810  1.00  0.00     0.199 C 
BRANCH  36  37
HETATM   37  O1  UNL     1      17.336  15.900  10.431  1.00  0.00    -0.399 OA
ATOM     38  H1  UNL     1      17.060  15.107   9.985  1.00  0.00     0.209 HD
ENDBRANCH  36  37
ENDBRANCH  31  36
ENDBRANCH   7  31
BRANCH  12  39
HETATM   39  N9  UNL     1      13.771  20.512  10.893  1.00  0.00    -0.384 N 
ATOM     40  H92 UNL     1      13.421  20.577  11.848  1.00  0.00     0.157 HD
ATOM     41  H91 UNL     1      13.909  21.346  10.321  1.00  0.00     0.157 HD
ENDBRANCH  12  39
ENDBRANCH   1   5
TORSDOF 10
ENDMDL
MODEL 5
REMARK VINA RESULT: -8.142037160      2.889      6.111
REMARK  10 active torsions:
REMARK  status: ('A' for Active; 'I' for Inactive)
REMARK    1  A    between atoms: C3_4  and  C4_5 
REMARK    2  A    between atoms: C4_5  and  N2_6 
REMARK    3  A    between atoms: C4_5  and  C5_10 
REMARK    4  A    between atoms: C5_10  and  N3_11 
REMARK    5  A    between atoms: C6_12  and  N4_13 
REMARK    6  A    between atoms: C11_26  and  N9_27 
REMARK    7  A    between atoms: C12_30  and  C13_31 
REMARK    8  A    between atoms: C13_31  and  N10_32 
REMARK    9  A    between atoms: C13_31  and  C14_36 
REMARK   10  A    between atoms: C14_36  and  O1_37 
ROOT
HETATM    1  N4  UNL     1      18.192  19.743  10.845  1.00  0.00    -0.126 N 
ATOM      2  H4  UNL     1      18.846  19.076  11.252  1.00  0.00     0.197 HD
HETATM    3  C7  UNL     1      18.017  21.000  11.422  1.00  0.00     0.196 C 
HETATM    4  N5  UNL     1      17.888  22.057  11.908  1.00  0.00    -0.171 NA
ENDROOT
BRANCH   1   5
HETATM    5  C6  UNL     1      17.452  19.403   9.688  1.00  0.00     0.690 C 
HETATM    6  N3  UNL     1      18.055  19.442   8.372  1.00  0.00    -0.202 N 
HETATM    7  C12 UNL     1      17.550  18.505   7.388  1.00  0.00     0.187 C 
HETATM    8  C9  UNL     1      16.024  18.651   7.401  1.00  0.00     0.067 A 
HETATM    9  C8  UNL     1      15.469  18.683   8.651  1.00  0.00     0.117 A 
HETATM   10  N7  UNL     1      15.274  18.583   6.321  1.00  0.00    -0.352 N 
HETATM   11  N6  UNL     1      16.195  19.049   9.838  1.00  0.00    -0.185 N 
HETATM   12  C11 UNL     1      14.066  18.624   8.706  1.00  0.00     0.129 A 
ATOM     13  H6  UNL     1      15.753  19.033  10.756  1.00  0.00     0.184 HD
HETATM   14  N8  UNL     1      13.324  18.551   7.587  1.00  0.00    -0.337 N 
HETATM   15  C10 UNL     1      13.919  18.533   6.389  1.00  0.00     0.182 A 
ATOM     16  H8  UNL     1      12.307  18.510   7.651  1.00  0.00     0.168 HD
ATOM     17  H7  UNL     1      15.725  18.568   5.406  1.00  0.00     0.166 HD
BRANCH   6  18
HETATM   18  C5  UNL     1      19.026  20.445   8.117  1.00  0.00     0.181 C 
BRANCH  18  19
HETATM   19  C4  UNL     1      18.639  21.827   7.784  1.00  0.00     0.253 C 
BRANCH  19  20
HETATM   20  C3  UNL     1      18.692  21.985   6.261  1.00  0.00     0.072 A 
HETATM   21  C2  UNL     1      17.785  21.522   5.343  1.00  0.00     0.135 A 
HETATM   22  N1  UNL     1      18.240  21.893   4.114  1.00  0.00    -0.289 N 
HETATM   23  C1  UNL     1      17.648  21.648   2.818  1.00  0.00     0.174 C 
HETATM   24  N12 UNL     1      19.377  22.555   4.283  1.00  0.00    -0.021 NA
HETATM   25  N11 UNL     1      19.654  22.613   5.574  1.00  0.00    -0.285 N 
ATOM     26  H11 UNL     1      20.472  23.065   5.983  1.00  0.00     0.184 HD
ENDBRANCH  19  20
BRANCH  19  27
HETATM   27  N2  UNL     1      17.204  22.081   8.043  1.00  0.00    -0.068 N 
ATOM     28  H23 UNL     1      16.723  22.638   7.337  1.00  0.00     0.275 HD
ATOM     29  H22 UNL     1      16.591  21.271   7.949  1.00  0.00     0.275 HD
ATOM     30  H21 UNL     1      17.245  22.493   8.975  1.00  0.00     0.275 HD
ENDBRANCH  19  27
ENDBRANCH  18  19
ENDBRANCH   6  18
BRANCH   7  31
HETATM   31  C13 UNL     1      17.841  17.075   7.783  1.00  0.00     0.236 C 
BRANCH  31  32
HETATM   32  N10 UNL     1      19.311  16.847   7.647  1.00  0.00    -0.071 N 
ATOM     33 3H10 UNL     1      19.613  16.788   6.674  1.00  0.00     0.274 HD
ATOM     34 2H10 UNL     1      19.862  17.663   7.912  1.00  0.00     0.274 HD
ATOM     35 1H10 UNL     1      19.554  16.016   8.186  1.00  0.00     0.274 HD
ENDBRANCH  31  32
BRANCH  31  36
HETATM   36  C14 UNL     1      17.285  16.022   6.858  1.00  0.00     0.199 C 
BRANCH  36  37
HETATM   37  O1  UNL     1      17.760  16.010   5.576  1.00  0.00    -0.399 OA
ATOM     38  H1  UNL     1      17.126  15.869   4.883  1.00  0.00     0.209 HD
ENDBRANCH  36  37
ENDBRANCH  31  36
ENDBRANCH   7  31
BRANCH  12  39
HETATM   39  N9  UNL     1      13.517  18.644   9.855  1.00  0.00    -0.384 N 
ATOM     40  H92 UNL     1      14.073  18.773  10.700  1.00  0.00     0.157 HD
ATOM     41  H91 UNL     1      12.505  18.525   9.899  1.00  0.00     0.157 HD
ENDBRANCH  12  39
ENDBRANCH   1   5
TORSDOF 10
ENDMDL
