MODEL 1
REMARK VINA RESULT: -9.165369018      0.000      0.000
REMARK  8 active torsions:
REMARK  status: ('A' for Active; 'I' for Inactive)
REMARK    1  A    between atoms: O1_2  and  C2_3 
REMARK    2  A    between atoms: C4_5  and  O2_6 
REMARK    3  A    between atoms: C5_8  and  O3_9 
REMARK    4  A    between atoms: C7_12  and  C8_13 
REMARK    5  A    between atoms: C8_13  and  O4_14 
REMARK    6  A    between atoms: C8_13  and  O5_16 
REMARK    7  A    between atoms: O5_16  and  C9_17 
REMARK    8  A    between atoms: C10_20  and  C11_21 
ROOT
HETATM    1  C8  UNL     1      13.867  17.669   6.799  1.00  0.00     0.267 C 
ENDROOT
BRANCH   1   2
HETATM    2  C7  UNL     1      13.572  16.320   6.192  1.00  0.00     0.080 C 
HETATM    3  C2  UNL     1      14.872  15.553   5.917  1.00  0.00     0.093 C 
HETATM    4  C3  UNL     1      15.511  15.101   7.206  1.00  0.00     0.049 C 
HETATM    5  C4  UNL     1      14.338  14.414   5.082  1.00  0.00     0.181 C 
HETATM    6  C5  UNL     1      13.136  14.974   4.333  1.00  0.00     0.150 C 
HETATM    7  C6  UNL     1      13.022  16.415   4.786  1.00  0.00     0.047 C 
BRANCH   3   8
HETATM    8  O1  UNL     1      15.676  16.344   5.143  1.00  0.00    -0.382 OA
HETATM    9  C1  UNL     1      16.941  16.576   5.607  1.00  0.00     0.202 C 
ENDBRANCH   3   8
BRANCH   5  10
HETATM   10  O2  UNL     1      13.961  13.328   5.877  1.00  0.00    -0.390 OA
ATOM     11  H2  UNL     1      13.490  12.675   5.374  1.00  0.00     0.210 HD
ENDBRANCH   5  10
BRANCH   6  12
HETATM   12  O3  UNL     1      11.962  14.328   4.785  1.00  0.00    -0.393 OA
ATOM     13  H3  UNL     1      11.584  13.830   4.070  1.00  0.00     0.210 HD
ENDBRANCH   6  12
ENDBRANCH   1   2
BRANCH   1  14
HETATM   14  O4  UNL     1      12.882  18.600   6.538  1.00  0.00    -0.371 OA
ATOM     15  H4  UNL     1      12.497  18.960   7.328  1.00  0.00     0.212 HD
ENDBRANCH   1  14
BRANCH   1  16
HETATM   16  O5  UNL     1      14.125  17.562   8.162  1.00  0.00    -0.327 OA
BRANCH  16  17
HETATM   17  C9  UNL     1      14.361  18.789   8.778  1.00  0.00     0.315 C 
HETATM   18  O6  UNL     1      15.262  19.566   8.081  1.00  0.00    -0.248 OA
HETATM   19  N1  UNL     1      16.415  19.654   8.759  1.00  0.00    -0.061 NA
HETATM   20  C10 UNL     1      16.169  20.387   9.986  1.00  0.00     0.290 C 
HETATM   21  O8  UNL     1      15.393  19.605  10.809  1.00  0.00    -0.353 OA
HETATM   22  C12 UNL     1      14.827  18.507  10.180  1.00  0.00     0.177 C 
HETATM   23  C13 UNL     1      15.701  17.270  10.253  1.00  0.00     0.044 C 
BRANCH  20  24
HETATM   24  C11 UNL     1      17.504  20.740  10.601  1.00  0.00     0.305 C 
HETATM   25  N2  UNL     1      18.309  21.580   9.758  1.00  0.00    -0.089 NA
HETATM   26  N3  UNL     1      19.095  22.280  10.697  1.00  0.00    -0.008 NA
HETATM   27  N4  UNL     1      18.285  22.402  11.826  1.00  0.00     0.032 NA
HETATM   28  O7  UNL     1      17.319  21.487  11.745  1.00  0.00    -0.241 OA
ENDBRANCH  20  24
ENDBRANCH  16  17
ENDBRANCH   1  16
TORSDOF 8
ENDMDL
MODEL 2
REMARK VINA RESULT: -8.940921697      3.843      7.728
REMARK  8 active torsions:
REMARK  status: ('A' for Active; 'I' for Inactive)
REMARK    1  A    between atoms: O1_2  and  C2_3 
REMARK    2  A    between atoms: C4_5  and  O2_6 
REMARK    3  A    between atoms: C5_8  and  O3_9 
REMARK    4  A    between atoms: C7_12  and  C8_13 
REMARK    5  A    between atoms: C8_13  and  O4_14 
REMARK    6  A    between atoms: C8_13  and  O5_16 
REMARK    7  A    between atoms: O5_16  and  C9_17 
REMARK    8  A    between atoms: C10_20  and  C11_21 
ROOT
HETATM    1  C8  UNL     1      17.925  17.946   7.774  1.00  0.00     0.267 C 
ENDROOT
BRANCH   1   2
HETATM    2  C7  UNL     1      17.513  18.223   9.198  1.00  0.00     0.080 C 
HETATM    3  C2  UNL     1      18.263  19.441   9.753  1.00  0.00     0.093 C 
HETATM    4  C3  UNL     1      17.771  20.713   9.110  1.00  0.00     0.049 C 
HETATM    5  C4  UNL     1      17.903  19.332  11.215  1.00  0.00     0.181 C 
HETATM    6  C5  UNL     1      17.731  17.844  11.493  1.00  0.00     0.150 C 
HETATM    7  C6  UNL     1      17.986  17.161  10.165  1.00  0.00     0.047 C 
BRANCH   3   8
HETATM    8  O1  UNL     1      19.604  19.219   9.598  1.00  0.00    -0.382 OA
HETATM    9  C1  UNL     1      20.447  20.161  10.118  1.00  0.00     0.202 C 
ENDBRANCH   3   8
BRANCH   5  10
HETATM   10  O2  UNL     1      16.726  20.026  11.507  1.00  0.00    -0.390 OA
ATOM     11  H2  UNL     1      16.618  20.151  12.443  1.00  0.00     0.210 HD
ENDBRANCH   5  10
BRANCH   6  12
HETATM   12  O3  UNL     1      16.380  17.582  11.815  1.00  0.00    -0.393 OA
ATOM     13  H3  UNL     1      16.035  18.302  12.329  1.00  0.00     0.210 HD
ENDBRANCH   6  12
ENDBRANCH   1   2
BRANCH   1  14
HETATM   14  O4  UNL     1      18.837  16.916   7.672  1.00  0.00    -0.371 OA
ATOM     15  H4  UNL     1      18.557  16.130   8.125  1.00  0.00     0.212 HD
ENDBRANCH   1  14
BRANCH   1  16
HETATM   16  O5  UNL     1      16.815  17.733   6.962  1.00  0.00    -0.327 OA
BRANCH  16  17
HETATM   17  C9  UNL     1      16.479  16.388   6.828  1.00  0.00     0.315 C 
HETATM   18  O6  UNL     1      16.570  15.946   5.524  1.00  0.00    -0.248 OA
HETATM   19  N1  UNL     1      15.345  15.709   5.033  1.00  0.00    -0.061 NA
HETATM   20  C10 UNL     1      14.770  14.594   5.760  1.00  0.00     0.290 C 
HETATM   21  O8  UNL     1      14.506  15.004   7.046  1.00  0.00    -0.353 OA
HETATM   22  C12 UNL     1      15.094  16.212   7.387  1.00  0.00     0.177 C 
HETATM   23  C13 UNL     1      14.204  17.404   7.094  1.00  0.00     0.044 C 
BRANCH  20  24
HETATM   24  C11 UNL     1      13.530  14.139   5.023  1.00  0.00     0.305 C 
HETATM   25  N2  UNL     1      12.812  15.219   4.407  1.00  0.00    -0.089 NA
HETATM   26  N3  UNL     1      12.180  14.578   3.321  1.00  0.00    -0.008 NA
HETATM   27  N4  UNL     1      13.055  13.557   2.948  1.00  0.00     0.032 NA
HETATM   28  O7  UNL     1      13.876  13.319   3.970  1.00  0.00    -0.241 OA
ENDBRANCH  20  24
ENDBRANCH  16  17
ENDBRANCH   1  16
TORSDOF 8
ENDMDL
MODEL 3
REMARK VINA RESULT: -8.736718381      3.733      7.617
REMARK  8 active torsions:
REMARK  status: ('A' for Active; 'I' for Inactive)
REMARK    1  A    between atoms: O1_2  and  C2_3 
REMARK    2  A    between atoms: C4_5  and  O2_6 
REMARK    3  A    between atoms: C5_8  and  O3_9 
REMARK    4  A    between atoms: C7_12  and  C8_13 
REMARK    5  A    between atoms: C8_13  and  O4_14 
REMARK    6  A    between atoms: C8_13  and  O5_16 
REMARK    7  A    between atoms: O5_16  and  C9_17 
REMARK    8  A    between atoms: C10_20  and  C11_21 
ROOT
HETATM    1  C8  UNL     1      18.495  17.954   7.979  1.00  0.00     0.267 C 
ENDROOT
BRANCH   1   2
HETATM    2  C7  UNL     1      17.859  18.227   9.319  1.00  0.00     0.080 C 
HETATM    3  C2  UNL     1      18.470  19.476   9.966  1.00  0.00     0.093 C 
HETATM    4  C3  UNL     1      18.038  20.724   9.236  1.00  0.00     0.049 C 
HETATM    5  C4  UNL     1      17.893  19.366  11.356  1.00  0.00     0.181 C 
HETATM    6  C5  UNL     1      17.735  17.876  11.625  1.00  0.00     0.150 C 
HETATM    7  C6  UNL     1      18.215  17.192  10.363  1.00  0.00     0.047 C 
BRANCH   3   8
HETATM    8  O1  UNL     1      19.826  19.305  10.022  1.00  0.00    -0.382 OA
HETATM    9  C1  UNL     1      20.547  20.292  10.633  1.00  0.00     0.202 C 
ENDBRANCH   3   8
BRANCH   5  10
HETATM   10  O2  UNL     1      16.662  20.019  11.454  1.00  0.00    -0.390 OA
ATOM     11  H2  UNL     1      16.675  20.857  11.009  1.00  0.00     0.210 HD
ENDBRANCH   5  10
BRANCH   6  12
HETATM   12  O3  UNL     1      16.360  17.566  11.740  1.00  0.00    -0.393 OA
ATOM     13  H3  UNL     1      15.911  18.288  12.163  1.00  0.00     0.210 HD
ENDBRANCH   6  12
ENDBRANCH   1   2
BRANCH   1  14
HETATM   14  O4  UNL     1      19.250  16.799   7.971  1.00  0.00    -0.371 OA
ATOM     15  H4  UNL     1      18.769  16.046   7.649  1.00  0.00     0.212 HD
ENDBRANCH   1  14
BRANCH   1  16
HETATM   16  O5  UNL     1      17.545  17.954   6.962  1.00  0.00    -0.327 OA
BRANCH  16  17
HETATM   17  C9  UNL     1      16.660  16.881   7.033  1.00  0.00     0.315 C 
HETATM   18  O6  UNL     1      16.993  15.861   6.166  1.00  0.00    -0.248 OA
HETATM   19  N1  UNL     1      16.097  15.793   5.171  1.00  0.00    -0.061 NA
HETATM   20  C10 UNL     1      14.821  15.395   5.732  1.00  0.00     0.290 C 
HETATM   21  O8  UNL     1      14.343  16.432   6.498  1.00  0.00    -0.353 OA
HETATM   22  C12 UNL     1      15.280  17.417   6.767  1.00  0.00     0.177 C 
HETATM   23  C13 UNL     1      15.287  18.523   5.729  1.00  0.00     0.044 C 
BRANCH  20  24
HETATM   24  C11 UNL     1      13.896  15.033   4.592  1.00  0.00     0.305 C 
HETATM   25  N2  UNL     1      12.856  14.120   4.978  1.00  0.00    -0.089 NA
HETATM   26  N3  UNL     1      11.826  14.437   4.069  1.00  0.00    -0.008 NA
HETATM   27  N4  UNL     1      11.978  15.801   3.815  1.00  0.00     0.032 NA
HETATM   28  O7  UNL     1      13.217  16.151   4.155  1.00  0.00    -0.241 OA
ENDBRANCH  20  24
ENDBRANCH  16  17
ENDBRANCH   1  16
TORSDOF 8
ENDMDL
MODEL 4
REMARK VINA RESULT: -8.669859245      1.565      2.259
REMARK  8 active torsions:
REMARK  status: ('A' for Active; 'I' for Inactive)
REMARK    1  A    between atoms: O1_2  and  C2_3 
REMARK    2  A    between atoms: C4_5  and  O2_6 
REMARK    3  A    between atoms: C5_8  and  O3_9 
REMARK    4  A    between atoms: C7_12  and  C8_13 
REMARK    5  A    between atoms: C8_13  and  O4_14 
REMARK    6  A    between atoms: C8_13  and  O5_16 
REMARK    7  A    between atoms: O5_16  and  C9_17 
REMARK    8  A    between atoms: C10_20  and  C11_21 
ROOT
HETATM    1  C8  UNL     1      14.726  18.267   7.993  1.00  0.00     0.267 C 
ENDROOT
BRANCH   1   2
HETATM    2  C7  UNL     1      15.317  17.248   7.051  1.00  0.00     0.080 C 
HETATM    3  C2  UNL     1      16.248  17.922   6.035  1.00  0.00     0.093 C 
HETATM    4  C3  UNL     1      17.516  18.393   6.702  1.00  0.00     0.049 C 
HETATM    5  C4  UNL     1      16.468  16.778   5.074  1.00  0.00     0.181 C 
HETATM    6  C5  UNL     1      15.189  15.952   5.111  1.00  0.00     0.150 C 
HETATM    7  C6  UNL     1      14.292  16.653   6.109  1.00  0.00     0.047 C 
BRANCH   3   8
HETATM    8  O1  UNL     1      15.546  18.913   5.408  1.00  0.00    -0.382 OA
HETATM    9  C1  UNL     1      16.180  19.567   4.389  1.00  0.00     0.202 C 
ENDBRANCH   3   8
BRANCH   5  10
HETATM   10  O2  UNL     1      17.568  16.000   5.445  1.00  0.00    -0.390 OA
ATOM     11  H2  UNL     1      18.273  16.535   5.791  1.00  0.00     0.210 HD
ENDBRANCH   5  10
BRANCH   6  12
HETATM   12  O3  UNL     1      15.471  14.680   5.661  1.00  0.00    -0.393 OA
ATOM     13  H3  UNL     1      14.684  14.149   5.642  1.00  0.00     0.210 HD
ENDBRANCH   6  12
ENDBRANCH   1   2
BRANCH   1  14
HETATM   14  O4  UNL     1      13.421  18.588   7.683  1.00  0.00    -0.371 OA
ATOM     15  H4  UNL     1      13.238  19.516   7.774  1.00  0.00     0.212 HD
ENDBRANCH   1  14
BRANCH   1  16
HETATM   16  O5  UNL     1      14.856  17.861   9.317  1.00  0.00    -0.327 OA
BRANCH  16  17
HETATM   17  C9  UNL     1      15.164  18.905  10.186  1.00  0.00     0.315 C 
HETATM   18  O6  UNL     1      15.398  20.093   9.525  1.00  0.00    -0.248 OA
HETATM   19  N1  UNL     1      16.698  20.412   9.597  1.00  0.00    -0.061 NA
HETATM   20  C10 UNL     1      17.023  20.693  10.982  1.00  0.00     0.290 C 
HETATM   21  O8  UNL     1      16.960  19.514  11.689  1.00  0.00    -0.353 OA
HETATM   22  C12 UNL     1      16.350  18.475  11.005  1.00  0.00     0.177 C 
HETATM   23  C13 UNL     1      17.329  17.644  10.199  1.00  0.00     0.044 C 
BRANCH  20  24
HETATM   24  C11 UNL     1      18.393  21.331  11.026  1.00  0.00     0.305 C 
HETATM   25  N2  UNL     1      18.756  21.973   9.794  1.00  0.00    -0.089 NA
HETATM   26  N3  UNL     1      19.641  22.981  10.230  1.00  0.00    -0.008 NA
HETATM   27  N4  UNL     1      19.182  23.337  11.499  1.00  0.00     0.032 NA
HETATM   28  O7  UNL     1      18.415  22.349  11.956  1.00  0.00    -0.241 OA
ENDBRANCH  20  24
ENDBRANCH  16  17
ENDBRANCH   1  16
TORSDOF 8
ENDMDL
MODEL 5
REMARK VINA RESULT: -8.656148132      3.951      7.702
REMARK  8 active torsions:
REMARK  status: ('A' for Active; 'I' for Inactive)
REMARK    1  A    between atoms: O1_2  and  C2_3 
REMARK    2  A    between atoms: C4_5  and  O2_6 
REMARK    3  A    between atoms: C5_8  and  O3_9 
REMARK    4  A    between atoms: C7_12  and  C8_13 
REMARK    5  A    between atoms: C8_13  and  O4_14 
REMARK    6  A    between atoms: C8_13  and  O5_16 
REMARK    7  A    between atoms: O5_16  and  C9_17 
REMARK    8  A    between atoms: C10_20  and  C11_21 
ROOT
HETATM    1  C8  UNL     1      17.824  17.839   7.440  1.00  0.00     0.267 C 
ENDROOT
BRANCH   1   2
HETATM    2  C7  UNL     1      17.798  19.246   7.982  1.00  0.00     0.080 C 
HETATM    3  C2  UNL     1      18.142  20.259   6.882  1.00  0.00     0.093 C 
HETATM    4  C3  UNL     1      17.018  20.367   5.883  1.00  0.00     0.049 C 
HETATM    5  C4  UNL     1      18.325  21.505   7.714  1.00  0.00     0.181 C 
HETATM    6  C5  UNL     1      18.846  21.032   9.065  1.00  0.00     0.150 C 
HETATM    7  C6  UNL     1      18.925  19.524   8.953  1.00  0.00     0.047 C 
BRANCH   3   8
HETATM    8  O1  UNL     1      19.343  19.899   6.334  1.00  0.00    -0.382 OA
HETATM    9  C1  UNL     1      19.924  20.795   5.481  1.00  0.00     0.202 C 
ENDBRANCH   3   8
BRANCH   5  10
HETATM   10  O2  UNL     1      17.123  22.201   7.866  1.00  0.00    -0.390 OA
ATOM     11  H2  UNL     1      16.839  22.213   8.773  1.00  0.00     0.210 HD
ENDBRANCH   5  10
BRANCH   6  12
HETATM   12  O3  UNL     1      17.878  21.302  10.059  1.00  0.00    -0.393 OA
ATOM     13  H3  UNL     1      18.256  21.145  10.916  1.00  0.00     0.210 HD
ENDBRANCH   6  12
ENDBRANCH   1   2
BRANCH   1  14
HETATM   14  O4  UNL     1      19.070  17.254   7.530  1.00  0.00    -0.371 OA
ATOM     15  H4  UNL     1      19.253  16.663   6.809  1.00  0.00     0.212 HD
ENDBRANCH   1  14
BRANCH   1  16
HETATM   16  O5  UNL     1      16.842  17.053   8.035  1.00  0.00    -0.327 OA
BRANCH  16  17
HETATM   17  C9  UNL     1      16.550  15.897   7.316  1.00  0.00     0.315 C 
HETATM   18  O6  UNL     1      16.461  16.125   5.958  1.00  0.00    -0.248 OA
HETATM   19  N1  UNL     1      15.188  16.008   5.555  1.00  0.00    -0.061 NA
HETATM   20  C10 UNL     1      14.780  14.627   5.722  1.00  0.00     0.290 C 
HETATM   21  O8  UNL     1      14.697  14.360   7.069  1.00  0.00    -0.353 OA
HETATM   22  C12 UNL     1      15.275  15.328   7.875  1.00  0.00     0.177 C 
HETATM   23  C13 UNL     1      14.299  16.412   8.288  1.00  0.00     0.044 C 
BRANCH  20  24
HETATM   24  C11 UNL     1      13.465  14.432   5.003  1.00  0.00     0.305 C 
HETATM   25  N2  UNL     1      13.140  15.515   4.118  1.00  0.00    -0.089 NA
HETATM   26  N3  UNL     1      12.341  14.878   3.145  1.00  0.00    -0.008 NA
HETATM   27  N4  UNL     1      12.840  13.577   3.066  1.00  0.00     0.032 NA
HETATM   28  O7  UNL     1      13.532  13.330   4.177  1.00  0.00    -0.241 OA
ENDBRANCH  20  24
ENDBRANCH  16  17
ENDBRANCH   1  16
TORSDOF 8
ENDMDL
