MODEL 1
REMARK VINA RESULT: -9.259753725      0.000      0.000
REMARK  6 active torsions:
REMARK  status: ('A' for Active; 'I' for Inactive)
REMARK    1  A    between atoms: O1_2  and  N1_3 
REMARK    2  A    between atoms: N1_3  and  C2_5 
REMARK    3  A    between atoms: C3_6  and  C4_7 
REMARK       I    between atoms: C4_7  and  N2_9 
REMARK    4  A    between atoms: N2_9  and  N3_11 
REMARK    5  A    between atoms: C6_16  and  C7_17 
REMARK    6  A    between atoms: C12_31  and  N12_32 
ROOT
HETATM    1  C2  UNL     1      17.054  20.529   5.803  1.00  0.00     0.130 C 
HETATM    2  C3  UNL     1      16.401  19.854   6.838  1.00  0.00     0.136 C 
HETATM    3  N8  UNL     1      16.608  20.049   8.170  1.00  0.00    -0.338 N 
ATOM      4  H8  UNL     1      16.084  19.430   8.788  1.00  0.00     0.167 HD
HETATM    5  C9  UNL     1      17.411  20.948   8.796  1.00  0.00     0.156 C 
HETATM    6  C10 UNL     1      17.296  21.022  10.222  1.00  0.00     0.121 C 
HETATM    7  N9  UNL     1      17.216  21.069  11.396  1.00  0.00    -0.190 NA
HETATM    8  C11 UNL     1      18.343  21.815   8.215  1.00  0.00     0.155 C 
HETATM    9  N10 UNL     1      18.976  22.722   9.117  1.00  0.00    -0.079 NA
HETATM   10  N11 UNL     1      18.737  21.926   6.930  1.00  0.00    -0.327 N 
ATOM     11  H11 UNL     1      19.435  22.636   6.711  1.00  0.00     0.168 HD
HETATM   12  C12 UNL     1      18.271  21.157   5.891  1.00  0.00     0.131 C 
ENDROOT
BRANCH   2  13
HETATM   13  C4  UNL     1      15.404  18.860   6.428  1.00  0.00     0.289 C 
HETATM   14  O2  UNL     1      14.256  19.275   6.277  1.00  0.00    -0.264 OA
HETATM   15  N2  UNL     1      15.786  17.533   6.235  1.00  0.00    -0.254 N 
ATOM     16  H2  UNL     1      16.777  17.362   6.405  1.00  0.00     0.191 HD
BRANCH  15  17
HETATM   17  N3  UNL     1      15.085  16.414   5.861  1.00  0.00    -0.208 N 
HETATM   18  C5  UNL     1      15.242  15.216   6.501  1.00  0.00     0.216 A 
HETATM   19  N4  UNL     1      16.111  14.963   7.597  1.00  0.00    -0.061 NA
HETATM   20  N5  UNL     1      14.439  14.317   5.925  1.00  0.00    -0.322 N 
HETATM   21  C6  UNL     1      13.748  14.862   4.922  1.00  0.00     0.143 A 
ATOM     22  H5  UNL     1      14.365  13.341   6.213  1.00  0.00     0.169 HD
HETATM   23  C8  UNL     1      14.180  16.202   4.902  1.00  0.00     0.173 A 
HETATM   24  N7  UNL     1      13.647  17.098   3.946  1.00  0.00    -0.078 NA
BRANCH  21  25
HETATM   25  C7  UNL     1      12.771  14.235   4.038  1.00  0.00     0.284 C 
HETATM   26  N6  UNL     1      13.189  13.405   2.981  1.00  0.00    -0.056 NA
HETATM   27  O3  UNL     1      11.553  14.435   4.223  1.00  0.00    -0.269 OA
ENDBRANCH  21  25
ENDBRANCH  15  17
ENDBRANCH   2  13
BRANCH   1  28
HETATM   28  N1  UNL     1      16.434  20.546   4.717  1.00  0.00    -0.261 N 
ATOM     29  H1  UNL     1      15.454  20.808   4.823  1.00  0.00     0.194 HD
BRANCH  28  30
HETATM   30  O1  UNL     1      16.772  20.297   3.454  1.00  0.00    -0.285 OA
HETATM   31  C1  UNL     1      16.162  19.347   2.603  1.00  0.00     0.237 C 
ENDBRANCH  28  30
ENDBRANCH   1  28
BRANCH  12  32
HETATM   32  N12 UNL     1      19.073  20.999   4.920  1.00  0.00    -0.383 N 
ATOM     33 2H12 UNL     1      18.870  21.549   4.086  1.00  0.00     0.157 HD
ATOM     34 1H12 UNL     1      19.853  20.357   5.062  1.00  0.00     0.157 HD
ENDBRANCH  12  32
TORSDOF 6
ENDMDL
MODEL 2
REMARK VINA RESULT: -9.227859616      1.498      1.817
REMARK  6 active torsions:
REMARK  status: ('A' for Active; 'I' for Inactive)
REMARK    1  A    between atoms: O1_2  and  N1_3 
REMARK    2  A    between atoms: N1_3  and  C2_5 
REMARK    3  A    between atoms: C3_6  and  C4_7 
REMARK       I    between atoms: C4_7  and  N2_9 
REMARK    4  A    between atoms: N2_9  and  N3_11 
REMARK    5  A    between atoms: C6_16  and  C7_17 
REMARK    6  A    between atoms: C12_31  and  N12_32 
ROOT
HETATM    1  C2  UNL     1      16.721  20.123   7.277  1.00  0.00     0.130 C 
HETATM    2  C3  UNL     1      16.841  18.835   7.807  1.00  0.00     0.136 C 
HETATM    3  N8  UNL     1      17.207  18.531   9.084  1.00  0.00    -0.338 N 
ATOM      4  H8  UNL     1      17.298  17.536   9.286  1.00  0.00     0.167 HD
HETATM    5  C9  UNL     1      17.469  19.361  10.127  1.00  0.00     0.156 C 
HETATM    6  C10 UNL     1      17.674  18.739  11.401  1.00  0.00     0.121 C 
HETATM    7  N9  UNL     1      17.862  18.225  12.444  1.00  0.00    -0.190 NA
HETATM    8  C11 UNL     1      17.564  20.756  10.110  1.00  0.00     0.155 C 
HETATM    9  N10 UNL     1      17.754  21.370  11.384  1.00  0.00    -0.079 NA
HETATM   10  N11 UNL     1      17.505  21.614   9.070  1.00  0.00    -0.327 N 
ATOM     11  H11 UNL     1      17.593  22.609   9.276  1.00  0.00     0.168 HD
HETATM   12  C12 UNL     1      17.335  21.252   7.756  1.00  0.00     0.131 C 
ENDROOT
BRANCH   2  13
HETATM   13  C4  UNL     1      16.533  17.733   6.891  1.00  0.00     0.289 C 
HETATM   14  O2  UNL     1      17.434  17.401   6.121  1.00  0.00    -0.264 OA
HETATM   15  N2  UNL     1      15.278  17.128   6.929  1.00  0.00    -0.254 N 
ATOM     16  H2  UNL     1      14.651  17.527   7.628  1.00  0.00     0.191 HD
BRANCH  15  17
HETATM   17  N3  UNL     1      14.723  16.101   6.209  1.00  0.00    -0.208 N 
HETATM   18  C5  UNL     1      14.805  14.801   6.624  1.00  0.00     0.216 A 
HETATM   19  N4  UNL     1      15.444  14.341   7.807  1.00  0.00    -0.061 NA
HETATM   20  N5  UNL     1      14.181  14.028   5.730  1.00  0.00    -0.322 N 
HETATM   21  C6  UNL     1      13.682  14.756   4.730  1.00  0.00     0.143 A 
ATOM     22  H5  UNL     1      14.097  13.014   5.803  1.00  0.00     0.169 HD
HETATM   23  C8  UNL     1      14.043  16.076   5.060  1.00  0.00     0.173 A 
HETATM   24  N7  UNL     1      13.672  17.141   4.204  1.00  0.00    -0.078 NA
BRANCH  21  25
HETATM   25  C7  UNL     1      12.935  14.310   3.558  1.00  0.00     0.284 C 
HETATM   26  N6  UNL     1      13.305  13.134   2.878  1.00  0.00    -0.056 NA
HETATM   27  O3  UNL     1      11.960  14.976   3.156  1.00  0.00    -0.269 OA
ENDBRANCH  21  25
ENDBRANCH  15  17
ENDBRANCH   2  13
BRANCH   1  28
HETATM   28  N1  UNL     1      15.968  20.210   6.283  1.00  0.00    -0.261 N 
ATOM     29  H1  UNL     1      15.039  19.823   6.452  1.00  0.00     0.194 HD
BRANCH  28  30
HETATM   30  O1  UNL     1      16.112  20.697   5.052  1.00  0.00    -0.285 OA
HETATM   31  C1  UNL     1      16.569  19.978   3.923  1.00  0.00     0.237 C 
ENDBRANCH  28  30
ENDBRANCH   1  28
BRANCH  12  32
HETATM   32  N12 UNL     1      17.824  22.050   6.898  1.00  0.00    -0.383 N 
ATOM     33 2H12 UNL     1      18.681  21.738   6.442  1.00  0.00     0.157 HD
ATOM     34 1H12 UNL     1      17.315  22.918   6.729  1.00  0.00     0.157 HD
ENDBRANCH  12  32
TORSDOF 6
ENDMDL
MODEL 3
REMARK VINA RESULT: -8.982150781      1.030      1.030
REMARK  6 active torsions:
REMARK  status: ('A' for Active; 'I' for Inactive)
REMARK    1  A    between atoms: O1_2  and  N1_3 
REMARK    2  A    between atoms: N1_3  and  C2_5 
REMARK    3  A    between atoms: C3_6  and  C4_7 
REMARK       I    between atoms: C4_7  and  N2_9 
REMARK    4  A    between atoms: N2_9  and  N3_11 
REMARK    5  A    between atoms: C6_16  and  C7_17 
REMARK    6  A    between atoms: C12_31  and  N12_32 
ROOT
HETATM    1  C2  UNL     1      17.409  20.616   5.382  1.00  0.00     0.130 C 
HETATM    2  C3  UNL     1      17.273  19.528   6.248  1.00  0.00     0.136 C 
HETATM    3  N8  UNL     1      17.583  19.524   7.575  1.00  0.00    -0.338 N 
ATOM      4  H8  UNL     1      17.474  18.625   8.046  1.00  0.00     0.167 HD
HETATM    5  C9  UNL     1      18.015  20.542   8.364  1.00  0.00     0.156 C 
HETATM    6  C10 UNL     1      18.102  20.269   9.767  1.00  0.00     0.121 C 
HETATM    7  N9  UNL     1      18.193  20.037  10.919  1.00  0.00    -0.190 NA
HETATM    8  C11 UNL     1      18.386  21.832   7.971  1.00  0.00     0.155 C 
HETATM    9  N10 UNL     1      18.706  22.725   9.038  1.00  0.00    -0.079 NA
HETATM   10  N11 UNL     1      18.491  22.363   6.736  1.00  0.00    -0.327 N 
ATOM     11  H11 UNL     1      18.778  23.339   6.666  1.00  0.00     0.168 HD
HETATM   12  C12 UNL     1      18.241  21.692   5.563  1.00  0.00     0.131 C 
ENDROOT
BRANCH   2  13
HETATM   13  C4  UNL     1      16.743  18.297   5.655  1.00  0.00     0.289 C 
HETATM   14  O2  UNL     1      17.356  17.857   4.682  1.00  0.00    -0.264 OA
HETATM   15  N2  UNL     1      15.607  17.698   6.197  1.00  0.00    -0.254 N 
ATOM     16  H2  UNL     1      15.225  18.194   7.001  1.00  0.00     0.191 HD
BRANCH  15  17
HETATM   17  N3  UNL     1      14.905  16.569   5.857  1.00  0.00    -0.208 N 
HETATM   18  C5  UNL     1      15.079  15.384   6.516  1.00  0.00     0.216 A 
HETATM   19  N4  UNL     1      15.969  15.155   7.600  1.00  0.00    -0.061 NA
HETATM   20  N5  UNL     1      14.269  14.471   5.972  1.00  0.00    -0.322 N 
HETATM   21  C6  UNL     1      13.557  14.994   4.972  1.00  0.00     0.143 A 
ATOM     22  H5  UNL     1      14.205  13.500   6.280  1.00  0.00     0.169 HD
HETATM   23  C8  UNL     1      13.983  16.335   4.919  1.00  0.00     0.173 A 
HETATM   24  N7  UNL     1      13.428  17.211   3.957  1.00  0.00    -0.078 NA
BRANCH  21  25
HETATM   25  C7  UNL     1      12.566  14.347   4.119  1.00  0.00     0.284 C 
HETATM   26  N6  UNL     1      12.969  13.529   3.047  1.00  0.00    -0.056 NA
HETATM   27  O3  UNL     1      11.351  14.519   4.343  1.00  0.00    -0.269 OA
ENDBRANCH  21  25
ENDBRANCH  15  17
ENDBRANCH   2  13
BRANCH   1  28
HETATM   28  N1  UNL     1      16.679  20.570   4.367  1.00  0.00    -0.261 N 
ATOM     29  H1  UNL     1      15.718  20.303   4.580  1.00  0.00     0.194 HD
BRANCH  28  30
HETATM   30  O1  UNL     1      16.883  20.793   3.071  1.00  0.00    -0.285 OA
HETATM   31  C1  UNL     1      16.464  19.957   2.010  1.00  0.00     0.237 C 
ENDBRANCH  28  30
ENDBRANCH   1  28
BRANCH  12  32
HETATM   32  N12 UNL     1      18.872  22.111   4.545  1.00  0.00    -0.383 N 
ATOM     33 2H12 UNL     1      18.645  21.650   3.664  1.00  0.00     0.157 HD
ATOM     34 1H12 UNL     1      19.532  22.875   4.690  1.00  0.00     0.157 HD
ENDBRANCH  12  32
TORSDOF 6
ENDMDL
MODEL 4
REMARK VINA RESULT: -8.868253735      1.829      3.755
REMARK  6 active torsions:
REMARK  status: ('A' for Active; 'I' for Inactive)
REMARK    1  A    between atoms: O1_2  and  N1_3 
REMARK    2  A    between atoms: N1_3  and  C2_5 
REMARK    3  A    between atoms: C3_6  and  C4_7 
REMARK       I    between atoms: C4_7  and  N2_9 
REMARK    4  A    between atoms: N2_9  and  N3_11 
REMARK    5  A    between atoms: C6_16  and  C7_17 
REMARK    6  A    between atoms: C12_31  and  N12_32 
ROOT
HETATM    1  C2  UNL     1      17.577  20.496   6.615  1.00  0.00     0.130 C 
HETATM    2  C3  UNL     1      16.832  20.100   5.500  1.00  0.00     0.136 C 
HETATM    3  N8  UNL     1      16.941  20.619   4.246  1.00  0.00    -0.338 N 
ATOM      4  H8  UNL     1      16.280  20.251   3.562  1.00  0.00     0.167 HD
HETATM    5  C9  UNL     1      17.802  21.557   3.772  1.00  0.00     0.156 C 
HETATM    6  C10 UNL     1      17.782  21.784   2.357  1.00  0.00     0.121 C 
HETATM    7  N9  UNL     1      17.752  21.985   1.197  1.00  0.00    -0.190 NA
HETATM    8  C11 UNL     1      18.711  22.332   4.499  1.00  0.00     0.155 C 
HETATM    9  N10 UNL     1      19.560  23.171   3.717  1.00  0.00    -0.079 NA
HETATM   10  N11 UNL     1      18.907  22.411   5.832  1.00  0.00    -0.327 N 
ATOM     11  H11 UNL     1      19.634  23.045   6.163  1.00  0.00     0.168 HD
HETATM   12  C12 UNL     1      18.204  21.705   6.777  1.00  0.00     0.131 C 
ENDROOT
BRANCH   2  13
HETATM   13  C4  UNL     1      15.861  19.025   5.726  1.00  0.00     0.289 C 
HETATM   14  O2  UNL     1      15.046  19.212   6.627  1.00  0.00    -0.264 OA
HETATM   15  N2  UNL     1      15.903  17.876   4.937  1.00  0.00    -0.254 N 
ATOM     16  H2  UNL     1      16.643  17.884   4.237  1.00  0.00     0.191 HD
BRANCH  15  17
HETATM   17  N3  UNL     1      15.139  16.736   4.923  1.00  0.00    -0.208 N 
HETATM   18  C5  UNL     1      15.474  15.633   5.659  1.00  0.00     0.216 A 
HETATM   19  N4  UNL     1      16.607  15.508   6.507  1.00  0.00    -0.061 NA
HETATM   20  N5  UNL     1      14.555  14.685   5.448  1.00  0.00    -0.322 N 
HETATM   21  C6  UNL     1      13.615  15.107   4.600  1.00  0.00     0.143 A 
ATOM     22  H5  UNL     1      14.571  13.761   5.878  1.00  0.00     0.169 HD
HETATM   23  C8  UNL     1      14.013  16.419   4.279  1.00  0.00     0.173 A 
HETATM   24  N7  UNL     1      13.233  17.190   3.385  1.00  0.00    -0.078 NA
BRANCH  21  25
HETATM   25  C7  UNL     1      12.443  14.392   4.105  1.00  0.00     0.284 C 
HETATM   26  N6  UNL     1      11.158  14.706   4.585  1.00  0.00    -0.056 NA
HETATM   27  O3  UNL     1      12.581  13.497   3.248  1.00  0.00    -0.269 OA
ENDBRANCH  21  25
ENDBRANCH  15  17
ENDBRANCH   2  13
BRANCH   1  28
HETATM   28  N1  UNL     1      17.661  19.636   7.519  1.00  0.00    -0.261 N 
ATOM     29  H1  UNL     1      17.901  18.709   7.166  1.00  0.00     0.194 HD
BRANCH  28  30
HETATM   30  O1  UNL     1      17.507  19.665   8.841  1.00  0.00    -0.285 OA
HETATM   31  C1  UNL     1      16.870  18.674   9.624  1.00  0.00     0.237 C 
ENDBRANCH  28  30
ENDBRANCH   1  28
BRANCH  12  32
HETATM   32  N12 UNL     1      18.116  22.252   7.919  1.00  0.00    -0.383 N 
ATOM     33 2H12 UNL     1      18.227  21.628   8.718  1.00  0.00     0.157 HD
ATOM     34 1H12 UNL     1      17.959  23.260   7.939  1.00  0.00     0.157 HD
ENDBRANCH  12  32
TORSDOF 6
ENDMDL
MODEL 5
REMARK VINA RESULT: -8.796511233      1.817      2.273
REMARK  6 active torsions:
REMARK  status: ('A' for Active; 'I' for Inactive)
REMARK    1  A    between atoms: O1_2  and  N1_3 
REMARK    2  A    between atoms: N1_3  and  C2_5 
REMARK    3  A    between atoms: C3_6  and  C4_7 
REMARK       I    between atoms: C4_7  and  N2_9 
REMARK    4  A    between atoms: N2_9  and  N3_11 
REMARK    5  A    between atoms: C6_16  and  C7_17 
REMARK    6  A    between atoms: C12_31  and  N12_32 
ROOT
HETATM    1  C2  UNL     1      17.876  19.190   7.614  1.00  0.00     0.130 C 
HETATM    2  C3  UNL     1      16.528  18.853   7.766  1.00  0.00     0.136 C 
HETATM    3  N8  UNL     1      15.727  19.228   8.803  1.00  0.00    -0.338 N 
ATOM      4  H8  UNL     1      14.781  18.846   8.783  1.00  0.00     0.167 HD
HETATM    5  C9  UNL     1      16.003  20.036   9.859  1.00  0.00     0.156 C 
HETATM    6  C10 UNL     1      14.901  20.377  10.707  1.00  0.00     0.121 C 
HETATM    7  N9  UNL     1      13.998  20.640  11.416  1.00  0.00    -0.190 NA
HETATM    8  C11 UNL     1      17.240  20.579  10.222  1.00  0.00     0.155 C 
HETATM    9  N10 UNL     1      17.210  21.477  11.331  1.00  0.00    -0.079 NA
HETATM   10  N11 UNL     1      18.462  20.383   9.684  1.00  0.00    -0.327 N 
ATOM     11  H11 UNL     1      19.245  20.886  10.101  1.00  0.00     0.168 HD
HETATM   12  C12 UNL     1      18.733  19.559   8.618  1.00  0.00     0.131 C 
ENDROOT
BRANCH   2  13
HETATM   13  C4  UNL     1      15.947  18.031   6.701  1.00  0.00     0.289 C 
HETATM   14  O2  UNL     1      15.990  18.505   5.566  1.00  0.00    -0.264 OA
HETATM   15  N2  UNL     1      15.389  16.791   7.007  1.00  0.00    -0.254 N 
ATOM     16  H2  UNL     1      15.436  16.552   7.997  1.00  0.00     0.191 HD
BRANCH  15  17
HETATM   17  N3  UNL     1      14.788  15.830   6.233  1.00  0.00    -0.208 N 
HETATM   18  C5  UNL     1      14.923  14.496   6.504  1.00  0.00     0.216 A 
HETATM   19  N4  UNL     1      15.669  13.933   7.574  1.00  0.00    -0.061 NA
HETATM   20  N5  UNL     1      14.235  13.805   5.590  1.00  0.00    -0.322 N 
HETATM   21  C6  UNL     1      13.641  14.620   4.717  1.00  0.00     0.143 A 
ATOM     22  H5  UNL     1      14.172  12.787   5.565  1.00  0.00     0.169 HD
HETATM   23  C8  UNL     1      14.012  15.907   5.150  1.00  0.00     0.173 A 
HETATM   24  N7  UNL     1      13.553  17.045   4.444  1.00  0.00    -0.078 NA
BRANCH  21  25
HETATM   25  C7  UNL     1      12.803  14.279   3.572  1.00  0.00     0.284 C 
HETATM   26  N6  UNL     1      11.696  15.080   3.232  1.00  0.00    -0.056 NA
HETATM   27  O3  UNL     1      13.070  13.271   2.888  1.00  0.00    -0.269 OA
ENDBRANCH  21  25
ENDBRANCH  15  17
ENDBRANCH   2  13
BRANCH   1  28
HETATM   28  N1  UNL     1      18.294  19.148   6.436  1.00  0.00    -0.261 N 
ATOM     29  H1  UNL     1      17.988  18.314   5.934  1.00  0.00     0.194 HD
BRANCH  28  30
HETATM   30  O1  UNL     1      19.052  19.952   5.694  1.00  0.00    -0.285 OA
HETATM   31  C1  UNL     1      18.629  21.149   5.070  1.00  0.00     0.237 C 
ENDBRANCH  28  30
ENDBRANCH   1  28
BRANCH  12  32
HETATM   32  N12 UNL     1      19.906  19.075   8.583  1.00  0.00    -0.383 N 
ATOM     33 2H12 UNL     1      20.571  19.572   7.990  1.00  0.00     0.157 HD
ATOM     34 1H12 UNL     1      20.085  18.251   9.156  1.00  0.00     0.157 HD
ENDBRANCH  12  32
TORSDOF 6
ENDMDL
