MODEL 1
REMARK VINA RESULT: -9.027823917      0.000      0.000
REMARK  7 active torsions:
REMARK  status: ('A' for Active; 'I' for Inactive)
REMARK    1  A    between atoms: C2_2  and  C3_3 
REMARK    2  A    between atoms: C2_2  and  N5_20 
REMARK    3  A    between atoms: C3_3  and  N1_4 
REMARK    4  A    between atoms: N3_12  and  O3_13 
REMARK    5  A    between atoms: N5_20  and  C9_22 
REMARK    6  A    between atoms: C10_23  and  O5_24 
REMARK    7  A    between atoms: C11_27  and  N6_28 
ROOT
HETATM    1  C1  UNL     1      17.761  21.534   3.820  1.00  0.00     0.065 C 
HETATM    2  C2  UNL     1      17.007  20.532   4.626  1.00  0.00     0.003 C 
ENDROOT
BRANCH   2   3
HETATM    3  C3  UNL     1      16.133  19.593   3.845  1.00  0.00     0.203 C 
BRANCH   3   4
HETATM    4  N1  UNL     1      16.149  18.278   4.510  1.00  0.00    -0.267 N 
HETATM    5  N2  UNL     1      17.140  17.826   5.216  1.00  0.00    -0.261 N 
HETATM    6  C4  UNL     1      16.843  16.580   5.692  1.00  0.00     0.279 A 
ATOM      7  H2  UNL     1      18.012  18.326   5.389  1.00  0.00     0.190 HD
HETATM    8  O1  UNL     1      17.530  15.826   6.400  1.00  0.00    -0.266 OA
HETATM    9  C5  UNL     1      15.575  16.247   5.243  1.00  0.00     0.149 A 
HETATM   10  C6  UNL     1      14.736  15.161   5.377  1.00  0.00     0.295 A 
HETATM   11  C8  UNL     1      15.173  17.352   4.498  1.00  0.00     0.148 A 
HETATM   12  O2  UNL     1      15.107  14.171   6.049  1.00  0.00    -0.264 OA
HETATM   13  N3  UNL     1      13.524  15.169   4.786  1.00  0.00    -0.133 N 
HETATM   14  C7  UNL     1      13.180  16.259   4.077  1.00  0.00     0.355 A 
HETATM   15  O4  UNL     1      12.026  16.225   3.534  1.00  0.00    -0.244 OA
HETATM   16  N4  UNL     1      13.958  17.332   3.920  1.00  0.00    -0.290 N 
ATOM     17  H4  UNL     1      13.635  18.127   3.368  1.00  0.00     0.172 HD
BRANCH  13  18
HETATM   18  O3  UNL     1      12.656  14.084   4.905  1.00  0.00    -0.276 OA
ATOM     19  H3  UNL     1      11.806  14.177   5.320  1.00  0.00     0.245 HD
ENDBRANCH  13  18
ENDBRANCH   3   4
ENDBRANCH   2   3
BRANCH   2  20
HETATM   20  N5  UNL     1      16.478  21.030   5.843  1.00  0.00    -0.354 N 
ATOM     21  H5  UNL     1      15.648  21.608   5.711  1.00  0.00     0.166 HD
BRANCH  20  22
HETATM   22  C9  UNL     1      16.846  20.901   7.175  1.00  0.00     0.160 A 
HETATM   23  C10 UNL     1      16.160  20.015   8.022  1.00  0.00     0.219 A 
HETATM   24  O6  UNL     1      16.471  19.869   9.288  1.00  0.00    -0.254 OA
HETATM   25  C11 UNL     1      17.434  20.530   9.864  1.00  0.00     0.226 A 
HETATM   26  N7  UNL     1      18.127  21.390   9.117  1.00  0.00    -0.287 N 
HETATM   27  C12 UNL     1      17.850  21.588   7.781  1.00  0.00     0.280 A 
ATOM     28  H7  UNL     1      18.887  21.917   9.547  1.00  0.00     0.172 HD
HETATM   29  O7  UNL     1      18.560  22.409   7.198  1.00  0.00    -0.265 OA
BRANCH  23  30
HETATM   30  O5  UNL     1      15.122  19.288   7.447  1.00  0.00    -0.339 OA
ATOM     31  H5  UNL     1      15.368  18.506   6.967  1.00  0.00     0.220 HD
ENDBRANCH  23  30
BRANCH  25  32
HETATM   32  N6  UNL     1      17.743  20.389  11.114  1.00  0.00    -0.365 N 
ATOM     33  H62 UNL     1      18.543  19.808  11.365  1.00  0.00     0.159 HD
ATOM     34  H61 UNL     1      17.224  20.832  11.872  1.00  0.00     0.159 HD
ENDBRANCH  25  32
ENDBRANCH  20  22
ENDBRANCH   2  20
TORSDOF 7
ENDMDL
MODEL 2
REMARK VINA RESULT: -8.960949507      0.802      1.611
REMARK  7 active torsions:
REMARK  status: ('A' for Active; 'I' for Inactive)
REMARK    1  A    between atoms: C2_2  and  C3_3 
REMARK    2  A    between atoms: C2_2  and  N5_20 
REMARK    3  A    between atoms: C3_3  and  N1_4 
REMARK    4  A    between atoms: N3_12  and  O3_13 
REMARK    5  A    between atoms: N5_20  and  C9_22 
REMARK    6  A    between atoms: C10_23  and  O5_24 
REMARK    7  A    between atoms: C11_27  and  N6_28 
ROOT
HETATM    1  C1  UNL     1      17.626  21.508   4.480  1.00  0.00     0.065 C 
HETATM    2  C2  UNL     1      16.872  20.403   5.137  1.00  0.00     0.003 C 
ENDROOT
BRANCH   2   3
HETATM    3  C3  UNL     1      16.078  19.520   4.217  1.00  0.00     0.203 C 
BRANCH   3   4
HETATM    4  N1  UNL     1      16.058  18.158   4.780  1.00  0.00    -0.267 N 
HETATM    5  N2  UNL     1      17.026  17.634   5.467  1.00  0.00    -0.261 N 
HETATM    6  C4  UNL     1      16.697  16.361   5.841  1.00  0.00     0.279 A 
ATOM      7  H2  UNL     1      17.902  18.104   5.696  1.00  0.00     0.190 HD
HETATM    8  O1  UNL     1      17.356  15.543   6.502  1.00  0.00    -0.266 OA
HETATM    9  C5  UNL     1      15.434  16.088   5.343  1.00  0.00     0.149 A 
HETATM   10  C6  UNL     1      14.573  15.011   5.377  1.00  0.00     0.295 A 
HETATM   11  C8  UNL     1      15.066  17.254   4.677  1.00  0.00     0.148 A 
HETATM   12  O2  UNL     1      14.913  13.965   5.978  1.00  0.00    -0.264 OA
HETATM   13  N3  UNL     1      13.374  15.087   4.764  1.00  0.00    -0.133 N 
HETATM   14  C7  UNL     1      13.064  16.234   4.135  1.00  0.00     0.355 A 
HETATM   15  O4  UNL     1      11.921  16.264   3.568  1.00  0.00    -0.244 OA
HETATM   16  N4  UNL     1      13.863  17.301   4.076  1.00  0.00    -0.290 N 
ATOM     17  H4  UNL     1      13.566  18.142   3.580  1.00  0.00     0.172 HD
BRANCH  13  18
HETATM   18  O3  UNL     1      12.485  14.013   4.782  1.00  0.00    -0.276 OA
ATOM     19  H3  UNL     1      12.797  13.116   4.780  1.00  0.00     0.245 HD
ENDBRANCH  13  18
ENDBRANCH   3   4
ENDBRANCH   2   3
BRANCH   2  20
HETATM   20  N5  UNL     1      16.263  20.753   6.367  1.00  0.00    -0.354 N 
ATOM     21  H5  UNL     1      15.380  21.249   6.248  1.00  0.00     0.166 HD
BRANCH  20  22
HETATM   22  C9  UNL     1      16.607  20.567   7.698  1.00  0.00     0.160 A 
HETATM   23  C10 UNL     1      17.372  21.528   8.379  1.00  0.00     0.219 A 
HETATM   24  O6  UNL     1      17.725  21.387   9.635  1.00  0.00    -0.254 OA
HETATM   25  C11 UNL     1      17.400  20.349  10.352  1.00  0.00     0.226 A 
HETATM   26  N7  UNL     1      16.672  19.396   9.767  1.00  0.00    -0.287 N 
HETATM   27  C12 UNL     1      16.270  19.486   8.451  1.00  0.00     0.280 A 
ATOM     28  H7  UNL     1      16.405  18.576  10.310  1.00  0.00     0.172 HD
HETATM   29  O7  UNL     1      15.603  18.541   8.026  1.00  0.00    -0.265 OA
BRANCH  23  30
HETATM   30  O5  UNL     1      17.743  22.654   7.650  1.00  0.00    -0.339 OA
ATOM     31  H5  UNL     1      18.619  22.651   7.284  1.00  0.00     0.220 HD
ENDBRANCH  23  30
BRANCH  25  32
HETATM   32  N6  UNL     1      17.746  20.206  11.592  1.00  0.00    -0.365 N 
ATOM     33  H62 UNL     1      17.048  19.902  12.270  1.00  0.00     0.159 HD
ATOM     34  H61 UNL     1      18.691  20.385  11.932  1.00  0.00     0.159 HD
ENDBRANCH  25  32
ENDBRANCH  20  22
ENDBRANCH   2  20
TORSDOF 7
ENDMDL
MODEL 3
REMARK VINA RESULT: -8.728345824      2.162      3.795
REMARK  7 active torsions:
REMARK  status: ('A' for Active; 'I' for Inactive)
REMARK    1  A    between atoms: C2_2  and  C3_3 
REMARK    2  A    between atoms: C2_2  and  N5_20 
REMARK    3  A    between atoms: C3_3  and  N1_4 
REMARK    4  A    between atoms: N3_12  and  O3_13 
REMARK    5  A    between atoms: N5_20  and  C9_22 
REMARK    6  A    between atoms: C10_23  and  O5_24 
REMARK    7  A    between atoms: C11_27  and  N6_28 
ROOT
HETATM    1  C1  UNL     1      15.837  19.535   8.559  1.00  0.00     0.065 C 
HETATM    2  C2  UNL     1      15.831  19.129   7.125  1.00  0.00     0.003 C 
ENDROOT
BRANCH   2   3
HETATM    3  C3  UNL     1      16.768  18.013   6.761  1.00  0.00     0.203 C 
BRANCH   3   4
HETATM    4  N1  UNL     1      15.977  16.785   6.567  1.00  0.00    -0.267 N 
HETATM    5  N2  UNL     1      16.110  15.707   7.278  1.00  0.00    -0.261 N 
HETATM    6  C4  UNL     1      15.233  14.752   6.846  1.00  0.00     0.279 A 
ATOM      7  H2  UNL     1      16.770  15.591   8.047  1.00  0.00     0.190 HD
HETATM    8  O1  UNL     1      15.059  13.598   7.268  1.00  0.00    -0.266 OA
HETATM    9  C5  UNL     1      14.512  15.287   5.791  1.00  0.00     0.149 A 
HETATM   10  C6  UNL     1      13.509  14.840   4.956  1.00  0.00     0.295 A 
HETATM   11  C8  UNL     1      15.016  16.577   5.648  1.00  0.00     0.148 A 
HETATM   12  O2  UNL     1      13.063  13.677   5.091  1.00  0.00    -0.264 OA
HETATM   13  N3  UNL     1      13.017  15.653   3.999  1.00  0.00    -0.133 N 
HETATM   14  C7  UNL     1      13.535  16.890   3.901  1.00  0.00     0.355 A 
HETATM   15  O4  UNL     1      13.042  17.627   2.983  1.00  0.00    -0.244 OA
HETATM   16  N4  UNL     1      14.504  17.366   4.686  1.00  0.00    -0.290 N 
ATOM     17  H4  UNL     1      14.853  18.316   4.558  1.00  0.00     0.172 HD
BRANCH  13  18
HETATM   18  O3  UNL     1      12.004  15.227   3.141  1.00  0.00    -0.276 OA
ATOM     19  H3  UNL     1      11.089  15.321   3.375  1.00  0.00     0.245 HD
ENDBRANCH  13  18
ENDBRANCH   3   4
ENDBRANCH   2   3
BRANCH   2  20
HETATM   20  N5  UNL     1      15.735  20.204   6.207  1.00  0.00    -0.354 N 
ATOM     21  H5  UNL     1      14.840  20.690   6.253  1.00  0.00     0.166 HD
BRANCH  20  22
HETATM   22  C9  UNL     1      16.596  20.738   5.258  1.00  0.00     0.160 A 
HETATM   23  C10 UNL     1      17.443  21.810   5.586  1.00  0.00     0.219 A 
HETATM   24  O6  UNL     1      18.265  22.349   4.717  1.00  0.00    -0.254 OA
HETATM   25  C11 UNL     1      18.364  21.939   3.485  1.00  0.00     0.226 A 
HETATM   26  N7  UNL     1      17.588  20.923   3.105  1.00  0.00    -0.287 N 
HETATM   27  C12 UNL     1      16.703  20.315   3.971  1.00  0.00     0.280 A 
ATOM     28  H7  UNL     1      17.650  20.586   2.145  1.00  0.00     0.172 HD
HETATM   29  O7  UNL     1      16.041  19.388   3.502  1.00  0.00    -0.265 OA
BRANCH  23  30
HETATM   30  O5  UNL     1      17.369  22.280   6.894  1.00  0.00    -0.339 OA
ATOM     31  H5  UNL     1      16.615  22.815   7.108  1.00  0.00     0.220 HD
ENDBRANCH  23  30
BRANCH  25  32
HETATM   32  N6  UNL     1      19.175  22.469   2.624  1.00  0.00    -0.365 N 
ATOM     33  H62 UNL     1      19.603  23.370   2.835  1.00  0.00     0.159 HD
ATOM     34  H61 UNL     1      19.410  22.030   1.734  1.00  0.00     0.159 HD
ENDBRANCH  25  32
ENDBRANCH  20  22
ENDBRANCH   2  20
TORSDOF 7
ENDMDL
MODEL 4
REMARK VINA RESULT: -8.709647144      2.585      3.408
REMARK  7 active torsions:
REMARK  status: ('A' for Active; 'I' for Inactive)
REMARK    1  A    between atoms: C2_2  and  C3_3 
REMARK    2  A    between atoms: C2_2  and  N5_20 
REMARK    3  A    between atoms: C3_3  and  N1_4 
REMARK    4  A    between atoms: N3_12  and  O3_13 
REMARK    5  A    between atoms: N5_20  and  C9_22 
REMARK    6  A    between atoms: C10_23  and  O5_24 
REMARK    7  A    between atoms: C11_27  and  N6_28 
ROOT
HETATM    1  C1  UNL     1      16.895  20.497   2.303  1.00  0.00     0.065 C 
HETATM    2  C2  UNL     1      16.936  20.365   3.787  1.00  0.00     0.003 C 
ENDROOT
BRANCH   2   3
HETATM    3  C3  UNL     1      15.666  19.888   4.432  1.00  0.00     0.203 C 
BRANCH   3   4
HETATM    4  N1  UNL     1      15.835  18.474   4.807  1.00  0.00    -0.267 N 
HETATM    5  N2  UNL     1      16.935  17.965   5.273  1.00  0.00    -0.261 N 
HETATM    6  C4  UNL     1      16.764  16.632   5.520  1.00  0.00     0.279 A 
ATOM      7  H2  UNL     1      17.798  18.485   5.433  1.00  0.00     0.190 HD
HETATM    8  O1  UNL     1      17.577  15.806   5.966  1.00  0.00    -0.266 OA
HETATM    9  C5  UNL     1      15.464  16.302   5.178  1.00  0.00     0.149 A 
HETATM   10  C6  UNL     1      14.702  15.152   5.194  1.00  0.00     0.295 A 
HETATM   11  C8  UNL     1      14.911  17.498   4.731  1.00  0.00     0.148 A 
HETATM   12  O2  UNL     1      15.208  14.079   5.597  1.00  0.00    -0.264 OA
HETATM   13  N3  UNL     1      13.421  15.186   4.775  1.00  0.00    -0.133 N 
HETATM   14  C7  UNL     1      12.931  16.366   4.353  1.00  0.00     0.355 A 
HETATM   15  O4  UNL     1      11.715  16.355   3.966  1.00  0.00    -0.244 OA
HETATM   16  N4  UNL     1      13.629  17.503   4.320  1.00  0.00    -0.290 N 
ATOM     17  H4  UNL     1      13.196  18.365   3.988  1.00  0.00     0.172 HD
BRANCH  13  18
HETATM   18  O3  UNL     1      12.629  14.039   4.780  1.00  0.00    -0.276 OA
ATOM     19  H3  UNL     1      11.703  14.079   4.568  1.00  0.00     0.245 HD
ENDBRANCH  13  18
ENDBRANCH   3   4
ENDBRANCH   2   3
BRANCH   2  20
HETATM   20  N5  UNL     1      17.639  21.398   4.453  1.00  0.00    -0.354 N 
ATOM     21  H5  UNL     1      17.029  22.138   4.800  1.00  0.00     0.166 HD
BRANCH  20  22
HETATM   22  C9  UNL     1      18.979  21.620   4.738  1.00  0.00     0.160 A 
HETATM   23  C10 UNL     1      19.647  22.733   4.202  1.00  0.00     0.219 A 
HETATM   24  O6  UNL     1      20.915  22.976   4.439  1.00  0.00    -0.254 OA
HETATM   25  C11 UNL     1      21.657  22.209   5.186  1.00  0.00     0.226 A 
HETATM   26  N7  UNL     1      21.085  21.133   5.728  1.00  0.00    -0.287 N 
HETATM   27  C12 UNL     1      19.758  20.824   5.516  1.00  0.00     0.280 A 
ATOM     28  H7  UNL     1      21.647  20.519   6.317  1.00  0.00     0.172 HD
HETATM   29  O7  UNL     1      19.347  19.802   6.071  1.00  0.00    -0.265 OA
BRANCH  23  30
HETATM   30  O5  UNL     1      18.891  23.580   3.396  1.00  0.00    -0.339 OA
ATOM     31  H5  UNL     1      18.517  23.195   2.613  1.00  0.00     0.220 HD
ENDBRANCH  23  30
BRANCH  25  32
HETATM   32  N6  UNL     1      22.908  22.445   5.423  1.00  0.00    -0.365 N 
ATOM     33  H62 UNL     1      23.280  23.378   5.244  1.00  0.00     0.159 HD
ATOM     34  H61 UNL     1      23.552  21.740   5.781  1.00  0.00     0.159 HD
ENDBRANCH  25  32
ENDBRANCH  20  22
ENDBRANCH   2  20
TORSDOF 7
ENDMDL
MODEL 5
REMARK VINA RESULT: -8.677157291      2.191      2.548
REMARK  7 active torsions:
REMARK  status: ('A' for Active; 'I' for Inactive)
REMARK    1  A    between atoms: C2_2  and  C3_3 
REMARK    2  A    between atoms: C2_2  and  N5_20 
REMARK    3  A    between atoms: C3_3  and  N1_4 
REMARK    4  A    between atoms: N3_12  and  O3_13 
REMARK    5  A    between atoms: N5_20  and  C9_22 
REMARK    6  A    between atoms: C10_23  and  O5_24 
REMARK    7  A    between atoms: C11_27  and  N6_28 
ROOT
HETATM    1  C1  UNL     1      16.056  19.483   6.273  1.00  0.00     0.065 C 
HETATM    2  C2  UNL     1      15.617  19.250   7.679  1.00  0.00     0.003 C 
ENDROOT
BRANCH   2   3
HETATM    3  C3  UNL     1      14.336  18.485   7.841  1.00  0.00     0.203 C 
BRANCH   3   4
HETATM    4  N1  UNL     1      14.564  17.095   7.405  1.00  0.00    -0.267 N 
HETATM    5  N2  UNL     1      15.370  16.265   7.993  1.00  0.00    -0.261 N 
HETATM    6  C4  UNL     1      15.356  15.063   7.344  1.00  0.00     0.279 A 
ATOM      7  H2  UNL     1      15.931  16.479   8.818  1.00  0.00     0.190 HD
HETATM    8  O1  UNL     1      15.988  14.025   7.601  1.00  0.00    -0.266 OA
HETATM    9  C5  UNL     1      14.475  15.167   6.280  1.00  0.00     0.149 A 
HETATM   10  C6  UNL     1      14.034  14.326   5.280  1.00  0.00     0.295 A 
HETATM   11  C8  UNL     1      13.996  16.472   6.356  1.00  0.00     0.148 A 
HETATM   12  O2  UNL     1      14.472  13.154   5.218  1.00  0.00    -0.264 OA
HETATM   13  N3  UNL     1      13.138  14.768   4.374  1.00  0.00    -0.133 N 
HETATM   14  C7  UNL     1      12.704  16.036   4.490  1.00  0.00     0.355 A 
HETATM   15  O4  UNL     1      11.858  16.414   3.613  1.00  0.00    -0.244 OA
HETATM   16  N4  UNL     1      13.102  16.885   5.440  1.00  0.00    -0.290 N 
ATOM     17  H4  UNL     1      12.733  17.835   5.470  1.00  0.00     0.172 HD
BRANCH  13  18
HETATM   18  O3  UNL     1      12.676  13.940   3.353  1.00  0.00    -0.276 OA
ATOM     19  H3  UNL     1      12.285  13.095   3.543  1.00  0.00     0.245 HD
ENDBRANCH  13  18
ENDBRANCH   3   4
ENDBRANCH   2   3
BRANCH   2  20
HETATM   20  N5  UNL     1      15.817  20.349   8.550  1.00  0.00    -0.354 N 
ATOM     21  H5  UNL     1      15.108  21.075   8.446  1.00  0.00     0.166 HD
BRANCH  20  22
HETATM   22  C9  UNL     1      16.768  20.652   9.514  1.00  0.00     0.160 A 
HETATM   23  C10 UNL     1      16.436  20.624  10.878  1.00  0.00     0.219 A 
HETATM   24  O6  UNL     1      17.303  20.911  11.820  1.00  0.00    -0.254 OA
HETATM   25  C11 UNL     1      18.537  21.245  11.572  1.00  0.00     0.226 A 
HETATM   26  N7  UNL     1      18.921  21.291  10.296  1.00  0.00    -0.287 N 
HETATM   27  C12 UNL     1      18.057  21.001   9.261  1.00  0.00     0.280 A 
ATOM     28  H7  UNL     1      19.883  21.550  10.078  1.00  0.00     0.172 HD
HETATM   29  O7  UNL     1      18.530  21.080   8.125  1.00  0.00    -0.265 OA
BRANCH  23  30
HETATM   30  O5  UNL     1      15.126  20.272  11.189  1.00  0.00    -0.339 OA
ATOM     31  H5  UNL     1      14.971  19.357  11.393  1.00  0.00     0.220 HD
ENDBRANCH  23  30
BRANCH  25  32
HETATM   32  N6  UNL     1      19.396  21.529  12.500  1.00  0.00    -0.365 N 
ATOM     33  H62 UNL     1      19.298  21.094  13.417  1.00  0.00     0.159 HD
ATOM     34  H61 UNL     1      20.175  22.173  12.362  1.00  0.00     0.159 HD
ENDBRANCH  25  32
ENDBRANCH  20  22
ENDBRANCH   2  20
TORSDOF 7
ENDMDL
