MODEL 1
REMARK VINA RESULT: -8.914889480      0.000      0.000
REMARK  6 active torsions:
REMARK  status: ('A' for Active; 'I' for Inactive)
REMARK    1  A    between atoms: O1_2  and  N1_3 
REMARK    2  A    between atoms: C2_4  and  N2_5 
REMARK    3  A    between atoms: N5_14  and  N6_15 
REMARK    4  A    between atoms: N6_15  and  S1_17 
REMARK    5  A    between atoms: S1_17  and  C7_20 
REMARK    6  A    between atoms: C9_25  and  O4_26 
ROOT
HETATM    1  N2  UNL     1      14.427  19.240   9.282  1.00  0.00    -0.123 N 
ATOM      2  H2  UNL     1      13.673  18.579   9.093  1.00  0.00     0.197 HD
HETATM    3  C3  UNL     1      14.348  20.058  10.416  1.00  0.00     0.196 C 
HETATM    4  N3  UNL     1      14.265  20.726  11.362  1.00  0.00    -0.171 NA
ENDROOT
BRANCH   1   5
HETATM    5  C2  UNL     1      15.544  19.308   8.375  1.00  0.00     0.728 C 
HETATM    6  N1  UNL     1      16.065  18.236   7.598  1.00  0.00     0.018 N 
HETATM    7  N5  UNL     1      16.829  18.773   6.539  1.00  0.00    -0.058 NA
HETATM    8  C4  UNL     1      17.291  20.015   7.150  1.00  0.00     0.137 C 
HETATM    9  N4  UNL     1      16.250  20.360   8.126  1.00  0.00    -0.197 N 
HETATM   10  C5  UNL     1      17.381  21.144   6.172  1.00  0.00     0.060 C 
HETATM   11  C6  UNL     1      18.616  19.844   7.844  1.00  0.00     0.060 C 
ATOM     12  H4  UNL     1      16.107  21.282   8.539  1.00  0.00     0.180 HD
BRANCH   6  13
HETATM   13  O1  UNL     1      15.842  16.921   7.866  1.00  0.00    -0.252 OA
HETATM   14  C1  UNL     1      16.993  16.242   8.206  1.00  0.00     0.240 C 
ENDBRANCH   6  13
BRANCH   7  15
HETATM   15  N6  UNL     1      16.021  19.018   5.422  1.00  0.00    -0.217 N 
ATOM     16  H6  UNL     1      15.553  19.907   5.246  1.00  0.00     0.196 HD
BRANCH  15  17
HETATM   17  S1  UNL     1      15.906  17.659   4.381  1.00  0.00     0.307 S 
HETATM   18  O2  UNL     1      17.027  16.716   4.737  1.00  0.00    -0.196 OA
HETATM   19  O3  UNL     1      16.204  18.140   2.971  1.00  0.00    -0.196 OA
BRANCH  17  20
HETATM   20  C7  UNL     1      14.363  16.871   4.475  1.00  0.00     0.241 A 
HETATM   21  N7  UNL     1      14.154  15.772   3.835  1.00  0.00    -0.315 N 
HETATM   22  C8  UNL     1      12.911  15.075   3.872  1.00  0.00     0.171 A 
ATOM     23  H7  UNL     1      14.913  15.382   3.277  1.00  0.00     0.169 HD
HETATM   24  N8  UNL     1      12.720  13.866   3.151  1.00  0.00    -0.078 NA
HETATM   25  C9  UNL     1      11.861  15.507   4.572  1.00  0.00     0.197 A 
HETATM   26  N9  UNL     1      12.039  16.720   5.300  1.00  0.00    -0.275 N 
HETATM   27  N10 UNL     1      13.279  17.380   5.241  1.00  0.00    -0.272 N 
ATOM     28  H9  UNL     1      11.276  17.105   5.857  1.00  0.00     0.189 HD
ATOM     29  H10 UNL     1      13.405  18.247   5.762  1.00  0.00     0.189 HD
BRANCH  25  30
HETATM   30  O4  UNL     1      10.666  14.794   4.580  1.00  0.00    -0.343 OA
ATOM     31  H4  UNL     1       9.834  15.239   4.694  1.00  0.00     0.219 HD
ENDBRANCH  25  30
ENDBRANCH  17  20
ENDBRANCH  15  17
ENDBRANCH   7  15
ENDBRANCH   1   5
TORSDOF 6
ENDMDL
MODEL 2
REMARK VINA RESULT: -8.755656402      1.990      2.296
REMARK  6 active torsions:
REMARK  status: ('A' for Active; 'I' for Inactive)
REMARK    1  A    between atoms: O1_2  and  N1_3 
REMARK    2  A    between atoms: C2_4  and  N2_5 
REMARK    3  A    between atoms: N5_14  and  N6_15 
REMARK    4  A    between atoms: N6_15  and  S1_17 
REMARK    5  A    between atoms: S1_17  and  C7_20 
REMARK    6  A    between atoms: C9_25  and  O4_26 
ROOT
HETATM    1  N2  UNL     1      17.822  19.432  10.765  1.00  0.00    -0.123 N 
ATOM      2  H2  UNL     1      17.970  18.633  11.380  1.00  0.00     0.197 HD
HETATM    3  C3  UNL     1      17.778  20.719  11.316  1.00  0.00     0.196 C 
HETATM    4  N3  UNL     1      17.747  21.777  11.791  1.00  0.00    -0.171 NA
ENDROOT
BRANCH   1   5
HETATM    5  C2  UNL     1      17.664  19.208   9.350  1.00  0.00     0.728 C 
HETATM    6  N1  UNL     1      18.063  18.047   8.631  1.00  0.00     0.018 N 
HETATM    7  N5  UNL     1      17.359  18.007   7.408  1.00  0.00    -0.058 NA
HETATM    8  C4  UNL     1      17.159  19.433   7.172  1.00  0.00     0.137 C 
HETATM    9  N4  UNL     1      17.131  20.033   8.511  1.00  0.00    -0.197 N 
HETATM   10  C5  UNL     1      15.846  19.734   6.519  1.00  0.00     0.060 C 
HETATM   11  C6  UNL     1      18.275  20.033   6.359  1.00  0.00     0.060 C 
ATOM     12  H4  UNL     1      16.752  20.951   8.742  1.00  0.00     0.180 HD
BRANCH   6  13
HETATM   13  O1  UNL     1      18.978  17.148   9.082  1.00  0.00    -0.252 OA
HETATM   14  C1  UNL     1      18.400  16.077   9.732  1.00  0.00     0.240 C 
ENDBRANCH   6  13
BRANCH   7  15
HETATM   15  N6  UNL     1      16.141  17.334   7.561  1.00  0.00    -0.217 N 
ATOM     16  H6  UNL     1      15.391  17.654   8.174  1.00  0.00     0.196 HD
BRANCH  15  17
HETATM   17  S1  UNL     1      16.049  15.913   6.604  1.00  0.00     0.307 S 
HETATM   18  O2  UNL     1      16.178  14.731   7.531  1.00  0.00    -0.196 OA
HETATM   19  O3  UNL     1      17.284  15.881   5.719  1.00  0.00    -0.196 OA
BRANCH  17  20
HETATM   20  C7  UNL     1      14.589  15.827   5.669  1.00  0.00     0.241 A 
HETATM   21  N7  UNL     1      14.371  14.820   4.895  1.00  0.00    -0.315 N 
HETATM   22  C8  UNL     1      13.194  14.689   4.102  1.00  0.00     0.171 A 
ATOM     23  H7  UNL     1      15.074  14.083   4.847  1.00  0.00     0.169 HD
HETATM   24  N8  UNL     1      12.992  13.564   3.260  1.00  0.00    -0.078 NA
HETATM   25  C9  UNL     1      12.221  15.602   4.098  1.00  0.00     0.197 A 
HETATM   26  N9  UNL     1      12.411  16.737   4.939  1.00  0.00    -0.275 N 
HETATM   27  N10 UNL     1      13.585  16.832   5.707  1.00  0.00    -0.272 N 
ATOM     28  H9  UNL     1      11.705  17.472   4.983  1.00  0.00     0.189 HD
ATOM     29  H10 UNL     1      13.720  17.645   6.308  1.00  0.00     0.189 HD
BRANCH  25  30
HETATM   30  O4  UNL     1      11.087  15.433   3.309  1.00  0.00    -0.343 OA
ATOM     31  H4  UNL     1      10.284  15.902   3.503  1.00  0.00     0.219 HD
ENDBRANCH  25  30
ENDBRANCH  17  20
ENDBRANCH  15  17
ENDBRANCH   7  15
ENDBRANCH   1   5
TORSDOF 6
ENDMDL
MODEL 3
REMARK VINA RESULT: -8.650588826      1.083      1.338
REMARK  6 active torsions:
REMARK  status: ('A' for Active; 'I' for Inactive)
REMARK    1  A    between atoms: O1_2  and  N1_3 
REMARK    2  A    between atoms: C2_4  and  N2_5 
REMARK    3  A    between atoms: N5_14  and  N6_15 
REMARK    4  A    between atoms: N6_15  and  S1_17 
REMARK    5  A    between atoms: S1_17  and  C7_20 
REMARK    6  A    between atoms: C9_25  and  O4_26 
ROOT
HETATM    1  N2  UNL     1      14.465  18.439  10.144  1.00  0.00    -0.123 N 
ATOM      2  H2  UNL     1      13.753  17.726  10.305  1.00  0.00     0.197 HD
HETATM    3  C3  UNL     1      14.328  19.690  10.758  1.00  0.00     0.196 C 
HETATM    4  N3  UNL     1      14.198  20.720  11.277  1.00  0.00    -0.171 NA
ENDROOT
BRANCH   1   5
HETATM    5  C2  UNL     1      15.585  18.131   9.292  1.00  0.00     0.728 C 
HETATM    6  N1  UNL     1      15.608  17.168   8.245  1.00  0.00     0.018 N 
HETATM    7  N5  UNL     1      16.682  17.465   7.379  1.00  0.00    -0.058 NA
HETATM    8  C4  UNL     1      17.608  18.097   8.313  1.00  0.00     0.137 C 
HETATM    9  N4  UNL     1      16.750  18.687   9.347  1.00  0.00    -0.197 N 
HETATM   10  C5  UNL     1      18.390  19.211   7.691  1.00  0.00     0.060 C 
HETATM   11  C6  UNL     1      18.554  17.101   8.931  1.00  0.00     0.060 C 
ATOM     12  H4  UNL     1      17.027  19.417  10.003  1.00  0.00     0.180 HD
BRANCH   6  13
HETATM   13  O1  UNL     1      14.722  16.142   8.133  1.00  0.00    -0.252 OA
HETATM   14  C1  UNL     1      15.327  14.946   7.804  1.00  0.00     0.240 C 
ENDBRANCH   6  13
BRANCH   7  15
HETATM   15  N6  UNL     1      16.277  18.354   6.375  1.00  0.00    -0.217 N 
ATOM     16  H6  UNL     1      16.163  19.358   6.520  1.00  0.00     0.196 HD
BRANCH  15  17
HETATM   17  S1  UNL     1      15.991  17.570   4.876  1.00  0.00     0.307 S 
HETATM   18  O2  UNL     1      17.085  16.552   4.679  1.00  0.00    -0.196 OA
HETATM   19  O3  UNL     1      16.186  18.604   3.779  1.00  0.00    -0.196 OA
BRANCH  17  20
HETATM   20  C7  UNL     1      14.421  16.836   4.791  1.00  0.00     0.241 A 
HETATM   21  N7  UNL     1      14.232  15.788   4.067  1.00  0.00    -0.315 N 
HETATM   22  C8  UNL     1      12.969  15.137   3.956  1.00  0.00     0.171 A 
ATOM     23  H7  UNL     1      15.023  15.405   3.549  1.00  0.00     0.169 HD
HETATM   24  N8  UNL     1      12.800  13.983   3.145  1.00  0.00    -0.078 NA
HETATM   25  C9  UNL     1      11.878  15.563   4.594  1.00  0.00     0.197 A 
HETATM   26  N9  UNL     1      12.032  16.721   5.412  1.00  0.00    -0.275 N 
HETATM   27  N10 UNL     1      13.294  17.337   5.497  1.00  0.00    -0.272 N 
ATOM     28  H9  UNL     1      11.237  17.099   5.928  1.00  0.00     0.189 HD
ATOM     29  H10 UNL     1      13.402  18.165   6.083  1.00  0.00     0.189 HD
BRANCH  25  30
HETATM   30  O4  UNL     1      10.664  14.897   4.457  1.00  0.00    -0.343 OA
ATOM     31  H4  UNL     1      10.472  14.388   3.678  1.00  0.00     0.219 HD
ENDBRANCH  25  30
ENDBRANCH  17  20
ENDBRANCH  15  17
ENDBRANCH   7  15
ENDBRANCH   1   5
TORSDOF 6
ENDMDL
MODEL 4
REMARK VINA RESULT: -8.636030268      2.964      5.500
REMARK  6 active torsions:
REMARK  status: ('A' for Active; 'I' for Inactive)
REMARK    1  A    between atoms: O1_2  and  N1_3 
REMARK    2  A    between atoms: C2_4  and  N2_5 
REMARK    3  A    between atoms: N5_14  and  N6_15 
REMARK    4  A    between atoms: N6_15  and  S1_17 
REMARK    5  A    between atoms: S1_17  and  C7_20 
REMARK    6  A    between atoms: C9_25  and  O4_26 
ROOT
HETATM    1  N2  UNL     1      12.822  17.928   6.128  1.00  0.00    -0.123 N 
ATOM      2  H2  UNL     1      12.075  18.619   6.069  1.00  0.00     0.197 HD
HETATM    3  C3  UNL     1      12.698  16.726   5.421  1.00  0.00     0.196 C 
HETATM    4  N3  UNL     1      12.577  15.736   4.826  1.00  0.00    -0.171 NA
ENDROOT
BRANCH   1   5
HETATM    5  C2  UNL     1      13.980  18.215   6.938  1.00  0.00     0.728 C 
HETATM    6  N1  UNL     1      15.334  18.222   6.500  1.00  0.00     0.018 N 
HETATM    7  N5  UNL     1      16.104  18.963   7.423  1.00  0.00    -0.058 NA
HETATM    8  C4  UNL     1      15.344  18.731   8.647  1.00  0.00     0.137 C 
HETATM    9  N4  UNL     1      13.966  18.511   8.195  1.00  0.00    -0.197 N 
HETATM   10  C5  UNL     1      15.333  19.920   9.556  1.00  0.00     0.060 C 
HETATM   11  C6  UNL     1      15.841  17.526   9.400  1.00  0.00     0.060 C 
ATOM     12  H4  UNL     1      13.132  18.581   8.778  1.00  0.00     0.180 HD
BRANCH   6  13
HETATM   13  O1  UNL     1      15.774  17.603   5.372  1.00  0.00    -0.252 OA
HETATM   14  C1  UNL     1      16.631  16.556   5.636  1.00  0.00     0.240 C 
ENDBRANCH   6  13
BRANCH   7  15
HETATM   15  N6  UNL     1      16.120  20.320   7.076  1.00  0.00    -0.217 N 
ATOM     16  H6  UNL     1      15.324  20.945   7.200  1.00  0.00     0.196 HD
BRANCH  15  17
HETATM   17  S1  UNL     1      17.627  20.813   6.420  1.00  0.00     0.307 S 
HETATM   18  O2  UNL     1      18.633  19.734   6.727  1.00  0.00    -0.196 OA
HETATM   19  O3  UNL     1      18.082  22.036   7.199  1.00  0.00    -0.196 OA
BRANCH  17  20
HETATM   20  C7  UNL     1      17.544  21.135   4.717  1.00  0.00     0.241 A 
HETATM   21  N7  UNL     1      16.934  20.318   3.929  1.00  0.00    -0.315 N 
HETATM   22  C8  UNL     1      16.829  20.525   2.523  1.00  0.00     0.171 A 
ATOM     23  H7  UNL     1      16.506  19.484   4.331  1.00  0.00     0.169 HD
HETATM   24  N8  UNL     1      16.150  19.599   1.688  1.00  0.00    -0.078 NA
HETATM   25  C9  UNL     1      17.357  21.584   1.908  1.00  0.00     0.197 A 
HETATM   26  N9  UNL     1      18.043  22.522   2.733  1.00  0.00    -0.275 N 
HETATM   27  N10 UNL     1      18.126  22.285   4.117  1.00  0.00    -0.272 N 
ATOM     28  H9  UNL     1      18.469  23.355   2.326  1.00  0.00     0.189 HD
ATOM     29  H10 UNL     1      18.617  22.957   4.707  1.00  0.00     0.189 HD
BRANCH  25  30
HETATM   30  O4  UNL     1      17.230  21.747   0.531  1.00  0.00    -0.343 OA
ATOM     31  H4  UNL     1      16.922  22.568   0.164  1.00  0.00     0.219 HD
ENDBRANCH  25  30
ENDBRANCH  17  20
ENDBRANCH  15  17
ENDBRANCH   7  15
ENDBRANCH   1   5
TORSDOF 6
ENDMDL
MODEL 5
REMARK VINA RESULT: -8.551211325      1.879      3.270
REMARK  6 active torsions:
REMARK  status: ('A' for Active; 'I' for Inactive)
REMARK    1  A    between atoms: O1_2  and  N1_3 
REMARK    2  A    between atoms: C2_4  and  N2_5 
REMARK    3  A    between atoms: N5_14  and  N6_15 
REMARK    4  A    between atoms: N6_15  and  S1_17 
REMARK    5  A    between atoms: S1_17  and  C7_20 
REMARK    6  A    between atoms: C9_25  and  O4_26 
ROOT
HETATM    1  N2  UNL     1      17.266  21.841   8.124  1.00  0.00    -0.123 N 
ATOM      2  H2  UNL     1      16.701  22.690   8.090  1.00  0.00     0.197 HD
HETATM    3  C3  UNL     1      18.657  21.942   7.991  1.00  0.00     0.196 C 
HETATM    4  N3  UNL     1      19.808  22.045   7.882  1.00  0.00    -0.171 NA
ENDROOT
BRANCH   1   5
HETATM    5  C2  UNL     1      16.612  20.570   8.306  1.00  0.00     0.728 C 
HETATM    6  N1  UNL     1      16.001  19.783   7.290  1.00  0.00     0.018 N 
HETATM    7  N5  UNL     1      15.880  18.456   7.756  1.00  0.00    -0.058 NA
HETATM    8  C4  UNL     1      15.756  18.690   9.191  1.00  0.00     0.137 C 
HETATM    9  N4  UNL     1      16.479  19.945   9.428  1.00  0.00    -0.197 N 
HETATM   10  C5  UNL     1      16.420  17.629  10.011  1.00  0.00     0.060 C 
HETATM   11  C6  UNL     1      14.319  18.831   9.618  1.00  0.00     0.060 C 
ATOM     12  H4  UNL     1      16.821  20.271  10.332  1.00  0.00     0.180 HD
BRANCH   6  13
HETATM   13  O1  UNL     1      15.609  20.269   6.082  1.00  0.00    -0.252 OA
HETATM   14  C1  UNL     1      16.646  20.343   5.174  1.00  0.00     0.240 C 
ENDBRANCH   6  13
BRANCH   7  15
HETATM   15  N6  UNL     1      17.032  17.720   7.452  1.00  0.00    -0.217 N 
ATOM     16  H6  UNL     1      17.977  18.024   7.687  1.00  0.00     0.196 HD
BRANCH  15  17
HETATM   17  S1  UNL     1      16.678  16.249   6.642  1.00  0.00     0.307 S 
HETATM   18  O2  UNL     1      16.705  15.145   7.668  1.00  0.00    -0.196 OA
HETATM   19  O3  UNL     1      17.834  15.963   5.697  1.00  0.00    -0.196 OA
BRANCH  17  20
HETATM   20  C7  UNL     1      15.161  16.295   5.800  1.00  0.00     0.241 A 
HETATM   21  N7  UNL     1      14.521  15.204   5.554  1.00  0.00    -0.315 N 
HETATM   22  C8  UNL     1      13.271  15.173   4.869  1.00  0.00     0.171 A 
ATOM     23  H7  UNL     1      14.928  14.321   5.863  1.00  0.00     0.169 HD
HETATM   24  N8  UNL     1      12.598  13.950   4.615  1.00  0.00    -0.078 NA
HETATM   25  C9  UNL     1      12.663  16.275   4.427  1.00  0.00     0.197 A 
HETATM   26  N9  UNL     1      13.328  17.511   4.674  1.00  0.00    -0.275 N 
HETATM   27  N10 UNL     1      14.560  17.503   5.353  1.00  0.00    -0.272 N 
ATOM     28  H9  UNL     1      12.917  18.391   4.363  1.00  0.00     0.189 HD
ATOM     29  H10 UNL     1      15.035  18.388   5.530  1.00  0.00     0.189 HD
BRANCH  25  30
HETATM   30  O4  UNL     1      11.442  16.199   3.763  1.00  0.00    -0.343 OA
ATOM     31  H4  UNL     1      11.385  16.362   2.829  1.00  0.00     0.219 HD
ENDBRANCH  25  30
ENDBRANCH  17  20
ENDBRANCH  15  17
ENDBRANCH   7  15
ENDBRANCH   1   5
TORSDOF 6
ENDMDL
