MODEL 1
REMARK VINA RESULT: -8.786980384      0.000      0.000
REMARK  8 active torsions:
REMARK  status: ('A' for Active; 'I' for Inactive)
REMARK    1  A    between atoms: N1_1  and  N2_4 
REMARK    2  A    between atoms: N2_4  and  N3_6 
REMARK    3  A    between atoms: C2_14  and  N7_15 
REMARK    4  A    between atoms: N7_15  and  N8_17 
REMARK       I    between atoms: N8_17  and  C3_19 
REMARK       I    between atoms: C3_19  and  N9_21 
REMARK    5  A    between atoms: N9_21  and  N10_23 
REMARK    6  A    between atoms: N10_23  and  C4_25 
REMARK    7  A    between atoms: C6_27  and  O2_28 
REMARK    8  A    between atoms: C8_31  and  S1_32 
ROOT
HETATM    1  N8  UNL     1      16.688  16.934   9.389  1.00  0.00    -0.249 N 
ATOM      2  H8  UNL     1      16.652  15.981   9.749  1.00  0.00     0.192 HD
HETATM    3  C3  UNL     1      16.932  17.092   8.010  1.00  0.00     0.353 C 
HETATM    4  O1  UNL     1      16.953  18.302   7.577  1.00  0.00    -0.244 OA
HETATM    5  N9  UNL     1      17.154  16.045   7.092  1.00  0.00    -0.250 N 
ATOM      6  H9  UNL     1      17.144  15.077   7.414  1.00  0.00     0.192 HD
ENDROOT
BRANCH   1   7
HETATM    7  N7  UNL     1      16.492  17.949  10.287  1.00  0.00    -0.278 N 
ATOM      8  H7  UNL     1      17.289  18.123  10.899  1.00  0.00     0.189 HD
BRANCH   7   9
HETATM    9  C2  UNL     1      15.503  18.711  10.496  1.00  0.00     0.179 A 
HETATM   10  N3  UNL     1      15.651  20.038  10.196  1.00  0.00    -0.147 N 
HETATM   11  N4  UNL     1      14.628  20.823  10.443  1.00  0.00    -0.204 N 
HETATM   12  N5  UNL     1      13.473  20.452  10.954  1.00  0.00    -0.227 N 
ATOM     13  H4  UNL     1      14.738  21.812  10.219  1.00  0.00     0.212 HD
HETATM   14  N6  UNL     1      13.323  19.167  11.248  1.00  0.00    -0.293 N 
ATOM     15  H5  UNL     1      12.724  21.126  11.118  1.00  0.00     0.210 HD
HETATM   16  C1  UNL     1      14.315  18.277  11.030  1.00  0.00     0.162 A 
ATOM     17  H6  UNL     1      12.441  18.845  11.645  1.00  0.00     0.187 HD
BRANCH  10  18
HETATM   18  N2  UNL     1      16.841  20.478   9.628  1.00  0.00    -0.225 N 
ATOM     19  H2  UNL     1      17.734  20.187  10.024  1.00  0.00     0.210 HD
BRANCH  18  20
HETATM   20  N1  UNL     1      16.809  21.317   8.516  1.00  0.00    -0.329 N 
ATOM     21  H12 UNL     1      16.363  22.231   8.597  1.00  0.00     0.178 HD
ATOM     22  H11 UNL     1      17.230  21.011   7.639  1.00  0.00     0.178 HD
ENDBRANCH  18  20
ENDBRANCH  10  18
ENDBRANCH   7   9
ENDBRANCH   1   7
BRANCH   5  23
HETATM   23  N10 UNL     1      17.386  16.323   5.764  1.00  0.00    -0.297 N 
ATOM     24  H10 UNL     1      18.333  16.290   5.385  1.00  0.00     0.187 HD
BRANCH  23  25
HETATM   25  C4  UNL     1      16.276  16.659   4.922  1.00  0.00     0.052 A 
HETATM   26  C5  UNL     1      16.387  17.669   4.005  1.00  0.00     0.067 A 
HETATM   27  C6  UNL     1      15.290  17.946   3.175  1.00  0.00     0.069 A 
HETATM   28  C7  UNL     1      14.126  17.208   3.287  1.00  0.00     0.062 A 
HETATM   29  C8  UNL     1      14.034  16.208   4.201  1.00  0.00     0.085 A 
HETATM   30  C9  UNL     1      15.108  15.942   5.011  1.00  0.00     0.057 A 
BRANCH  27  31
HETATM   31  O2  UNL     1      15.385  18.970   2.241  1.00  0.00    -0.361 OA
ATOM     32  H2  UNL     1      15.134  18.802   1.340  1.00  0.00     0.217 HD
ENDBRANCH  27  31
BRANCH  29  33
HETATM   33  S1  UNL     1      12.557  15.252   4.336  1.00  0.00     0.137 S 
HETATM   34  O3  UNL     1      12.858  13.972   5.078  1.00  0.00    -0.591 OA
HETATM   35  O4  UNL     1      12.053  14.864   2.987  1.00  0.00    -0.591 OA
HETATM   36  O5  UNL     1      11.372  16.067   5.199  1.00  0.00    -0.591 OA
ENDBRANCH  29  33
ENDBRANCH  23  25
ENDBRANCH   5  23
TORSDOF 8
ENDMDL
MODEL 2
REMARK VINA RESULT: -8.701147435      2.742      3.895
REMARK  8 active torsions:
REMARK  status: ('A' for Active; 'I' for Inactive)
REMARK    1  A    between atoms: N1_1  and  N2_4 
REMARK    2  A    between atoms: N2_4  and  N3_6 
REMARK    3  A    between atoms: C2_14  and  N7_15 
REMARK    4  A    between atoms: N7_15  and  N8_17 
REMARK       I    between atoms: N8_17  and  C3_19 
REMARK       I    between atoms: C3_19  and  N9_21 
REMARK    5  A    between atoms: N9_21  and  N10_23 
REMARK    6  A    between atoms: N10_23  and  C4_25 
REMARK    7  A    between atoms: C6_27  and  O2_28 
REMARK    8  A    between atoms: C8_31  and  S1_32 
ROOT
HETATM    1  N8  UNL     1      16.745  21.446   8.779  1.00  0.00    -0.249 N 
ATOM      2  H8  UNL     1      16.307  22.351   8.950  1.00  0.00     0.192 HD
HETATM    3  C3  UNL     1      17.493  21.308   7.593  1.00  0.00     0.353 C 
HETATM    4  O1  UNL     1      18.049  20.163   7.409  1.00  0.00    -0.244 OA
HETATM    5  N9  UNL     1      17.670  22.307   6.614  1.00  0.00    -0.250 N 
ATOM      6  H9  UNL     1      17.236  23.221   6.739  1.00  0.00     0.192 HD
ENDROOT
BRANCH   1   7
HETATM    7  N7  UNL     1      16.553  20.472   9.721  1.00  0.00    -0.278 N 
ATOM      8  H7  UNL     1      17.392  20.232  10.249  1.00  0.00     0.189 HD
BRANCH   7   9
HETATM    9  C2  UNL     1      15.524  19.814  10.056  1.00  0.00     0.179 A 
HETATM   10  N3  UNL     1      15.349  18.580   9.491  1.00  0.00    -0.147 N 
HETATM   11  N4  UNL     1      14.265  17.919   9.824  1.00  0.00    -0.204 N 
HETATM   12  N5  UNL     1      13.329  18.334  10.653  1.00  0.00    -0.227 N 
ATOM     13  H4  UNL     1      14.135  16.999   9.403  1.00  0.00     0.212 HD
HETATM   14  N6  UNL     1      13.492  19.529  11.204  1.00  0.00    -0.293 N 
ATOM     15  H5  UNL     1      12.513  17.759  10.861  1.00  0.00     0.210 HD
HETATM   16  C1  UNL     1      14.575  20.288  10.927  1.00  0.00     0.162 A 
ATOM     17  H6  UNL     1      12.787  19.882  11.851  1.00  0.00     0.187 HD
BRANCH  10  18
HETATM   18  N2  UNL     1      16.322  18.083   8.631  1.00  0.00    -0.225 N 
ATOM     19  H2  UNL     1      17.247  17.845   8.987  1.00  0.00     0.210 HD
BRANCH  18  20
HETATM   20  N1  UNL     1      16.028  17.911   7.280  1.00  0.00    -0.329 N 
ATOM     21  H12 UNL     1      15.489  18.628   6.793  1.00  0.00     0.178 HD
ATOM     22  H11 UNL     1      16.354  17.076   6.793  1.00  0.00     0.178 HD
ENDBRANCH  18  20
ENDBRANCH  10  18
ENDBRANCH   7   9
ENDBRANCH   1   7
BRANCH   5  23
HETATM   23  N10 UNL     1      18.424  22.053   5.491  1.00  0.00    -0.297 N 
ATOM     24  H10 UNL     1      19.417  22.289   5.469  1.00  0.00     0.187 HD
BRANCH  23  25
HETATM   25  C4  UNL     1      17.794  21.453   4.352  1.00  0.00     0.052 A 
HETATM   26  C5  UNL     1      17.916  22.025   3.115  1.00  0.00     0.067 A 
HETATM   27  C6  UNL     1      17.312  21.390   2.019  1.00  0.00     0.069 A 
HETATM   28  C7  UNL     1      16.612  20.211   2.194  1.00  0.00     0.062 A 
HETATM   29  C8  UNL     1      16.502  19.656   3.429  1.00  0.00     0.085 A 
HETATM   30  C9  UNL     1      17.092  20.281   4.498  1.00  0.00     0.057 A 
BRANCH  27  31
HETATM   31  O2  UNL     1      17.425  21.958   0.756  1.00  0.00    -0.361 OA
ATOM     32  H2  UNL     1      17.430  21.395  -0.009  1.00  0.00     0.217 HD
ENDBRANCH  27  31
BRANCH  29  33
HETATM   33  S1  UNL     1      15.625  18.142   3.655  1.00  0.00     0.137 S 
HETATM   34  O3  UNL     1      16.560  17.104   4.227  1.00  0.00    -0.591 OA
HETATM   35  O4  UNL     1      15.136  17.614   2.349  1.00  0.00    -0.591 OA
HETATM   36  O5  UNL     1      14.354  18.321   4.735  1.00  0.00    -0.591 OA
ENDBRANCH  29  33
ENDBRANCH  23  25
ENDBRANCH   5  23
TORSDOF 8
ENDMDL
MODEL 3
REMARK VINA RESULT: -8.698463433      2.369      3.209
REMARK  8 active torsions:
REMARK  status: ('A' for Active; 'I' for Inactive)
REMARK    1  A    between atoms: N1_1  and  N2_4 
REMARK    2  A    between atoms: N2_4  and  N3_6 
REMARK    3  A    between atoms: C2_14  and  N7_15 
REMARK    4  A    between atoms: N7_15  and  N8_17 
REMARK       I    between atoms: N8_17  and  C3_19 
REMARK       I    between atoms: C3_19  and  N9_21 
REMARK    5  A    between atoms: N9_21  and  N10_23 
REMARK    6  A    between atoms: N10_23  and  C4_25 
REMARK    7  A    between atoms: C6_27  and  O2_28 
REMARK    8  A    between atoms: C8_31  and  S1_32 
ROOT
HETATM    1  N8  UNL     1      17.247  19.066   9.303  1.00  0.00    -0.249 N 
ATOM      2  H8  UNL     1      17.112  18.276   9.934  1.00  0.00     0.192 HD
HETATM    3  C3  UNL     1      16.231  19.314   8.358  1.00  0.00     0.353 C 
HETATM    4  O1  UNL     1      16.415  20.326   7.587  1.00  0.00    -0.244 OA
HETATM    5  N9  UNL     1      15.057  18.550   8.198  1.00  0.00    -0.250 N 
ATOM      6  H9  UNL     1      14.891  17.743   8.797  1.00  0.00     0.192 HD
ENDROOT
BRANCH   1   7
HETATM    7  N7  UNL     1      18.398  19.792   9.447  1.00  0.00    -0.278 N 
ATOM      8  H7  UNL     1      19.227  19.341   9.061  1.00  0.00     0.189 HD
BRANCH   7   9
HETATM    9  C2  UNL     1      18.622  20.921   9.974  1.00  0.00     0.179 A 
HETATM   10  N3  UNL     1      19.110  21.912   9.166  1.00  0.00    -0.147 N 
HETATM   11  N4  UNL     1      19.365  23.070   9.729  1.00  0.00    -0.204 N 
HETATM   12  N5  UNL     1      19.194  23.368  11.000  1.00  0.00    -0.227 N 
ATOM     13  H4  UNL     1      19.728  23.808   9.126  1.00  0.00     0.212 HD
HETATM   14  N6  UNL     1      18.721  22.412  11.790  1.00  0.00    -0.293 N 
ATOM     15  H5  UNL     1      19.417  24.295  11.363  1.00  0.00     0.210 HD
HETATM   16  C1  UNL     1      18.426  21.185  11.307  1.00  0.00     0.162 A 
ATOM     17  H6  UNL     1      18.576  22.608  12.780  1.00  0.00     0.187 HD
BRANCH  10  18
HETATM   18  N2  UNL     1      19.283  21.659   7.810  1.00  0.00    -0.225 N 
ATOM     19  H2  UNL     1      20.017  21.024   7.498  1.00  0.00     0.210 HD
BRANCH  18  20
HETATM   20  N1  UNL     1      18.450  22.275   6.879  1.00  0.00    -0.329 N 
ATOM     21  H12 UNL     1      17.640  21.767   6.524  1.00  0.00     0.178 HD
ATOM     22  H11 UNL     1      18.656  23.223   6.564  1.00  0.00     0.178 HD
ENDBRANCH  18  20
ENDBRANCH  10  18
ENDBRANCH   7   9
ENDBRANCH   1   7
BRANCH   5  23
HETATM   23  N10 UNL     1      14.133  18.890   7.235  1.00  0.00    -0.297 N 
ATOM     24  H10 UNL     1      13.444  19.620   7.413  1.00  0.00     0.187 HD
BRANCH  23  25
HETATM   25  C4  UNL     1      14.156  18.201   5.978  1.00  0.00     0.052 A 
HETATM   26  C5  UNL     1      15.053  18.563   5.009  1.00  0.00     0.067 A 
HETATM   27  C6  UNL     1      15.068  17.843   3.805  1.00  0.00     0.069 A 
HETATM   28  C7  UNL     1      14.192  16.792   3.610  1.00  0.00     0.062 A 
HETATM   29  C8  UNL     1      13.309  16.445   4.582  1.00  0.00     0.085 A 
HETATM   30  C9  UNL     1      13.297  17.152   5.757  1.00  0.00     0.057 A 
BRANCH  27  31
HETATM   31  O2  UNL     1      15.970  18.198   2.811  1.00  0.00    -0.361 OA
ATOM     32  H2  UNL     1      15.836  19.004   2.326  1.00  0.00     0.217 HD
ENDBRANCH  27  31
BRANCH  29  33
HETATM   33  S1  UNL     1      12.200  15.093   4.345  1.00  0.00     0.137 S 
HETATM   34  O3  UNL     1      12.757  13.866   5.027  1.00  0.00    -0.591 OA
HETATM   35  O4  UNL     1      12.071  14.763   2.896  1.00  0.00    -0.591 OA
HETATM   36  O5  UNL     1      10.696  15.403   5.018  1.00  0.00    -0.591 OA
ENDBRANCH  29  33
ENDBRANCH  23  25
ENDBRANCH   5  23
TORSDOF 8
ENDMDL
MODEL 4
REMARK VINA RESULT: -8.588765063      2.629      3.250
REMARK  8 active torsions:
REMARK  status: ('A' for Active; 'I' for Inactive)
REMARK    1  A    between atoms: N1_1  and  N2_4 
REMARK    2  A    between atoms: N2_4  and  N3_6 
REMARK    3  A    between atoms: C2_14  and  N7_15 
REMARK    4  A    between atoms: N7_15  and  N8_17 
REMARK       I    between atoms: N8_17  and  C3_19 
REMARK       I    between atoms: C3_19  and  N9_21 
REMARK    5  A    between atoms: N9_21  and  N10_23 
REMARK    6  A    between atoms: N10_23  and  C4_25 
REMARK    7  A    between atoms: C6_27  and  O2_28 
REMARK    8  A    between atoms: C8_31  and  S1_32 
ROOT
HETATM    1  N8  UNL     1      16.855  18.774   9.992  1.00  0.00    -0.249 N 
ATOM      2  H8  UNL     1      16.873  17.831  10.379  1.00  0.00     0.192 HD
HETATM    3  C3  UNL     1      15.826  19.075   9.077  1.00  0.00     0.353 C 
HETATM    4  O1  UNL     1      15.814  20.276   8.619  1.00  0.00    -0.244 OA
HETATM    5  N9  UNL     1      14.835  18.176   8.634  1.00  0.00    -0.250 N 
ATOM      6  H9  UNL     1      14.826  17.218   8.983  1.00  0.00     0.192 HD
ENDROOT
BRANCH   1   7
HETATM    7  N7  UNL     1      17.832  19.638  10.409  1.00  0.00    -0.278 N 
ATOM      8  H7  UNL     1      18.216  20.222   9.666  1.00  0.00     0.189 HD
BRANCH   7   9
HETATM    9  C2  UNL     1      18.345  19.844  11.547  1.00  0.00     0.179 A 
HETATM   10  N3  UNL     1      18.900  21.074  11.780  1.00  0.00    -0.147 N 
HETATM   11  N4  UNL     1      19.454  21.266  12.954  1.00  0.00    -0.204 N 
HETATM   12  N5  UNL     1      19.528  20.385  13.929  1.00  0.00    -0.227 N 
ATOM     13  H4  UNL     1      19.866  22.183  13.127  1.00  0.00     0.212 HD
HETATM   14  N6  UNL     1      18.993  19.190  13.711  1.00  0.00    -0.293 N 
ATOM     15  H5  UNL     1      19.978  20.612  14.816  1.00  0.00     0.210 HD
HETATM   16  C1  UNL     1      18.397  18.893  12.536  1.00  0.00     0.162 A 
ATOM     17  H6  UNL     1      19.032  18.484  14.445  1.00  0.00     0.187 HD
BRANCH  10  18
HETATM   18  N2  UNL     1      18.825  22.050  10.793  1.00  0.00    -0.225 N 
ATOM     19  H2  UNL     1      18.423  21.826   9.882  1.00  0.00     0.210 HD
BRANCH  18  20
HETATM   20  N1  UNL     1      19.300  23.334  11.051  1.00  0.00    -0.329 N 
ATOM     21  H12 UNL     1      20.099  23.451  11.674  1.00  0.00     0.178 HD
ATOM     22  H11 UNL     1      18.847  24.138  10.618  1.00  0.00     0.178 HD
ENDBRANCH  18  20
ENDBRANCH  10  18
ENDBRANCH   7   9
ENDBRANCH   1   7
BRANCH   5  23
HETATM   23  N10 UNL     1      13.878  18.585   7.732  1.00  0.00    -0.297 N 
ATOM     24  H10 UNL     1      13.156  19.250   8.009  1.00  0.00     0.187 HD
BRANCH  23  25
HETATM   25  C4  UNL     1      13.915  18.064   6.398  1.00  0.00     0.052 A 
HETATM   26  C5  UNL     1      14.787  18.580   5.478  1.00  0.00     0.067 A 
HETATM   27  C6  UNL     1      14.816  18.021   4.192  1.00  0.00     0.069 A 
HETATM   28  C7  UNL     1      13.979  16.968   3.870  1.00  0.00     0.062 A 
HETATM   29  C8  UNL     1      13.121  16.467   4.795  1.00  0.00     0.085 A 
HETATM   30  C9  UNL     1      13.094  17.018   6.050  1.00  0.00     0.057 A 
BRANCH  27  31
HETATM   31  O2  UNL     1      15.694  18.534   3.246  1.00  0.00    -0.361 OA
ATOM     32  H2  UNL     1      16.188  17.937   2.697  1.00  0.00     0.217 HD
ENDBRANCH  27  31
BRANCH  29  33
HETATM   33  S1  UNL     1      12.063  15.113   4.393  1.00  0.00     0.137 S 
HETATM   34  O3  UNL     1      12.665  13.835   4.926  1.00  0.00    -0.591 OA
HETATM   35  O4  UNL     1      11.946  14.953   2.915  1.00  0.00    -0.591 OA
HETATM   36  O5  UNL     1      10.548  15.284   5.092  1.00  0.00    -0.591 OA
ENDBRANCH  29  33
ENDBRANCH  23  25
ENDBRANCH   5  23
TORSDOF 8
ENDMDL
MODEL 5
REMARK VINA RESULT: -8.571568295      4.255      5.890
REMARK  8 active torsions:
REMARK  status: ('A' for Active; 'I' for Inactive)
REMARK    1  A    between atoms: N1_1  and  N2_4 
REMARK    2  A    between atoms: N2_4  and  N3_6 
REMARK    3  A    between atoms: C2_14  and  N7_15 
REMARK    4  A    between atoms: N7_15  and  N8_17 
REMARK       I    between atoms: N8_17  and  C3_19 
REMARK       I    between atoms: C3_19  and  N9_21 
REMARK    5  A    between atoms: N9_21  and  N10_23 
REMARK    6  A    between atoms: N10_23  and  C4_25 
REMARK    7  A    between atoms: C6_27  and  O2_28 
REMARK    8  A    between atoms: C8_31  and  S1_32 
ROOT
HETATM    1  N8  UNL     1      18.691  21.208   6.443  1.00  0.00    -0.249 N 
ATOM      2  H8  UNL     1      18.946  21.017   7.411  1.00  0.00     0.192 HD
HETATM    3  C3  UNL     1      18.113  20.153   5.710  1.00  0.00     0.353 C 
HETATM    4  O1  UNL     1      17.783  20.424   4.497  1.00  0.00    -0.244 OA
HETATM    5  N9  UNL     1      17.880  18.850   6.195  1.00  0.00    -0.250 N 
ATOM      6  H9  UNL     1      18.136  18.611   7.153  1.00  0.00     0.192 HD
ENDROOT
BRANCH   1   7
HETATM    7  N7  UNL     1      18.938  22.468   5.969  1.00  0.00    -0.278 N 
ATOM      8  H7  UNL     1      18.144  23.104   6.039  1.00  0.00     0.189 HD
BRANCH   7   9
HETATM    9  C2  UNL     1      19.974  22.989   5.459  1.00  0.00     0.179 A 
HETATM   10  N3  UNL     1      19.911  23.367   4.145  1.00  0.00    -0.147 N 
HETATM   11  N4  UNL     1      21.000  23.880   3.619  1.00  0.00    -0.204 N 
HETATM   12  N5  UNL     1      22.147  24.063   4.239  1.00  0.00    -0.227 N 
ATOM     13  H4  UNL     1      20.952  24.162   2.641  1.00  0.00     0.212 HD
HETATM   14  N6  UNL     1      22.215  23.698   5.513  1.00  0.00    -0.293 N 
ATOM     15  H5  UNL     1      22.950  24.469   3.759  1.00  0.00     0.210 HD
HETATM   16  C1  UNL     1      21.149  23.162   6.147  1.00  0.00     0.162 A 
ATOM     17  H6  UNL     1      23.088  23.826   6.023  1.00  0.00     0.187 HD
BRANCH  10  18
HETATM   18  N2  UNL     1      18.715  23.221   3.453  1.00  0.00    -0.225 N 
ATOM     19  H2  UNL     1      17.904  23.784   3.707  1.00  0.00     0.210 HD
BRANCH  18  20
HETATM   20  N1  UNL     1      18.627  22.302   2.409  1.00  0.00    -0.329 N 
ATOM     21  H12 UNL     1      18.164  22.577   1.543  1.00  0.00     0.178 HD
ATOM     22  H11 UNL     1      19.025  21.370   2.520  1.00  0.00     0.178 HD
ENDBRANCH  18  20
ENDBRANCH  10  18
ENDBRANCH   7   9
ENDBRANCH   1   7
BRANCH   5  23
HETATM   23  N10 UNL     1      17.309  17.897   5.381  1.00  0.00    -0.297 N 
ATOM     24  H10 UNL     1      17.860  17.438   4.656  1.00  0.00     0.187 HD
BRANCH  23  25
HETATM   25  C4  UNL     1      15.929  17.560   5.570  1.00  0.00     0.052 A 
HETATM   26  C5  UNL     1      15.033  18.516   5.967  1.00  0.00     0.067 A 
HETATM   27  C6  UNL     1      13.685  18.156   6.108  1.00  0.00     0.069 A 
HETATM   28  C7  UNL     1      13.277  16.861   5.848  1.00  0.00     0.062 A 
HETATM   29  C8  UNL     1      14.179  15.925   5.453  1.00  0.00     0.085 A 
HETATM   30  C9  UNL     1      15.496  16.281   5.318  1.00  0.00     0.057 A 
BRANCH  27  31
HETATM   31  O2  UNL     1      12.763  19.114   6.513  1.00  0.00    -0.361 OA
ATOM     32  H2  UNL     1      13.073  19.953   6.832  1.00  0.00     0.217 HD
ENDBRANCH  27  31
BRANCH  29  33
HETATM   33  S1  UNL     1      13.661  14.275   5.103  1.00  0.00     0.137 S 
HETATM   34  O3  UNL     1      13.890  13.411   6.320  1.00  0.00    -0.591 OA
HETATM   35  O4  UNL     1      14.471  13.690   3.996  1.00  0.00    -0.591 OA
HETATM   36  O5  UNL     1      12.025  14.206   4.740  1.00  0.00    -0.591 OA
ENDBRANCH  29  33
ENDBRANCH  23  25
ENDBRANCH   5  23
TORSDOF 8
ENDMDL
