MODEL 1
REMARK VINA RESULT: -7.974936456      0.000      0.000
REMARK  8 active torsions:
REMARK  status: ('A' for Active; 'I' for Inactive)
REMARK    1  A    between atoms: O1_2  and  C2_3 
REMARK    2  A    between atoms: C5_11  and  O4_12 
REMARK    3  A    between atoms: O4_12  and  C6_13 
REMARK    4  A    between atoms: C8_15  and  O5_16 
REMARK    5  A    between atoms: C9_18  and  O6_19 
REMARK    6  A    between atoms: C9_18  and  O7_21 
REMARK    7  A    between atoms: C10_23  and  O8_24 
REMARK    8  A    between atoms: C12_28  and  N2_29 
ROOT
HETATM    1  C2  UNL     1      16.796  18.652   9.667  1.00  0.00     0.243 C 
HETATM    2  O2  UNL     1      16.644  18.697  11.039  1.00  0.00    -0.196 OA
HETATM    3  O3  UNL     1      15.945  17.559  11.059  1.00  0.00    -0.224 OA
HETATM    4  C3  UNL     1      15.802  17.550   9.666  1.00  0.00     0.259 C 
HETATM    5  C4  UNL     1      14.459  18.120   9.293  1.00  0.00     0.252 C 
HETATM    6  N1  UNL     1      14.033  17.749   7.972  1.00  0.00    -0.030 N 
ATOM      7  H11 UNL     1      13.258  18.334   7.663  1.00  0.00     0.281 HD
ATOM      8  H12 UNL     1      13.565  16.842   7.982  1.00  0.00     0.281 HD
HETATM    9  C5  UNL     1      15.110  17.763   7.003  1.00  0.00     0.387 C 
HETATM   10  S1  UNL     1      16.039  19.293   7.142  1.00  0.00    -0.097 SA
HETATM   11  C11 UNL     1      16.101  19.748   8.899  1.00  0.00     0.146 C 
HETATM   12  C12 UNL     1      14.670  19.616   9.430  1.00  0.00     0.151 C 
ENDROOT
BRANCH   9  13
HETATM   13  O4  UNL     1      14.509  17.620   5.737  1.00  0.00    -0.343 OA
BRANCH  13  14
HETATM   14  C6  UNL     1      13.899  16.393   5.708  1.00  0.00     0.161 C 
HETATM   15  C7  UNL     1      14.813  15.277   5.239  1.00  0.00     0.072 C 
HETATM   16  C8  UNL     1      13.777  14.160   5.055  1.00  0.00     0.185 C 
HETATM   17  C9  UNL     1      12.759  14.882   4.196  1.00  0.00     0.215 C 
HETATM   18  C10 UNL     1      12.772  16.304   4.706  1.00  0.00     0.212 C 
BRANCH  16  19
HETATM   19  O5  UNL     1      14.332  13.067   4.437  1.00  0.00    -0.390 OA
ATOM     20  H5  UNL     1      13.758  12.312   4.496  1.00  0.00     0.210 HD
ENDBRANCH  16  19
BRANCH  17  21
HETATM   21  O6  UNL     1      13.251  14.845   2.880  1.00  0.00    -0.361 OA
ATOM     22  H6  UNL     1      12.493  14.787   2.310  1.00  0.00     0.213 HD
ENDBRANCH  17  21
BRANCH  17  23
HETATM   23  O7  UNL     1      11.500  14.300   4.290  1.00  0.00    -0.361 OA
ATOM     24  H7  UNL     1      11.029  14.344   3.466  1.00  0.00     0.213 HD
ENDBRANCH  17  23
BRANCH  18  25
HETATM   25  O8  UNL     1      12.864  17.234   3.700  1.00  0.00    -0.387 OA
ATOM     26  H8  UNL     1      12.062  17.327   3.200  1.00  0.00     0.210 HD
ENDBRANCH  18  25
ENDBRANCH  13  14
ENDBRANCH   9  13
BRANCH  12  27
HETATM   27  N2  UNL     1      14.582  20.069  10.769  1.00  0.00    -0.335 N 
HETATM   28  N3  UNL     1      13.661  19.767  11.514  1.00  0.00    -0.349 N 
ATOM     29  H32 UNL     1      12.931  19.160  11.139  1.00  0.00     0.176 HD
ATOM     30  H31 UNL     1      13.598  20.092  12.479  1.00  0.00     0.176 HD
ATOM     31  H2  UNL     1      15.320  20.676  11.128  1.00  0.00     0.180 HD
ENDBRANCH  12  27
BRANCH   1  32
HETATM   32  O1  UNL     1      18.048  18.422   9.172  1.00  0.00    -0.355 OA
HETATM   33  C1  UNL     1      19.039  19.238   9.655  1.00  0.00     0.205 C 
ENDBRANCH   1  32
TORSDOF 8
ENDMDL
MODEL 2
REMARK VINA RESULT: -7.833583383      2.238      3.302
REMARK  8 active torsions:
REMARK  status: ('A' for Active; 'I' for Inactive)
REMARK    1  A    between atoms: O1_2  and  C2_3 
REMARK    2  A    between atoms: C5_11  and  O4_12 
REMARK    3  A    between atoms: O4_12  and  C6_13 
REMARK    4  A    between atoms: C8_15  and  O5_16 
REMARK    5  A    between atoms: C9_18  and  O6_19 
REMARK    6  A    between atoms: C9_18  and  O7_21 
REMARK    7  A    between atoms: C10_23  and  O8_24 
REMARK    8  A    between atoms: C12_28  and  N2_29 
ROOT
HETATM    1  C2  UNL     1      15.658  18.915   9.068  1.00  0.00     0.243 C 
HETATM    2  O2  UNL     1      16.365  20.090   9.233  1.00  0.00    -0.196 OA
HETATM    3  O3  UNL     1      16.542  20.238   7.918  1.00  0.00    -0.224 OA
HETATM    4  C3  UNL     1      16.086  18.942   7.647  1.00  0.00     0.259 C 
HETATM    5  C4  UNL     1      17.263  18.015   7.487  1.00  0.00     0.252 C 
HETATM    6  N1  UNL     1      16.941  16.807   6.780  1.00  0.00    -0.030 N 
ATOM      7  H11 UNL     1      17.675  16.110   6.900  1.00  0.00     0.281 HD
ATOM      8  H12 UNL     1      17.006  16.948   5.772  1.00  0.00     0.281 HD
HETATM    9  C5  UNL     1      15.648  16.263   7.143  1.00  0.00     0.387 C 
HETATM   10  S1  UNL     1      15.487  16.210   8.931  1.00  0.00    -0.097 SA
HETATM   11  C11 UNL     1      16.323  17.673   9.608  1.00  0.00     0.146 C 
HETATM   12  C12 UNL     1      17.689  17.749   8.919  1.00  0.00     0.151 C 
ENDROOT
BRANCH   9  13
HETATM   13  O4  UNL     1      15.578  14.981   6.566  1.00  0.00    -0.343 OA
BRANCH  13  14
HETATM   14  C6  UNL     1      14.997  15.117   5.332  1.00  0.00     0.161 C 
HETATM   15  C7  UNL     1      13.969  16.231   5.270  1.00  0.00     0.072 C 
HETATM   16  C8  UNL     1      13.342  15.922   3.904  1.00  0.00     0.185 C 
HETATM   17  C9  UNL     1      13.033  14.450   4.081  1.00  0.00     0.215 C 
HETATM   18  C10 UNL     1      14.174  13.921   4.918  1.00  0.00     0.212 C 
BRANCH  16  19
HETATM   19  O5  UNL     1      12.224  16.690   3.688  1.00  0.00    -0.390 OA
ATOM     20  H5  UNL     1      11.555  16.197   3.229  1.00  0.00     0.210 HD
ENDBRANCH  16  19
BRANCH  17  21
HETATM   21  O6  UNL     1      11.835  14.380   4.813  1.00  0.00    -0.361 OA
ATOM     22  H6  UNL     1      11.220  13.893   4.277  1.00  0.00     0.213 HD
ENDBRANCH  17  21
BRANCH  17  23
HETATM   23  O7  UNL     1      12.927  13.795   2.860  1.00  0.00    -0.361 OA
ATOM     24  H7  UNL     1      13.555  13.086   2.786  1.00  0.00     0.213 HD
ENDBRANCH  17  23
BRANCH  18  25
HETATM   25  O8  UNL     1      13.752  13.157   5.979  1.00  0.00    -0.387 OA
ATOM     26  H8  UNL     1      12.969  12.652   5.791  1.00  0.00     0.210 HD
ENDBRANCH  18  25
ENDBRANCH  13  14
ENDBRANCH   9  13
BRANCH  12  27
HETATM   27  N2  UNL     1      18.477  18.789   9.467  1.00  0.00    -0.335 N 
HETATM   28  N3  UNL     1      19.375  19.341   8.846  1.00  0.00    -0.349 N 
ATOM     29  H32 UNL     1      19.550  19.026   7.892  1.00  0.00     0.176 HD
ATOM     30  H31 UNL     1      19.942  20.091   9.241  1.00  0.00     0.176 HD
ATOM     31  H2  UNL     1      18.289  19.091  10.423  1.00  0.00     0.180 HD
ENDBRANCH  12  27
BRANCH   1  32
HETATM   32  O1  UNL     1      14.325  18.926   9.364  1.00  0.00    -0.355 OA
HETATM   33  C1  UNL     1      14.006  19.203  10.669  1.00  0.00     0.205 C 
ENDBRANCH   1  32
TORSDOF 8
ENDMDL
MODEL 3
REMARK VINA RESULT: -7.783852652      3.101      7.608
REMARK  8 active torsions:
REMARK  status: ('A' for Active; 'I' for Inactive)
REMARK    1  A    between atoms: O1_2  and  C2_3 
REMARK    2  A    between atoms: C5_11  and  O4_12 
REMARK    3  A    between atoms: O4_12  and  C6_13 
REMARK    4  A    between atoms: C8_15  and  O5_16 
REMARK    5  A    between atoms: C9_18  and  O6_19 
REMARK    6  A    between atoms: C9_18  and  O7_21 
REMARK    7  A    between atoms: C10_23  and  O8_24 
REMARK    8  A    between atoms: C12_28  and  N2_29 
ROOT
HETATM    1  C2  UNL     1      15.901  16.655   7.905  1.00  0.00     0.243 C 
HETATM    2  O2  UNL     1      15.330  16.012   6.825  1.00  0.00    -0.196 OA
HETATM    3  O3  UNL     1      15.844  16.887   5.956  1.00  0.00    -0.224 OA
HETATM    4  C3  UNL     1      16.238  17.762   6.976  1.00  0.00     0.259 C 
HETATM    5  C4  UNL     1      15.208  18.849   7.136  1.00  0.00     0.252 C 
HETATM    6  N1  UNL     1      15.711  20.013   7.809  1.00  0.00    -0.030 N 
ATOM      7  H11 UNL     1      14.947  20.615   8.114  1.00  0.00     0.281 HD
ATOM      8  H12 UNL     1      16.170  20.644   7.151  1.00  0.00     0.281 HD
HETATM    9  C5  UNL     1      16.591  19.695   8.915  1.00  0.00     0.387 C 
HETATM   10  S1  UNL     1      15.838  18.435   9.952  1.00  0.00    -0.097 SA
HETATM   11  C11 UNL     1      14.932  17.293   8.869  1.00  0.00     0.146 C 
HETATM   12  C12 UNL     1      14.103  18.163   7.920  1.00  0.00     0.151 C 
ENDROOT
BRANCH   9  13
HETATM   13  O4  UNL     1      16.805  20.898   9.614  1.00  0.00    -0.343 OA
BRANCH  13  14
HETATM   14  C6  UNL     1      18.077  20.856  10.123  1.00  0.00     0.161 C 
HETATM   15  C7  UNL     1      18.185  21.429  11.524  1.00  0.00     0.072 C 
HETATM   16  C8  UNL     1      19.713  21.491  11.656  1.00  0.00     0.185 C 
HETATM   17  C9  UNL     1      20.061  22.224  10.377  1.00  0.00     0.215 C 
HETATM   18  C10 UNL     1      19.059  21.718   9.365  1.00  0.00     0.212 C 
BRANCH  16  19
HETATM   19  O5  UNL     1      20.084  22.171  12.790  1.00  0.00    -0.390 OA
ATOM     20  H5  UNL     1      19.797  23.075  12.756  1.00  0.00     0.210 HD
ENDBRANCH  16  19
BRANCH  17  21
HETATM   21  O6  UNL     1      19.836  23.589  10.627  1.00  0.00    -0.361 OA
ATOM     22  H6  UNL     1      20.044  24.048   9.821  1.00  0.00     0.213 HD
ENDBRANCH  17  21
BRANCH  17  23
HETATM   23  O7  UNL     1      21.372  21.983   9.985  1.00  0.00    -0.361 OA
ATOM     24  H7  UNL     1      21.794  22.771   9.663  1.00  0.00     0.213 HD
ENDBRANCH  17  23
BRANCH  18  25
HETATM   25  O8  UNL     1      18.459  22.728   8.654  1.00  0.00    -0.387 OA
ATOM     26  H8  UNL     1      18.632  23.592   9.008  1.00  0.00     0.210 HD
ENDBRANCH  18  25
ENDBRANCH  13  14
ENDBRANCH   9  13
BRANCH  12  27
HETATM   27  N2  UNL     1      13.258  17.367   7.109  1.00  0.00    -0.335 N 
HETATM   28  N3  UNL     1      12.770  17.769   6.062  1.00  0.00    -0.349 N 
ATOM     29  H32 UNL     1      12.991  18.722   5.774  1.00  0.00     0.176 HD
ATOM     30  H31 UNL     1      12.162  17.195   5.478  1.00  0.00     0.176 HD
ATOM     31  H2  UNL     1      13.047  16.417   7.412  1.00  0.00     0.180 HD
ENDBRANCH  12  27
BRANCH   1  32
HETATM   32  O1  UNL     1      16.905  16.013   8.571  1.00  0.00    -0.355 OA
HETATM   33  C1  UNL     1      16.611  14.751   9.021  1.00  0.00     0.205 C 
ENDBRANCH   1  32
TORSDOF 8
ENDMDL
MODEL 4
REMARK VINA RESULT: -7.753239401      1.751      2.122
REMARK  8 active torsions:
REMARK  status: ('A' for Active; 'I' for Inactive)
REMARK    1  A    between atoms: O1_2  and  C2_3 
REMARK    2  A    between atoms: C5_11  and  O4_12 
REMARK    3  A    between atoms: O4_12  and  C6_13 
REMARK    4  A    between atoms: C8_15  and  O5_16 
REMARK    5  A    between atoms: C9_18  and  O6_19 
REMARK    6  A    between atoms: C9_18  and  O7_21 
REMARK    7  A    between atoms: C10_23  and  O8_24 
REMARK    8  A    between atoms: C12_28  and  N2_29 
ROOT
HETATM    1  C2  UNL     1      18.085  18.802   8.270  1.00  0.00     0.243 C 
HETATM    2  O2  UNL     1      18.407  19.431   9.457  1.00  0.00    -0.196 OA
HETATM    3  O3  UNL     1      17.279  19.028  10.047  1.00  0.00    -0.224 OA
HETATM    4  C3  UNL     1      16.730  18.589   8.835  1.00  0.00     0.259 C 
HETATM    5  C4  UNL     1      15.812  19.649   8.284  1.00  0.00     0.252 C 
HETATM    6  N1  UNL     1      14.875  19.143   7.321  1.00  0.00    -0.030 N 
ATOM      7  H11 UNL     1      14.445  19.905   6.797  1.00  0.00     0.281 HD
ATOM      8  H12 UNL     1      14.047  18.767   7.782  1.00  0.00     0.281 HD
HETATM    9  C5  UNL     1      15.455  18.163   6.424  1.00  0.00     0.387 C 
HETATM   10  S1  UNL     1      17.015  18.773   5.777  1.00  0.00    -0.097 SA
HETATM   11  C11 UNL     1      17.834  19.715   7.096  1.00  0.00     0.146 C 
HETATM   12  C12 UNL     1      16.774  20.655   7.678  1.00  0.00     0.151 C 
ENDROOT
BRANCH   9  13
HETATM   13  O4  UNL     1      14.508  17.944   5.406  1.00  0.00    -0.343 OA
BRANCH  13  14
HETATM   14  C6  UNL     1      13.959  16.705   5.615  1.00  0.00     0.161 C 
HETATM   15  C7  UNL     1      14.910  15.565   5.304  1.00  0.00     0.072 C 
HETATM   16  C8  UNL     1      13.924  14.390   5.361  1.00  0.00     0.185 C 
HETATM   17  C9  UNL     1      12.840  14.907   4.438  1.00  0.00     0.215 C 
HETATM   18  C10 UNL     1      12.802  16.396   4.696  1.00  0.00     0.212 C 
BRANCH  16  19
HETATM   19  O5  UNL     1      14.510  13.231   4.915  1.00  0.00    -0.390 OA
ATOM     20  H5  UNL     1      15.452  13.258   5.029  1.00  0.00     0.210 HD
ENDBRANCH  16  19
BRANCH  17  21
HETATM   21  O6  UNL     1      13.284  14.664   3.127  1.00  0.00    -0.361 OA
ATOM     22  H6  UNL     1      12.724  15.173   2.553  1.00  0.00     0.213 HD
ENDBRANCH  17  21
BRANCH  17  23
HETATM   23  O7  UNL     1      11.616  14.297   4.687  1.00  0.00    -0.361 OA
ATOM     24  H7  UNL     1      10.900  14.766   4.276  1.00  0.00     0.213 HD
ENDBRANCH  17  23
BRANCH  18  25
HETATM   25  O8  UNL     1      12.810  17.140   3.541  1.00  0.00    -0.387 OA
ATOM     26  H8  UNL     1      13.678  17.427   3.285  1.00  0.00     0.210 HD
ENDBRANCH  18  25
ENDBRANCH  13  14
ENDBRANCH   9  13
BRANCH  12  27
HETATM   27  N2  UNL     1      17.341  21.529   8.637  1.00  0.00    -0.335 N 
HETATM   28  N3  UNL     1      18.147  22.402   8.347  1.00  0.00    -0.349 N 
ATOM     29  H32 UNL     1      18.412  22.492   7.366  1.00  0.00     0.176 HD
ATOM     30  H31 UNL     1      18.555  23.032   9.038  1.00  0.00     0.176 HD
ATOM     31  H2  UNL     1      17.066  21.425   9.614  1.00  0.00     0.180 HD
ENDBRANCH  12  27
BRANCH   1  32
HETATM   32  O1  UNL     1      18.831  17.720   7.900  1.00  0.00    -0.355 OA
HETATM   33  C1  UNL     1      18.570  16.556   8.579  1.00  0.00     0.205 C 
ENDBRANCH   1  32
TORSDOF 8
ENDMDL
MODEL 5
REMARK VINA RESULT: -7.743844172      2.716      3.865
REMARK  8 active torsions:
REMARK  status: ('A' for Active; 'I' for Inactive)
REMARK    1  A    between atoms: O1_2  and  C2_3 
REMARK    2  A    between atoms: C5_11  and  O4_12 
REMARK    3  A    between atoms: O4_12  and  C6_13 
REMARK    4  A    between atoms: C8_15  and  O5_16 
REMARK    5  A    between atoms: C9_18  and  O6_19 
REMARK    6  A    between atoms: C9_18  and  O7_21 
REMARK    7  A    between atoms: C10_23  and  O8_24 
REMARK    8  A    between atoms: C12_28  and  N2_29 
ROOT
HETATM    1  C2  UNL     1      18.286  19.879  11.452  1.00  0.00     0.243 C 
HETATM    2  O2  UNL     1      18.398  20.971  12.290  1.00  0.00    -0.196 OA
HETATM    3  O3  UNL     1      17.280  21.527  11.814  1.00  0.00    -0.224 OA
HETATM    4  C3  UNL     1      17.211  20.621  10.748  1.00  0.00     0.259 C 
HETATM    5  C4  UNL     1      17.797  21.250   9.511  1.00  0.00     0.252 C 
HETATM    6  N1  UNL     1      17.376  20.611   8.296  1.00  0.00    -0.030 N 
ATOM      7  H11 UNL     1      17.967  20.893   7.514  1.00  0.00     0.281 HD
ATOM      8  H12 UNL     1      16.484  20.988   7.977  1.00  0.00     0.281 HD
HETATM    9  C5  UNL     1      17.318  19.167   8.404  1.00  0.00     0.387 C 
HETATM   10  S1  UNL     1      18.829  18.548   9.151  1.00  0.00    -0.097 SA
HETATM   11  C11 UNL     1      19.363  19.749  10.404  1.00  0.00     0.146 C 
HETATM   12  C12 UNL     1      19.292  21.127   9.739  1.00  0.00     0.151 C 
ENDROOT
BRANCH   9  13
HETATM   13  O4  UNL     1      17.133  18.677   7.097  1.00  0.00    -0.343 OA
BRANCH  13  14
HETATM   14  C6  UNL     1      15.987  17.924   7.100  1.00  0.00     0.161 C 
HETATM   15  C7  UNL     1      15.962  16.861   6.018  1.00  0.00     0.072 C 
HETATM   16  C8  UNL     1      14.492  16.430   6.119  1.00  0.00     0.185 C 
HETATM   17  C9  UNL     1      13.813  17.782   6.039  1.00  0.00     0.215 C 
HETATM   18  C10 UNL     1      14.744  18.717   6.775  1.00  0.00     0.212 C 
BRANCH  16  19
HETATM   19  O5  UNL     1      14.151  15.589   5.089  1.00  0.00    -0.390 OA
ATOM     20  H5  UNL     1      13.215  15.605   4.929  1.00  0.00     0.210 HD
ENDBRANCH  16  19
BRANCH  17  21
HETATM   21  O6  UNL     1      13.772  18.127   4.677  1.00  0.00    -0.361 OA
ATOM     22  H6  UNL     1      12.891  18.437   4.504  1.00  0.00     0.213 HD
ENDBRANCH  17  21
BRANCH  17  23
HETATM   23  O7  UNL     1      12.542  17.754   6.601  1.00  0.00    -0.361 OA
ATOM     24  H7  UNL     1      12.555  18.012   7.515  1.00  0.00     0.213 HD
ENDBRANCH  17  23
BRANCH  18  25
HETATM   25  O8  UNL     1      15.002  19.873   6.080  1.00  0.00    -0.387 OA
ATOM     26  H8  UNL     1      14.218  20.356   5.847  1.00  0.00     0.210 HD
ENDBRANCH  18  25
ENDBRANCH  13  14
ENDBRANCH   9  13
BRANCH  12  27
HETATM   27  N2  UNL     1      19.809  22.130  10.594  1.00  0.00    -0.335 N 
HETATM   28  N3  UNL     1      19.483  23.307  10.513  1.00  0.00    -0.349 N 
ATOM     29  H32 UNL     1      18.808  23.560   9.790  1.00  0.00     0.176 HD
ATOM     30  H31 UNL     1      19.854  24.029  11.129  1.00  0.00     0.176 HD
ATOM     31  H2  UNL     1      20.483  21.861  11.311  1.00  0.00     0.180 HD
ENDBRANCH  12  27
BRANCH   1  32
HETATM   32  O1  UNL     1      18.002  18.669  12.017  1.00  0.00    -0.355 OA
HETATM   33  C1  UNL     1      18.846  18.267  13.022  1.00  0.00     0.205 C 
ENDBRANCH   1  32
TORSDOF 8
ENDMDL
