MODEL 1
REMARK VINA RESULT: -7.046358650      0.000      0.000
REMARK  14 active torsions:
REMARK  status: ('A' for Active; 'I' for Inactive)
REMARK    1  A    between atoms: C5_5  and  N1_6 
REMARK    2  A    between atoms: C6_9  and  C7_10 
REMARK    3  A    between atoms: C7_10  and  O1_11 
REMARK    4  A    between atoms: C7_10  and  N2_13 
REMARK    5  A    between atoms: N2_13  and  C8_15 
REMARK    6  A    between atoms: C8_15  and  C9_16 
REMARK    7  A    between atoms: C9_16  and  O2_17 
REMARK    8  A    between atoms: C9_16  and  C10_19 
REMARK    9  A    between atoms: C10_19  and  O3_20 
REMARK   10  A    between atoms: C10_19  and  C11_22 
REMARK   11  A    between atoms: C11_22  and  N3_23 
REMARK   12  A    between atoms: C11_22  and  C12_27 
REMARK   13  A    between atoms: C12_27  and  N4_28 
REMARK   14  A    between atoms: C13_32  and  N5_33 
ROOT
HETATM    1  N2  UNL     1      41.294  28.908  17.938  1.00  0.00    -0.394 N 
ATOM      2  H2  UNL     1      42.086  28.687  18.541  1.00  0.00     0.155 HD
ENDROOT
BRANCH   1   3
HETATM    3  C7  UNL     1      40.355  29.771  18.476  1.00  0.00     0.222 C 
BRANCH   3   4
HETATM    4  C6  UNL     1      39.725  29.456  19.759  1.00  0.00     0.092 C 
HETATM    5  C5  UNL     1      38.994  28.233  20.023  1.00  0.00     0.037 C 
HETATM    6  C2  UNL     1      38.316  28.587  21.390  1.00  0.00     0.016 C 
HETATM    7  C4  UNL     1      37.580  28.558  19.459  1.00  0.00     0.038 C 
HETATM    8  C1  UNL     1      37.499  27.443  21.936  1.00  0.00     0.013 C 
HETATM    9  C3  UNL     1      37.564  29.583  20.541  1.00  0.00     0.025 C 
HETATM   10  C13 UNL     1      38.644  30.517  20.127  1.00  0.00     0.198 C 
BRANCH   5  11
HETATM   11  N1  UNL     1      39.382  26.923  19.903  1.00  0.00    -0.421 N 
ATOM     12  H12 UNL     1      38.731  26.154  20.051  1.00  0.00     0.150 HD
ATOM     13  H11 UNL     1      40.364  26.794  19.656  1.00  0.00     0.150 HD
ENDBRANCH   5  11
BRANCH  10  14
HETATM   14  N5  UNL     1      38.281  31.296  18.978  1.00  0.00    -0.074 N 
ATOM     15  H53 UNL     1      38.145  30.703  18.160  1.00  0.00     0.274 HD
ATOM     16  H52 UNL     1      37.335  31.667  19.070  1.00  0.00     0.274 HD
ATOM     17  H51 UNL     1      38.952  32.040  18.787  1.00  0.00     0.274 HD
ENDBRANCH  10  14
ENDBRANCH   3   4
BRANCH   3  18
HETATM   18  O1  UNL     1      41.228  30.951  18.770  1.00  0.00    -0.377 OA
ATOM     19  H1  UNL     1      42.000  30.577  19.178  1.00  0.00     0.212 HD
ENDBRANCH   3  18
ENDBRANCH   1   3
BRANCH   1  20
HETATM   20  C8  UNL     1      41.302  28.305  16.693  1.00  0.00     0.150 C 
BRANCH  20  21
HETATM   21  C9  UNL     1      42.447  28.999  15.875  1.00  0.00     0.166 C 
BRANCH  21  22
HETATM   22  O2  UNL     1      41.860  29.900  14.995  1.00  0.00    -0.391 OA
ATOM     23  H2  UNL     1      42.030  30.777  15.318  1.00  0.00     0.210 HD
ENDBRANCH  21  22
BRANCH  21  24
HETATM   24  C10 UNL     1      43.178  27.928  15.101  1.00  0.00     0.180 C 
BRANCH  24  25
HETATM   25  O3  UNL     1      42.934  26.676  15.675  1.00  0.00    -0.391 OA
ATOM     26  H3  UNL     1      43.623  26.069  15.432  1.00  0.00     0.210 HD
ENDBRANCH  24  25
BRANCH  24  27
HETATM   27  C11 UNL     1      42.801  27.943  13.651  1.00  0.00     0.239 C 
BRANCH  27  28
HETATM   28  N3  UNL     1      43.782  28.679  12.858  1.00  0.00    -0.071 N 
ATOM     29  H33 UNL     1      44.736  28.415  13.102  1.00  0.00     0.274 HD
ATOM     30  H32 UNL     1      43.781  28.375  11.884  1.00  0.00     0.274 HD
ATOM     31  H31 UNL     1      43.639  29.686  12.937  1.00  0.00     0.274 HD
ENDBRANCH  27  28
BRANCH  27  32
HETATM   32  C12 UNL     1      42.570  26.562  13.093  1.00  0.00     0.265 C 
BRANCH  32  33
HETATM   33  N4  UNL     1      41.154  26.223  13.127  1.00  0.00    -0.077 N 
ATOM     34  H43 UNL     1      40.954  25.510  13.828  1.00  0.00     0.274 HD
ATOM     35  H42 UNL     1      40.593  26.981  13.514  1.00  0.00     0.274 HD
ATOM     36  H41 UNL     1      40.827  25.945  12.201  1.00  0.00     0.274 HD
ENDBRANCH  32  33
ENDBRANCH  27  32
ENDBRANCH  24  27
ENDBRANCH  21  24
ENDBRANCH  20  21
ENDBRANCH   1  20
TORSDOF 14
ENDMDL
MODEL 2
REMARK VINA RESULT: -6.675573577      1.346      1.681
REMARK  14 active torsions:
REMARK  status: ('A' for Active; 'I' for Inactive)
REMARK    1  A    between atoms: C5_5  and  N1_6 
REMARK    2  A    between atoms: C6_9  and  C7_10 
REMARK    3  A    between atoms: C7_10  and  O1_11 
REMARK    4  A    between atoms: C7_10  and  N2_13 
REMARK    5  A    between atoms: N2_13  and  C8_15 
REMARK    6  A    between atoms: C8_15  and  C9_16 
REMARK    7  A    between atoms: C9_16  and  O2_17 
REMARK    8  A    between atoms: C9_16  and  C10_19 
REMARK    9  A    between atoms: C10_19  and  O3_20 
REMARK   10  A    between atoms: C10_19  and  C11_22 
REMARK   11  A    between atoms: C11_22  and  N3_23 
REMARK   12  A    between atoms: C11_22  and  C12_27 
REMARK   13  A    between atoms: C12_27  and  N4_28 
REMARK   14  A    between atoms: C13_32  and  N5_33 
ROOT
HETATM    1  N2  UNL     1      41.208  28.176  18.022  1.00  0.00    -0.394 N 
ATOM      2  H2  UNL     1      41.418  27.207  18.263  1.00  0.00     0.155 HD
ENDROOT
BRANCH   1   3
HETATM    3  C7  UNL     1      41.242  29.075  19.075  1.00  0.00     0.222 C 
BRANCH   3   4
HETATM    4  C6  UNL     1      40.144  29.108  20.042  1.00  0.00     0.092 C 
HETATM    5  C5  UNL     1      38.777  29.451  19.703  1.00  0.00     0.037 C 
HETATM    6  C2  UNL     1      38.155  29.619  21.131  1.00  0.00     0.016 C 
HETATM    7  C4  UNL     1      38.801  31.007  19.743  1.00  0.00     0.038 C 
HETATM    8  C1  UNL     1      36.685  29.948  21.079  1.00  0.00     0.013 C 
HETATM    9  C3  UNL     1      39.090  30.802  21.190  1.00  0.00     0.025 C 
HETATM   10  C13 UNL     1      40.424  30.146  21.171  1.00  0.00     0.198 C 
BRANCH   5  11
HETATM   11  N1  UNL     1      37.930  28.905  18.774  1.00  0.00    -0.421 N 
ATOM     12  H12 UNL     1      37.004  28.561  19.027  1.00  0.00     0.150 HD
ATOM     13  H11 UNL     1      38.304  28.876  17.825  1.00  0.00     0.150 HD
ENDBRANCH   5  11
BRANCH  10  14
HETATM   14  N5  UNL     1      41.471  31.048  20.787  1.00  0.00    -0.074 N 
ATOM     15  H53 UNL     1      41.313  31.417  19.850  1.00  0.00     0.274 HD
ATOM     16  H52 UNL     1      41.418  31.919  21.316  1.00  0.00     0.274 HD
ATOM     17  H51 UNL     1      42.396  30.626  20.865  1.00  0.00     0.274 HD
ENDBRANCH  10  14
ENDBRANCH   3   4
BRANCH   3  18
HETATM   18  O1  UNL     1      42.401  28.524  19.847  1.00  0.00    -0.377 OA
ATOM     19  H1  UNL     1      42.018  28.220  20.662  1.00  0.00     0.212 HD
ENDBRANCH   3  18
ENDBRANCH   1   3
BRANCH   1  20
HETATM   20  C8  UNL     1      40.926  28.415  16.690  1.00  0.00     0.150 C 
BRANCH  20  21
HETATM   21  C9  UNL     1      42.222  29.054  16.074  1.00  0.00     0.166 C 
BRANCH  21  22
HETATM   22  O2  UNL     1      41.829  29.994  15.130  1.00  0.00    -0.391 OA
ATOM     23  H2  UNL     1      42.564  30.575  14.972  1.00  0.00     0.210 HD
ENDBRANCH  21  22
BRANCH  21  24
HETATM   24  C10 UNL     1      43.007  27.952  15.404  1.00  0.00     0.180 C 
BRANCH  24  25
HETATM   25  O3  UNL     1      42.713  26.724  16.006  1.00  0.00    -0.391 OA
ATOM     26  H3  UNL     1      43.261  26.043  15.635  1.00  0.00     0.210 HD
ENDBRANCH  24  25
BRANCH  24  27
HETATM   27  C11 UNL     1      42.748  27.910  13.929  1.00  0.00     0.239 C 
BRANCH  27  28
HETATM   28  N3  UNL     1      43.787  28.621  13.189  1.00  0.00    -0.071 N 
ATOM     29  H33 UNL     1      44.720  28.349  13.498  1.00  0.00     0.274 HD
ATOM     30  H32 UNL     1      43.844  28.302  12.222  1.00  0.00     0.274 HD
ATOM     31  H31 UNL     1      43.653  29.631  13.244  1.00  0.00     0.274 HD
ENDBRANCH  27  28
BRANCH  27  32
HETATM   32  C12 UNL     1      42.566  26.508  13.407  1.00  0.00     0.265 C 
BRANCH  32  33
HETATM   33  N4  UNL     1      41.159  26.231  13.153  1.00  0.00    -0.077 N 
ATOM     34  H43 UNL     1      40.551  26.766  13.771  1.00  0.00     0.274 HD
ATOM     35  H42 UNL     1      40.853  26.620  12.261  1.00  0.00     0.274 HD
ATOM     36  H41 UNL     1      40.972  25.230  13.213  1.00  0.00     0.274 HD
ENDBRANCH  32  33
ENDBRANCH  27  32
ENDBRANCH  24  27
ENDBRANCH  21  24
ENDBRANCH  20  21
ENDBRANCH   1  20
TORSDOF 14
ENDMDL
MODEL 3
REMARK VINA RESULT: -6.612233240      1.039      1.159
REMARK  14 active torsions:
REMARK  status: ('A' for Active; 'I' for Inactive)
REMARK    1  A    between atoms: C5_5  and  N1_6 
REMARK    2  A    between atoms: C6_9  and  C7_10 
REMARK    3  A    between atoms: C7_10  and  O1_11 
REMARK    4  A    between atoms: C7_10  and  N2_13 
REMARK    5  A    between atoms: N2_13  and  C8_15 
REMARK    6  A    between atoms: C8_15  and  C9_16 
REMARK    7  A    between atoms: C9_16  and  O2_17 
REMARK    8  A    between atoms: C9_16  and  C10_19 
REMARK    9  A    between atoms: C10_19  and  O3_20 
REMARK   10  A    between atoms: C10_19  and  C11_22 
REMARK   11  A    between atoms: C11_22  and  N3_23 
REMARK   12  A    between atoms: C11_22  and  C12_27 
REMARK   13  A    between atoms: C12_27  and  N4_28 
REMARK   14  A    between atoms: C13_32  and  N5_33 
ROOT
HETATM    1  N2  UNL     1      41.368  29.107  18.209  1.00  0.00    -0.394 N 
ATOM      2  H2  UNL     1      41.368  28.142  18.541  1.00  0.00     0.155 HD
ENDROOT
BRANCH   1   3
HETATM    3  C7  UNL     1      40.394  29.927  18.750  1.00  0.00     0.222 C 
BRANCH   3   4
HETATM    4  C6  UNL     1      39.689  29.519  19.966  1.00  0.00     0.092 C 
HETATM    5  C5  UNL     1      38.982  28.262  20.108  1.00  0.00     0.037 C 
HETATM    6  C2  UNL     1      38.201  28.515  21.443  1.00  0.00     0.016 C 
HETATM    7  C4  UNL     1      37.600  28.580  19.467  1.00  0.00     0.038 C 
HETATM    8  C1  UNL     1      37.387  27.318  21.864  1.00  0.00     0.013 C 
HETATM    9  C3  UNL     1      37.477  29.537  20.602  1.00  0.00     0.025 C 
HETATM   10  C13 UNL     1      38.552  30.525  20.319  1.00  0.00     0.198 C 
BRANCH   5  11
HETATM   11  N1  UNL     1      39.420  26.974  19.940  1.00  0.00    -0.421 N 
ATOM     12  H12 UNL     1      38.772  26.187  19.893  1.00  0.00     0.150 HD
ATOM     13  H11 UNL     1      40.433  26.877  19.867  1.00  0.00     0.150 HD
ENDBRANCH   5  11
BRANCH  10  14
HETATM   14  N5  UNL     1      38.242  31.360  19.194  1.00  0.00    -0.074 N 
ATOM     15  H53 UNL     1      37.695  32.172  19.479  1.00  0.00     0.274 HD
ATOM     16  H52 UNL     1      39.076  31.838  18.851  1.00  0.00     0.274 HD
ATOM     17  H51 UNL     1      37.778  30.847  18.446  1.00  0.00     0.274 HD
ENDBRANCH  10  14
ENDBRANCH   3   4
BRANCH   3  18
HETATM   18  O1  UNL     1      41.241  31.084  19.183  1.00  0.00    -0.377 OA
ATOM     19  H1  UNL     1      42.131  30.755  19.135  1.00  0.00     0.212 HD
ENDBRANCH   3  18
ENDBRANCH   1   3
BRANCH   1  20
HETATM   20  C8  UNL     1      42.343  29.419  17.278  1.00  0.00     0.150 C 
BRANCH  20  21
HETATM   21  C9  UNL     1      41.838  28.849  15.905  1.00  0.00     0.166 C 
BRANCH  21  22
HETATM   22  O2  UNL     1      40.692  28.102  16.146  1.00  0.00    -0.391 OA
ATOM     23  H2  UNL     1      40.528  27.562  15.381  1.00  0.00     0.210 HD
ENDBRANCH  21  22
BRANCH  21  24
HETATM   24  C10 UNL     1      42.923  27.959  15.347  1.00  0.00     0.180 C 
BRANCH  24  25
HETATM   25  O3  UNL     1      42.894  26.715  15.988  1.00  0.00    -0.391 OA
ATOM     26  H3  UNL     1      41.994  26.437  16.112  1.00  0.00     0.210 HD
ENDBRANCH  24  25
BRANCH  24  27
HETATM   27  C11 UNL     1      42.801  27.807  13.862  1.00  0.00     0.239 C 
BRANCH  27  28
HETATM   28  N3  UNL     1      42.655  29.105  13.209  1.00  0.00    -0.071 N 
ATOM     29  H33 UNL     1      43.408  29.742  13.468  1.00  0.00     0.274 HD
ATOM     30  H32 UNL     1      42.840  29.044  12.208  1.00  0.00     0.274 HD
ATOM     31  H31 UNL     1      41.738  29.512  13.397  1.00  0.00     0.274 HD
ENDBRANCH  27  28
BRANCH  27  32
HETATM   32  C12 UNL     1      43.933  27.016  13.260  1.00  0.00     0.265 C 
BRANCH  32  33
HETATM   33  N4  UNL     1      44.525  27.733  12.140  1.00  0.00    -0.077 N 
ATOM     34  H43 UNL     1      43.814  28.145  11.537  1.00  0.00     0.274 HD
ATOM     35  H42 UNL     1      44.985  28.592  12.443  1.00  0.00     0.274 HD
ATOM     36  H41 UNL     1      45.159  27.128  11.618  1.00  0.00     0.274 HD
ENDBRANCH  32  33
ENDBRANCH  27  32
ENDBRANCH  24  27
ENDBRANCH  21  24
ENDBRANCH  20  21
ENDBRANCH   1  20
TORSDOF 14
ENDMDL
MODEL 4
REMARK VINA RESULT: -6.580594744      5.057      8.151
REMARK  14 active torsions:
REMARK  status: ('A' for Active; 'I' for Inactive)
REMARK    1  A    between atoms: C5_5  and  N1_6 
REMARK    2  A    between atoms: C6_9  and  C7_10 
REMARK    3  A    between atoms: C7_10  and  O1_11 
REMARK    4  A    between atoms: C7_10  and  N2_13 
REMARK    5  A    between atoms: N2_13  and  C8_15 
REMARK    6  A    between atoms: C8_15  and  C9_16 
REMARK    7  A    between atoms: C9_16  and  O2_17 
REMARK    8  A    between atoms: C9_16  and  C10_19 
REMARK    9  A    between atoms: C10_19  and  O3_20 
REMARK   10  A    between atoms: C10_19  and  C11_22 
REMARK   11  A    between atoms: C11_22  and  N3_23 
REMARK   12  A    between atoms: C11_22  and  C12_27 
REMARK   13  A    between atoms: C12_27  and  N4_28 
REMARK   14  A    between atoms: C13_32  and  N5_33 
ROOT
HETATM    1  N2  UNL     1      36.733  31.360  23.193  1.00  0.00    -0.394 N 
ATOM      2  H2  UNL     1      36.178  31.936  22.560  1.00  0.00     0.155 HD
ENDROOT
BRANCH   1   3
HETATM    3  C7  UNL     1      36.728  30.002  22.926  1.00  0.00     0.222 C 
BRANCH   3   4
HETATM    4  C6  UNL     1      37.680  29.444  21.965  1.00  0.00     0.092 C 
HETATM    5  C5  UNL     1      37.652  29.725  20.542  1.00  0.00     0.037 C 
HETATM    6  C2  UNL     1      38.661  28.650  20.013  1.00  0.00     0.016 C 
HETATM    7  C4  UNL     1      36.595  28.708  20.020  1.00  0.00     0.038 C 
HETATM    8  C1  UNL     1      38.861  28.741  18.521  1.00  0.00     0.013 C 
HETATM    9  C3  UNL     1      37.588  27.693  20.473  1.00  0.00     0.025 C 
HETATM   10  C13 UNL     1      37.610  27.887  21.947  1.00  0.00     0.198 C 
BRANCH   5  11
HETATM   11  N1  UNL     1      37.690  30.920  19.873  1.00  0.00    -0.421 N 
ATOM     12  H12 UNL     1      38.078  31.762  20.298  1.00  0.00     0.150 HD
ATOM     13  H11 UNL     1      37.302  30.891  18.930  1.00  0.00     0.150 HD
ENDBRANCH   5  11
BRANCH  10  14
HETATM   14  N5  UNL     1      36.407  27.423  22.576  1.00  0.00    -0.074 N 
ATOM     15  H53 UNL     1      36.373  27.704  23.556  1.00  0.00     0.274 HD
ATOM     16  H52 UNL     1      35.592  27.930  22.232  1.00  0.00     0.274 HD
ATOM     17  H51 UNL     1      36.282  26.415  22.478  1.00  0.00     0.274 HD
ENDBRANCH  10  14
ENDBRANCH   3   4
BRANCH   3  18
HETATM   18  O1  UNL     1      37.187  29.477  24.251  1.00  0.00    -0.377 OA
ATOM     19  H1  UNL     1      36.392  29.406  24.766  1.00  0.00     0.212 HD
ENDBRANCH   3  18
ENDBRANCH   1   3
BRANCH   1  20
HETATM   20  C8  UNL     1      37.388  32.041  24.203  1.00  0.00     0.150 C 
BRANCH  20  21
HETATM   21  C9  UNL     1      37.717  33.466  23.631  1.00  0.00     0.166 C 
BRANCH  21  22
HETATM   22  O2  UNL     1      36.693  33.827  22.764  1.00  0.00    -0.391 OA
ATOM     23  H2  UNL     1      36.325  34.647  23.072  1.00  0.00     0.210 HD
ENDBRANCH  21  22
BRANCH  21  24
HETATM   24  C10 UNL     1      39.020  33.371  22.874  1.00  0.00     0.180 C 
BRANCH  24  25
HETATM   25  O3  UNL     1      38.792  32.837  21.601  1.00  0.00    -0.391 OA
ATOM     26  H3  UNL     1      39.233  33.364  20.946  1.00  0.00     0.210 HD
ENDBRANCH  24  25
BRANCH  24  27
HETATM   27  C11 UNL     1      39.707  34.699  22.791  1.00  0.00     0.239 C 
BRANCH  27  28
HETATM   28  N3  UNL     1      39.240  35.601  23.840  1.00  0.00    -0.071 N 
ATOM     29  H33 UNL     1      38.581  36.289  23.477  1.00  0.00     0.274 HD
ATOM     30  H32 UNL     1      38.623  35.125  24.498  1.00  0.00     0.274 HD
ATOM     31  H31 UNL     1      40.024  36.048  24.318  1.00  0.00     0.274 HD
ENDBRANCH  27  28
BRANCH  27  32
HETATM   32  C12 UNL     1      41.209  34.582  22.797  1.00  0.00     0.265 C 
BRANCH  32  33
HETATM   33  N4  UNL     1      41.829  35.897  22.706  1.00  0.00    -0.077 N 
ATOM     34  H43 UNL     1      41.233  36.623  23.102  1.00  0.00     0.274 HD
ATOM     35  H42 UNL     1      42.621  35.985  23.342  1.00  0.00     0.274 HD
ATOM     36  H41 UNL     1      42.091  36.107  21.743  1.00  0.00     0.274 HD
ENDBRANCH  32  33
ENDBRANCH  27  32
ENDBRANCH  24  27
ENDBRANCH  21  24
ENDBRANCH  20  21
ENDBRANCH   1  20
TORSDOF 14
ENDMDL
MODEL 5
REMARK VINA RESULT: -6.535142119      3.437      7.613
REMARK  14 active torsions:
REMARK  status: ('A' for Active; 'I' for Inactive)
REMARK    1  A    between atoms: C5_5  and  N1_6 
REMARK    2  A    between atoms: C6_9  and  C7_10 
REMARK    3  A    between atoms: C7_10  and  O1_11 
REMARK    4  A    between atoms: C7_10  and  N2_13 
REMARK    5  A    between atoms: N2_13  and  C8_15 
REMARK    6  A    between atoms: C8_15  and  C9_16 
REMARK    7  A    between atoms: C9_16  and  O2_17 
REMARK    8  A    between atoms: C9_16  and  C10_19 
REMARK    9  A    between atoms: C10_19  and  O3_20 
REMARK   10  A    between atoms: C10_19  and  C11_22 
REMARK   11  A    between atoms: C11_22  and  N3_23 
REMARK   12  A    between atoms: C11_22  and  C12_27 
REMARK   13  A    between atoms: C12_27  and  N4_28 
REMARK   14  A    between atoms: C13_32  and  N5_33 
ROOT
HETATM    1  N2  UNL     1      37.604  29.453  19.464  1.00  0.00    -0.394 N 
ATOM      2  H2  UNL     1      37.033  29.671  18.647  1.00  0.00     0.155 HD
ENDROOT
BRANCH   1   3
HETATM    3  C7  UNL     1      38.543  30.410  19.810  1.00  0.00     0.222 C 
BRANCH   3   4
HETATM    4  C6  UNL     1      39.734  30.597  18.980  1.00  0.00     0.092 C 
HETATM    5  C5  UNL     1      40.014  29.831  17.781  1.00  0.00     0.037 C 
HETATM    6  C2  UNL     1      41.504  30.236  17.517  1.00  0.00     0.016 C 
HETATM    7  C4  UNL     1      40.669  28.540  18.353  1.00  0.00     0.038 C 
HETATM    8  C1  UNL     1      42.057  29.596  16.269  1.00  0.00     0.013 C 
HETATM    9  C3  UNL     1      41.737  29.478  18.801  1.00  0.00     0.025 C 
HETATM   10  C13 UNL     1      41.034  30.328  19.797  1.00  0.00     0.198 C 
BRANCH   5  11
HETATM   11  N1  UNL     1      39.263  29.652  16.648  1.00  0.00    -0.421 N 
ATOM     12  H12 UNL     1      38.247  29.730  16.658  1.00  0.00     0.150 HD
ATOM     13  H11 UNL     1      39.805  29.436  15.811  1.00  0.00     0.150 HD
ENDBRANCH   5  11
BRANCH  10  14
HETATM   14  N5  UNL     1      40.738  29.619  21.008  1.00  0.00    -0.074 N 
ATOM     15  H53 UNL     1      39.865  29.947  21.422  1.00  0.00     0.274 HD
ATOM     16  H52 UNL     1      40.473  28.653  20.813  1.00  0.00     0.274 HD
ATOM     17  H51 UNL     1      41.503  29.662  21.680  1.00  0.00     0.274 HD
ENDBRANCH  10  14
ENDBRANCH   3   4
BRANCH   3  18
HETATM   18  O1  UNL     1      37.738  31.653  19.589  1.00  0.00    -0.377 OA
ATOM     19  H1  UNL     1      37.230  31.750  20.386  1.00  0.00     0.212 HD
ENDBRANCH   3  18
ENDBRANCH   1   3
BRANCH   1  20
HETATM   20  C8  UNL     1      37.337  28.243  20.076  1.00  0.00     0.150 C 
BRANCH  20  21
HETATM   21  C9  UNL     1      37.541  28.473  21.615  1.00  0.00     0.166 C 
BRANCH  21  22
HETATM   22  O2  UNL     1      38.434  27.515  22.077  1.00  0.00    -0.391 OA
ATOM     23  H2  UNL     1      37.982  26.978  22.718  1.00  0.00     0.210 HD
ENDBRANCH  21  22
BRANCH  21  24
HETATM   24  C10 UNL     1      36.202  28.295  22.291  1.00  0.00     0.180 C 
BRANCH  24  25
HETATM   25  O3  UNL     1      36.062  26.973  22.726  1.00  0.00    -0.391 OA
ATOM     26  H3  UNL     1      36.217  26.922  23.662  1.00  0.00     0.210 HD
ENDBRANCH  24  25
BRANCH  24  27
HETATM   27  C11 UNL     1      36.024  29.260  23.422  1.00  0.00     0.239 C 
BRANCH  27  28
HETATM   28  N3  UNL     1      35.979  28.568  24.707  1.00  0.00    -0.071 N 
ATOM     29  H33 UNL     1      36.242  27.587  24.613  1.00  0.00     0.274 HD
ATOM     30  H32 UNL     1      36.731  28.873  25.324  1.00  0.00     0.274 HD
ATOM     31  H31 UNL     1      35.065  28.670  25.150  1.00  0.00     0.274 HD
ENDBRANCH  27  28
BRANCH  27  32
HETATM   32  C12 UNL     1      37.060  30.355  23.425  1.00  0.00     0.265 C 
BRANCH  32  33
HETATM   33  N4  UNL     1      36.669  31.432  24.324  1.00  0.00    -0.077 N 
ATOM     34  H43 UNL     1      35.660  31.458  24.465  1.00  0.00     0.274 HD
ATOM     35  H42 UNL     1      36.953  31.243  25.285  1.00  0.00     0.274 HD
ATOM     36  H41 UNL     1      37.027  32.327  23.992  1.00  0.00     0.274 HD
ENDBRANCH  32  33
ENDBRANCH  27  32
ENDBRANCH  24  27
ENDBRANCH  21  24
ENDBRANCH  20  21
ENDBRANCH   1  20
TORSDOF 14
ENDMDL
