MODEL 1
REMARK VINA RESULT: -7.495015503      0.000      0.000
REMARK  11 active torsions:
REMARK  status: ('A' for Active; 'I' for Inactive)
REMARK    1  A    between atoms: C2_2  and  O1_3 
REMARK    2  A    between atoms: C2_2  and  C3_5 
REMARK    3  A    between atoms: C3_5  and  O2_6 
REMARK    4  A    between atoms: C3_5  and  C4_8 
REMARK    5  A    between atoms: C4_8  and  N1_9 
REMARK    6  A    between atoms: N1_9  and  C5_11 
REMARK    7  A    between atoms: N6_25  and  C10_26 
REMARK    8  A    between atoms: C10_26  and  C11_27 
REMARK    9  A    between atoms: C11_27  and  O3_28 
REMARK   10  A    between atoms: C11_27  and  C12_30 
REMARK   11  A    between atoms: C12_30  and  N7_31 
ROOT
HETATM    1  C5  UNL     1      42.360  29.114  16.316  1.00  0.00     0.151 A 
HETATM    2  N2  UNL     1      43.508  29.478  16.953  1.00  0.00    -0.174 N 
ATOM      3  H2  UNL     1      44.371  29.561  16.415  1.00  0.00     0.186 HD
HETATM    4  C6  UNL     1      43.533  29.730  18.270  1.00  0.00     0.679 A 
HETATM    5  N3  UNL     1      44.645  30.075  18.846  1.00  0.00    -0.234 N 
ATOM      6  H31 UNL     1      44.665  30.267  19.847  1.00  0.00     0.174 HD
ATOM      7  H32 UNL     1      45.481  30.145  18.266  1.00  0.00     0.174 HD
HETATM    8  N4  UNL     1      42.433  29.638  19.035  1.00  0.00    -0.174 N 
ATOM      9  H4  UNL     1      42.489  29.836  20.034  1.00  0.00     0.186 HD
HETATM   10  C7  UNL     1      41.244  29.281  18.481  1.00  0.00     0.155 A 
HETATM   11  C8  UNL     1      41.240  29.022  17.105  1.00  0.00     0.123 A 
HETATM   12  N5  UNL     1      39.994  28.693  16.818  1.00  0.00    -0.346 N 
ATOM     13  H5  UNL     1      39.654  28.442  15.890  1.00  0.00     0.167 HD
HETATM   14  C9  UNL     1      39.244  28.736  17.928  1.00  0.00     0.185 A 
HETATM   15  N6  UNL     1      40.013  29.104  18.987  1.00  0.00    -0.324 N 
ENDROOT
BRANCH   1  16
HETATM   16  N1  UNL     1      42.456  28.902  15.078  1.00  0.00    -0.351 N 
ATOM     17  H1  UNL     1      42.195  29.715  14.520  1.00  0.00     0.166 HD
BRANCH  16  18
HETATM   18  C4  UNL     1      42.837  27.809  14.291  1.00  0.00     0.096 C 
BRANCH  18  19
HETATM   19  C3  UNL     1      42.770  28.119  12.802  1.00  0.00     0.184 C 
BRANCH  19  20
HETATM   20  C2  UNL     1      43.533  27.052  12.039  1.00  0.00     0.148 C 
HETATM   21  C1  UNL     1      42.884  26.703  10.742  1.00  0.00     0.042 C 
BRANCH  20  22
HETATM   22  O1  UNL     1      44.823  27.483  11.826  1.00  0.00    -0.393 OA
ATOM     23  H1  UNL     1      45.163  27.905  12.607  1.00  0.00     0.210 HD
ENDBRANCH  20  22
ENDBRANCH  19  20
BRANCH  19  24
HETATM   24  O2  UNL     1      43.239  29.383  12.550  1.00  0.00    -0.388 OA
ATOM     25  H2  UNL     1      43.051  29.672  11.665  1.00  0.00     0.210 HD
ENDBRANCH  19  24
ENDBRANCH  18  19
ENDBRANCH  16  18
ENDBRANCH   1  16
BRANCH  15  26
HETATM   26  C10 UNL     1      39.571  29.287  20.349  1.00  0.00     0.164 C 
BRANCH  26  27
HETATM   27  C11 UNL     1      38.810  28.135  20.887  1.00  0.00     0.161 C 
BRANCH  27  28
HETATM   28  O3  UNL     1      39.698  27.300  21.606  1.00  0.00    -0.392 OA
ATOM     29  H3  UNL     1      39.924  27.728  22.423  1.00  0.00     0.210 HD
ENDBRANCH  27  28
BRANCH  27  30
HETATM   30  C12 UNL     1      37.695  28.597  21.773  1.00  0.00     0.262 C 
BRANCH  30  31
HETATM   31  N7  UNL     1      37.194  27.415  22.473  1.00  0.00    -0.077 N 
ATOM     32  H73 UNL     1      36.203  27.239  22.306  1.00  0.00     0.274 HD
ATOM     33  H72 UNL     1      37.548  26.540  22.087  1.00  0.00     0.274 HD
ATOM     34  H71 UNL     1      37.419  27.540  23.460  1.00  0.00     0.274 HD
ENDBRANCH  30  31
ENDBRANCH  27  30
ENDBRANCH  26  27
ENDBRANCH  15  26
TORSDOF 11
ENDMDL
MODEL 2
REMARK VINA RESULT: -7.464192699      3.129      4.644
REMARK  11 active torsions:
REMARK  status: ('A' for Active; 'I' for Inactive)
REMARK    1  A    between atoms: C2_2  and  O1_3 
REMARK    2  A    between atoms: C2_2  and  C3_5 
REMARK    3  A    between atoms: C3_5  and  O2_6 
REMARK    4  A    between atoms: C3_5  and  C4_8 
REMARK    5  A    between atoms: C4_8  and  N1_9 
REMARK    6  A    between atoms: N1_9  and  C5_11 
REMARK    7  A    between atoms: N6_25  and  C10_26 
REMARK    8  A    between atoms: C10_26  and  C11_27 
REMARK    9  A    between atoms: C11_27  and  O3_28 
REMARK   10  A    between atoms: C11_27  and  C12_30 
REMARK   11  A    between atoms: C12_30  and  N7_31 
ROOT
HETATM    1  C5  UNL     1      41.160  29.173  20.158  1.00  0.00     0.151 A 
HETATM    2  N2  UNL     1      40.765  27.869  20.121  1.00  0.00    -0.174 N 
ATOM      3  H2  UNL     1      41.401  27.168  19.742  1.00  0.00     0.186 HD
HETATM    4  C6  UNL     1      39.561  27.485  20.568  1.00  0.00     0.679 A 
HETATM    5  N3  UNL     1      39.216  26.234  20.518  1.00  0.00    -0.234 N 
ATOM      6  H31 UNL     1      38.300  25.942  20.858  1.00  0.00     0.174 HD
ATOM      7  H32 UNL     1      39.886  25.570  20.132  1.00  0.00     0.174 HD
HETATM    8  N4  UNL     1      38.677  28.360  21.077  1.00  0.00    -0.174 N 
ATOM      9  H4  UNL     1      37.769  28.032  21.408  1.00  0.00     0.186 HD
HETATM   10  C7  UNL     1      38.989  29.681  21.153  1.00  0.00     0.155 A 
HETATM   11  C8  UNL     1      40.250  30.060  20.680  1.00  0.00     0.123 A 
HETATM   12  N5  UNL     1      40.306  31.368  20.851  1.00  0.00    -0.346 N 
ATOM     13  H5  UNL     1      41.101  31.958  20.605  1.00  0.00     0.167 HD
HETATM   14  C9  UNL     1      39.162  31.805  21.397  1.00  0.00     0.185 A 
HETATM   15  N6  UNL     1      38.319  30.757  21.595  1.00  0.00    -0.324 N 
ENDROOT
BRANCH   1  16
HETATM   16  N1  UNL     1      42.312  29.417  19.711  1.00  0.00    -0.351 N 
ATOM     17  H1  UNL     1      42.984  29.623  20.450  1.00  0.00     0.166 HD
BRANCH  16  18
HETATM   18  C4  UNL     1      42.883  29.470  18.434  1.00  0.00     0.096 C 
BRANCH  18  19
HETATM   19  C3  UNL     1      41.896  29.959  17.382  1.00  0.00     0.184 C 
BRANCH  19  20
HETATM   20  C2  UNL     1      41.561  28.812  16.446  1.00  0.00     0.148 C 
HETATM   21  C1  UNL     1      42.769  28.255  15.772  1.00  0.00     0.042 C 
BRANCH  20  22
HETATM   22  O1  UNL     1      40.911  27.826  17.153  1.00  0.00    -0.393 OA
ATOM     23  H1  UNL     1      40.292  28.211  17.763  1.00  0.00     0.210 HD
ENDBRANCH  20  22
ENDBRANCH  19  20
BRANCH  19  24
HETATM   24  O2  UNL     1      42.399  31.049  16.719  1.00  0.00    -0.388 OA
ATOM     25  H2  UNL     1      42.319  31.851  17.223  1.00  0.00     0.210 HD
ENDBRANCH  19  24
ENDBRANCH  18  19
ENDBRANCH  16  18
ENDBRANCH   1  16
BRANCH  15  26
HETATM   26  C10 UNL     1      37.001  30.813  22.181  1.00  0.00     0.164 C 
BRANCH  26  27
HETATM   27  C11 UNL     1      36.915  30.168  23.512  1.00  0.00     0.161 C 
BRANCH  27  28
HETATM   28  O3  UNL     1      36.325  31.079  24.420  1.00  0.00    -0.392 OA
ATOM     29  H3  UNL     1      35.380  30.992  24.370  1.00  0.00     0.210 HD
ENDBRANCH  27  28
BRANCH  27  30
HETATM   30  C12 UNL     1      36.112  28.906  23.445  1.00  0.00     0.262 C 
BRANCH  30  31
HETATM   31  N7  UNL     1      35.748  28.562  24.818  1.00  0.00    -0.077 N 
ATOM     32  H73 UNL     1      36.556  28.415  25.423  1.00  0.00     0.274 HD
ATOM     33  H72 UNL     1      35.341  29.343  25.332  1.00  0.00     0.274 HD
ATOM     34  H71 UNL     1      35.133  27.751  24.765  1.00  0.00     0.274 HD
ENDBRANCH  30  31
ENDBRANCH  27  30
ENDBRANCH  26  27
ENDBRANCH  15  26
TORSDOF 11
ENDMDL
MODEL 3
REMARK VINA RESULT: -7.433119526      1.139      1.352
REMARK  11 active torsions:
REMARK  status: ('A' for Active; 'I' for Inactive)
REMARK    1  A    between atoms: C2_2  and  O1_3 
REMARK    2  A    between atoms: C2_2  and  C3_5 
REMARK    3  A    between atoms: C3_5  and  O2_6 
REMARK    4  A    between atoms: C3_5  and  C4_8 
REMARK    5  A    between atoms: C4_8  and  N1_9 
REMARK    6  A    between atoms: N1_9  and  C5_11 
REMARK    7  A    between atoms: N6_25  and  C10_26 
REMARK    8  A    between atoms: C10_26  and  C11_27 
REMARK    9  A    between atoms: C11_27  and  O3_28 
REMARK   10  A    between atoms: C11_27  and  C12_30 
REMARK   11  A    between atoms: C12_30  and  N7_31 
ROOT
HETATM    1  C5  UNL     1      42.487  28.958  16.161  1.00  0.00     0.151 A 
HETATM    2  N2  UNL     1      43.666  29.318  16.742  1.00  0.00    -0.174 N 
ATOM      3  H2  UNL     1      44.522  29.289  16.189  1.00  0.00     0.186 HD
HETATM    4  C6  UNL     1      43.729  29.708  18.023  1.00  0.00     0.679 A 
HETATM    5  N3  UNL     1      44.869  30.045  18.546  1.00  0.00    -0.234 N 
ATOM      6  H31 UNL     1      44.918  30.341  19.521  1.00  0.00     0.174 HD
ATOM      7  H32 UNL     1      45.697  30.001  17.953  1.00  0.00     0.174 HD
HETATM    8  N4  UNL     1      42.638  29.766  18.806  1.00  0.00    -0.174 N 
ATOM      9  H4  UNL     1      42.724  30.067  19.777  1.00  0.00     0.186 HD
HETATM   10  C7  UNL     1      41.421  29.425  18.307  1.00  0.00     0.155 A 
HETATM   11  C8  UNL     1      41.378  29.020  16.968  1.00  0.00     0.123 A 
HETATM   12  N5  UNL     1      40.109  28.739  16.732  1.00  0.00    -0.346 N 
ATOM     13  H5  UNL     1      39.738  28.411  15.840  1.00  0.00     0.167 HD
HETATM   14  C9  UNL     1      39.383  28.947  17.839  1.00  0.00     0.185 A 
HETATM   15  N6  UNL     1      40.190  29.380  18.843  1.00  0.00    -0.324 N 
ENDROOT
BRANCH   1  16
HETATM   16  N1  UNL     1      42.548  28.609  14.952  1.00  0.00    -0.351 N 
ATOM     17  H1  UNL     1      41.982  29.200  14.344  1.00  0.00     0.166 HD
BRANCH  16  18
HETATM   18  C4  UNL     1      43.214  27.597  14.251  1.00  0.00     0.096 C 
BRANCH  18  19
HETATM   19  C3  UNL     1      43.485  27.982  12.803  1.00  0.00     0.184 C 
BRANCH  19  20
HETATM   20  C2  UNL     1      42.329  27.510  11.940  1.00  0.00     0.148 C 
HETATM   21  C1  UNL     1      42.781  26.692  10.778  1.00  0.00     0.042 C 
BRANCH  20  22
HETATM   22  O1  UNL     1      41.448  26.791  12.717  1.00  0.00    -0.393 OA
ATOM     23  H1  UNL     1      40.556  26.933  12.421  1.00  0.00     0.210 HD
ENDBRANCH  20  22
ENDBRANCH  19  20
BRANCH  19  24
HETATM   24  O2  UNL     1      44.691  27.479  12.387  1.00  0.00    -0.388 OA
ATOM     25  H2  UNL     1      45.170  27.054  13.088  1.00  0.00     0.210 HD
ENDBRANCH  19  24
ENDBRANCH  18  19
ENDBRANCH  16  18
ENDBRANCH   1  16
BRANCH  15  26
HETATM   26  C10 UNL     1      39.784  29.734  20.182  1.00  0.00     0.164 C 
BRANCH  26  27
HETATM   27  C11 UNL     1      38.692  28.888  20.716  1.00  0.00     0.161 C 
BRANCH  27  28
HETATM   28  O3  UNL     1      39.218  28.051  21.727  1.00  0.00    -0.392 OA
ATOM     29  H3  UNL     1      38.811  27.195  21.657  1.00  0.00     0.210 HD
ENDBRANCH  27  28
BRANCH  27  30
HETATM   30  C12 UNL     1      37.580  29.730  21.262  1.00  0.00     0.262 C 
BRANCH  30  31
HETATM   31  N7  UNL     1      37.083  30.544  20.154  1.00  0.00    -0.077 N 
ATOM     32  H73 UNL     1      37.750  30.631  19.388  1.00  0.00     0.274 HD
ATOM     33  H72 UNL     1      36.337  30.090  19.626  1.00  0.00     0.274 HD
ATOM     34  H71 UNL     1      36.806  31.442  20.549  1.00  0.00     0.274 HD
ENDBRANCH  30  31
ENDBRANCH  27  30
ENDBRANCH  26  27
ENDBRANCH  15  26
TORSDOF 11
ENDMDL
MODEL 4
REMARK VINA RESULT: -7.431643800      3.181      4.849
REMARK  11 active torsions:
REMARK  status: ('A' for Active; 'I' for Inactive)
REMARK    1  A    between atoms: C2_2  and  O1_3 
REMARK    2  A    between atoms: C2_2  and  C3_5 
REMARK    3  A    between atoms: C3_5  and  O2_6 
REMARK    4  A    between atoms: C3_5  and  C4_8 
REMARK    5  A    between atoms: C4_8  and  N1_9 
REMARK    6  A    between atoms: N1_9  and  C5_11 
REMARK    7  A    between atoms: N6_25  and  C10_26 
REMARK    8  A    between atoms: C10_26  and  C11_27 
REMARK    9  A    between atoms: C11_27  and  O3_28 
REMARK   10  A    between atoms: C11_27  and  C12_30 
REMARK   11  A    between atoms: C12_30  and  N7_31 
ROOT
HETATM    1  C5  UNL     1      39.372  28.721  18.916  1.00  0.00     0.151 A 
HETATM    2  N2  UNL     1      39.550  27.423  19.292  1.00  0.00    -0.174 N 
ATOM      3  H2  UNL     1      40.241  26.855  18.802  1.00  0.00     0.186 HD
HETATM    4  C6  UNL     1      38.841  26.875  20.290  1.00  0.00     0.679 A 
HETATM    5  N3  UNL     1      39.037  25.635  20.623  1.00  0.00    -0.234 N 
ATOM      6  H31 UNL     1      38.498  25.218  21.381  1.00  0.00     0.174 HD
ATOM      7  H32 UNL     1      39.738  25.107  20.104  1.00  0.00     0.174 HD
HETATM    8  N4  UNL     1      37.917  27.570  20.973  1.00  0.00    -0.174 N 
ATOM      9  H4  UNL     1      37.395  27.120  21.726  1.00  0.00     0.186 HD
HETATM   10  C7  UNL     1      37.674  28.871  20.665  1.00  0.00     0.155 A 
HETATM   11  C8  UNL     1      38.425  29.423  19.621  1.00  0.00     0.123 A 
HETATM   12  N5  UNL     1      38.003  30.670  19.512  1.00  0.00    -0.346 N 
ATOM     13  H5  UNL     1      38.353  31.350  18.837  1.00  0.00     0.167 HD
HETATM   14  C9  UNL     1      37.048  30.909  20.422  1.00  0.00     0.185 A 
HETATM   15  N6  UNL     1      36.826  29.788  21.158  1.00  0.00    -0.324 N 
ENDROOT
BRANCH   1  16
HETATM   16  N1  UNL     1      40.093  29.128  17.968  1.00  0.00    -0.351 N 
ATOM     17  H1  UNL     1      40.392  30.096  18.089  1.00  0.00     0.166 HD
BRANCH  16  18
HETATM   18  C4  UNL     1      40.580  28.559  16.785  1.00  0.00     0.096 C 
BRANCH  18  19
HETATM   19  C3  UNL     1      41.948  29.107  16.403  1.00  0.00     0.184 C 
BRANCH  19  20
HETATM   20  C2  UNL     1      42.482  29.949  17.548  1.00  0.00     0.148 C 
HETATM   21  C1  UNL     1      43.970  29.898  17.647  1.00  0.00     0.042 C 
BRANCH  20  22
HETATM   22  O1  UNL     1      42.058  31.249  17.391  1.00  0.00    -0.393 OA
ATOM     23  H1  UNL     1      41.419  31.470  18.059  1.00  0.00     0.210 HD
ENDBRANCH  20  22
ENDBRANCH  19  20
BRANCH  19  24
HETATM   24  O2  UNL     1      41.877  29.807  15.225  1.00  0.00    -0.388 OA
ATOM     25  H2  UNL     1      42.683  30.269  15.027  1.00  0.00     0.210 HD
ENDBRANCH  19  24
ENDBRANCH  18  19
ENDBRANCH  16  18
ENDBRANCH   1  16
BRANCH  15  26
HETATM   26  C10 UNL     1      35.891  29.647  22.250  1.00  0.00     0.164 C 
BRANCH  26  27
HETATM   27  C11 UNL     1      36.536  29.602  23.582  1.00  0.00     0.161 C 
BRANCH  27  28
HETATM   28  O3  UNL     1      36.459  30.888  24.167  1.00  0.00    -0.392 OA
ATOM     29  H3  UNL     1      35.776  30.883  24.827  1.00  0.00     0.210 HD
ENDBRANCH  27  28
BRANCH  27  30
HETATM   30  C12 UNL     1      35.874  28.588  24.463  1.00  0.00     0.262 C 
BRANCH  30  31
HETATM   31  N7  UNL     1      34.883  27.896  23.642  1.00  0.00    -0.077 N 
ATOM     32  H73 UNL     1      33.997  28.396  23.575  1.00  0.00     0.274 HD
ATOM     33  H72 UNL     1      35.111  27.903  22.648  1.00  0.00     0.274 HD
ATOM     34  H71 UNL     1      34.786  26.956  24.025  1.00  0.00     0.274 HD
ENDBRANCH  30  31
ENDBRANCH  27  30
ENDBRANCH  26  27
ENDBRANCH  15  26
TORSDOF 11
ENDMDL
MODEL 5
REMARK VINA RESULT: -7.416579162      3.169      4.947
REMARK  11 active torsions:
REMARK  status: ('A' for Active; 'I' for Inactive)
REMARK    1  A    between atoms: C2_2  and  O1_3 
REMARK    2  A    between atoms: C2_2  and  C3_5 
REMARK    3  A    between atoms: C3_5  and  O2_6 
REMARK    4  A    between atoms: C3_5  and  C4_8 
REMARK    5  A    between atoms: C4_8  and  N1_9 
REMARK    6  A    between atoms: N1_9  and  C5_11 
REMARK    7  A    between atoms: N6_25  and  C10_26 
REMARK    8  A    between atoms: C10_26  and  C11_27 
REMARK    9  A    between atoms: C11_27  and  O3_28 
REMARK   10  A    between atoms: C11_27  and  C12_30 
REMARK   11  A    between atoms: C12_30  and  N7_31 
ROOT
HETATM    1  C5  UNL     1      39.266  28.624  19.113  1.00  0.00     0.151 A 
HETATM    2  N2  UNL     1      39.638  27.373  19.502  1.00  0.00    -0.174 N 
ATOM      3  H2  UNL     1      40.402  26.907  19.013  1.00  0.00     0.186 HD
HETATM    4  C6  UNL     1      39.025  26.738  20.512  1.00  0.00     0.679 A 
HETATM    5  N3  UNL     1      39.405  25.545  20.857  1.00  0.00    -0.234 N 
ATOM      6  H31 UNL     1      38.939  25.062  21.625  1.00  0.00     0.174 HD
ATOM      7  H32 UNL     1      40.174  25.121  20.339  1.00  0.00     0.174 HD
HETATM    8  N4  UNL     1      38.012  27.296  21.195  1.00  0.00    -0.174 N 
ATOM      9  H4  UNL     1      37.569  26.784  21.957  1.00  0.00     0.186 HD
HETATM   10  C7  UNL     1      37.577  28.543  20.874  1.00  0.00     0.155 A 
HETATM   11  C8  UNL     1      38.230  29.187  19.817  1.00  0.00     0.123 A 
HETATM   12  N5  UNL     1      37.627  30.356  19.698  1.00  0.00    -0.346 N 
ATOM     13  H5  UNL     1      37.867  31.072  19.012  1.00  0.00     0.167 HD
HETATM   14  C9  UNL     1      36.654  30.462  20.613  1.00  0.00     0.185 A 
HETATM   15  N6  UNL     1      36.605  29.330  21.364  1.00  0.00    -0.324 N 
ENDROOT
BRANCH   1  16
HETATM   16  N1  UNL     1      39.913  29.122  18.153  1.00  0.00    -0.351 N 
ATOM     17  H1  UNL     1      40.221  30.076  18.341  1.00  0.00     0.166 HD
BRANCH  16  18
HETATM   18  C4  UNL     1      40.306  28.668  16.889  1.00  0.00     0.096 C 
BRANCH  18  19
HETATM   19  C3  UNL     1      41.713  29.123  16.525  1.00  0.00     0.184 C 
BRANCH  19  20
HETATM   20  C2  UNL     1      42.277  29.949  17.667  1.00  0.00     0.148 C 
HETATM   21  C1  UNL     1      43.766  29.894  17.730  1.00  0.00     0.042 C 
BRANCH  20  22
HETATM   22  O1  UNL     1      41.852  31.252  17.536  1.00  0.00    -0.393 OA
ATOM     23  H1  UNL     1      41.019  31.373  17.975  1.00  0.00     0.210 HD
ENDBRANCH  20  22
ENDBRANCH  19  20
BRANCH  19  24
HETATM   24  O2  UNL     1      41.708  29.805  15.336  1.00  0.00    -0.388 OA
ATOM     25  H2  UNL     1      41.944  30.719  15.439  1.00  0.00     0.210 HD
ENDBRANCH  19  24
ENDBRANCH  18  19
ENDBRANCH  16  18
ENDBRANCH   1  16
BRANCH  15  26
HETATM   26  C10 UNL     1      35.710  29.065  22.465  1.00  0.00     0.164 C 
BRANCH  26  27
HETATM   27  C11 UNL     1      36.325  29.274  23.796  1.00  0.00     0.161 C 
BRANCH  27  28
HETATM   28  O3  UNL     1      36.984  28.084  24.184  1.00  0.00    -0.392 OA
ATOM     29  H3  UNL     1      37.626  28.294  24.852  1.00  0.00     0.210 HD
ENDBRANCH  27  28
BRANCH  27  30
HETATM   30  C12 UNL     1      37.291  30.418  23.765  1.00  0.00     0.262 C 
BRANCH  30  31
HETATM   31  N7  UNL     1      36.605  31.566  24.355  1.00  0.00    -0.077 N 
ATOM     32  H73 UNL     1      36.586  32.382  23.743  1.00  0.00     0.274 HD
ATOM     33  H72 UNL     1      35.596  31.436  24.430  1.00  0.00     0.274 HD
ATOM     34  H71 UNL     1      37.055  31.749  25.252  1.00  0.00     0.274 HD
ENDBRANCH  30  31
ENDBRANCH  27  30
ENDBRANCH  26  27
ENDBRANCH  15  26
TORSDOF 11
ENDMDL
