MODEL 1
REMARK VINA RESULT: -7.843252605      0.000      0.000
REMARK  13 active torsions:
REMARK  status: ('A' for Active; 'I' for Inactive)
REMARK    1  A    between atoms: N1_1  and  C1_4 
REMARK    2  A    between atoms: C2_7  and  N3_8 
REMARK    3  A    between atoms: N3_8  and  C3_10 
REMARK    4  A    between atoms: C3_10  and  C4_11 
REMARK    5  A    between atoms: C4_11  and  C5_12 
REMARK    6  A    between atoms: C5_12  and  C6_13 
REMARK    7  A    between atoms: C6_13  and  C7_14 
REMARK    8  A    between atoms: C7_14  and  O1_15 
REMARK    9  A    between atoms: C8_19  and  N5_20 
REMARK   10  A    between atoms: N5_20  and  O2_22 
REMARK   11  A    between atoms: O2_22  and  C9_23 
REMARK   12  A    between atoms: C11_25  and  N6_26 
REMARK   13  A    between atoms: C12_30  and  N7_31 
ROOT
HETATM    1  C1  UNL     1      43.151  29.426  17.114  1.00  0.00     0.705 A 
HETATM    2  N2  UNL     1      43.150  28.844  15.908  1.00  0.00    -0.022 N 
ATOM      3  H2  UNL     1      43.952  28.974  15.293  1.00  0.00     0.203 HD
HETATM    4  C2  UNL     1      42.116  28.090  15.487  1.00  0.00     0.707 A 
HETATM    5  N4  UNL     1      41.058  27.918  16.303  1.00  0.00    -0.020 N 
ATOM      6  H4  UNL     1      40.273  27.348  15.989  1.00  0.00     0.203 HD
HETATM    7  C8  UNL     1      41.015  28.488  17.533  1.00  0.00     0.731 A 
HETATM    8  N8  UNL     1      42.075  29.228  17.896  1.00  0.00    -0.020 N 
ATOM      9  H8  UNL     1      42.063  29.665  18.818  1.00  0.00     0.203 HD
ENDROOT
BRANCH   7  10
HETATM   10  N5  UNL     1      39.992  28.304  18.282  1.00  0.00    -0.093 N 
ATOM     11  H5  UNL     1      39.899  27.417  18.778  1.00  0.00     0.213 HD
BRANCH  10  12
HETATM   12  O2  UNL     1      39.032  29.243  18.439  1.00  0.00    -0.233 OA
BRANCH  12  13
HETATM   13  C9  UNL     1      38.561  29.696  19.711  1.00  0.00     0.294 C 
HETATM   14  C10 UNL     1      38.886  28.596  20.701  1.00  0.00     0.100 C 
HETATM   15  C11 UNL     1      37.526  27.911  20.811  1.00  0.00     0.244 C 
HETATM   16  C12 UNL     1      36.631  29.154  20.706  1.00  0.00     0.351 C 
HETATM   17  O3  UNL     1      37.202  29.804  19.631  1.00  0.00    -0.325 OA
BRANCH  15  18
HETATM   18  N6  UNL     1      37.362  27.261  22.086  1.00  0.00    -0.071 N 
ATOM     19  H63 UNL     1      36.911  26.352  21.985  1.00  0.00     0.274 HD
ATOM     20  H62 UNL     1      38.258  26.953  22.465  1.00  0.00     0.274 HD
ATOM     21  H61 UNL     1      36.861  27.854  22.747  1.00  0.00     0.274 HD
ENDBRANCH  15  18
BRANCH  16  22
HETATM   22  N7  UNL     1      35.269  28.770  20.495  1.00  0.00    -0.051 N 
ATOM     23  H73 UNL     1      34.686  29.566  20.236  1.00  0.00     0.277 HD
ATOM     24  H72 UNL     1      35.157  28.218  19.645  1.00  0.00     0.277 HD
ATOM     25  H71 UNL     1      34.906  28.284  21.315  1.00  0.00     0.277 HD
ENDBRANCH  16  22
ENDBRANCH  12  13
ENDBRANCH  10  12
ENDBRANCH   7  10
BRANCH   4  26
HETATM   26  N3  UNL     1      42.072  27.515  14.341  1.00  0.00    -0.225 N 
ATOM     27  H3  UNL     1      41.235  27.670  13.781  1.00  0.00     0.177 HD
BRANCH  26  28
HETATM   28  C3  UNL     1      43.073  26.685  13.776  1.00  0.00     0.138 C 
BRANCH  28  29
HETATM   29  C4  UNL     1      42.613  25.688  12.756  1.00  0.00     0.020 C 
BRANCH  29  30
HETATM   30  C5  UNL     1      41.367  26.004  12.025  1.00  0.00     0.004 C 
BRANCH  30  31
HETATM   31  C6  UNL     1      40.194  25.102  12.251  1.00  0.00     0.026 C 
BRANCH  31  32
HETATM   32  C7  UNL     1      40.771  23.760  12.750  1.00  0.00     0.164 C 
BRANCH  32  33
HETATM   33  O1  UNL     1      39.813  22.761  12.647  1.00  0.00    -0.401 OA
ATOM     34  H1  UNL     1      40.233  21.910  12.592  1.00  0.00     0.209 HD
ENDBRANCH  32  33
ENDBRANCH  31  32
ENDBRANCH  30  31
ENDBRANCH  29  30
ENDBRANCH  28  29
ENDBRANCH  26  28
ENDBRANCH   4  26
BRANCH   1  35
HETATM   35  N1  UNL     1      44.150  30.140  17.491  1.00  0.00    -0.234 N 
ATOM     36  H12 UNL     1      45.004  30.218  16.938  1.00  0.00     0.174 HD
ATOM     37  H11 UNL     1      44.114  30.656  18.370  1.00  0.00     0.174 HD
ENDBRANCH   1  35
TORSDOF 13
ENDMDL
MODEL 2
REMARK VINA RESULT: -7.776619589      1.027      1.203
REMARK  13 active torsions:
REMARK  status: ('A' for Active; 'I' for Inactive)
REMARK    1  A    between atoms: N1_1  and  C1_4 
REMARK    2  A    between atoms: C2_7  and  N3_8 
REMARK    3  A    between atoms: N3_8  and  C3_10 
REMARK    4  A    between atoms: C3_10  and  C4_11 
REMARK    5  A    between atoms: C4_11  and  C5_12 
REMARK    6  A    between atoms: C5_12  and  C6_13 
REMARK    7  A    between atoms: C6_13  and  C7_14 
REMARK    8  A    between atoms: C7_14  and  O1_15 
REMARK    9  A    between atoms: C8_19  and  N5_20 
REMARK   10  A    between atoms: N5_20  and  O2_22 
REMARK   11  A    between atoms: O2_22  and  C9_23 
REMARK   12  A    between atoms: C11_25  and  N6_26 
REMARK   13  A    between atoms: C12_30  and  N7_31 
ROOT
HETATM    1  C1  UNL     1      43.199  29.599  17.161  1.00  0.00     0.705 A 
HETATM    2  N2  UNL     1      43.456  28.762  16.148  1.00  0.00    -0.022 N 
ATOM      3  H2  UNL     1      44.407  28.701  15.784  1.00  0.00     0.203 HD
HETATM    4  C2  UNL     1      42.493  27.997  15.598  1.00  0.00     0.707 A 
HETATM    5  N4  UNL     1      41.239  28.079  16.082  1.00  0.00    -0.020 N 
ATOM      6  H4  UNL     1      40.506  27.502  15.670  1.00  0.00     0.203 HD
HETATM    7  C8  UNL     1      40.931  28.913  17.108  1.00  0.00     0.731 A 
HETATM    8  N8  UNL     1      41.933  29.648  17.614  1.00  0.00    -0.020 N 
ATOM      9  H8  UNL     1      41.722  30.281  18.385  1.00  0.00     0.203 HD
ENDROOT
BRANCH   7  10
HETATM   10  N5  UNL     1      39.727  28.964  17.543  1.00  0.00    -0.093 N 
ATOM     11  H5  UNL     1      39.024  29.456  16.990  1.00  0.00     0.213 HD
BRANCH  10  12
HETATM   12  O2  UNL     1      39.354  28.391  18.710  1.00  0.00    -0.233 OA
BRANCH  12  13
HETATM   13  C9  UNL     1      38.811  29.117  19.816  1.00  0.00     0.294 C 
HETATM   14  C10 UNL     1      38.916  28.201  21.018  1.00  0.00     0.100 C 
HETATM   15  C11 UNL     1      37.486  27.671  21.089  1.00  0.00     0.244 C 
HETATM   16  C12 UNL     1      36.745  28.944  20.658  1.00  0.00     0.351 C 
HETATM   17  O3  UNL     1      37.486  29.325  19.558  1.00  0.00    -0.325 OA
BRANCH  15  18
HETATM   18  N6  UNL     1      37.128  27.292  22.432  1.00  0.00    -0.071 N 
ATOM     19  H63 UNL     1      37.924  27.365  23.065  1.00  0.00     0.274 HD
ATOM     20  H62 UNL     1      36.517  27.987  22.864  1.00  0.00     0.274 HD
ATOM     21  H61 UNL     1      36.713  26.361  22.460  1.00  0.00     0.274 HD
ENDBRANCH  15  18
BRANCH  16  22
HETATM   22  N7  UNL     1      35.377  28.648  20.361  1.00  0.00    -0.051 N 
ATOM     23  H73 UNL     1      35.290  27.990  19.586  1.00  0.00     0.277 HD
ATOM     24  H72 UNL     1      34.944  28.081  21.090  1.00  0.00     0.277 HD
ATOM     25  H71 UNL     1      34.856  29.508  20.189  1.00  0.00     0.277 HD
ENDBRANCH  16  22
ENDBRANCH  12  13
ENDBRANCH  10  12
ENDBRANCH   7  10
BRANCH   4  26
HETATM   26  N3  UNL     1      42.695  27.184  14.628  1.00  0.00    -0.225 N 
ATOM     27  H3  UNL     1      42.072  26.378  14.566  1.00  0.00     0.177 HD
BRANCH  26  28
HETATM   28  C3  UNL     1      43.698  27.292  13.632  1.00  0.00     0.138 C 
BRANCH  28  29
HETATM   29  C4  UNL     1      43.809  26.147  12.672  1.00  0.00     0.020 C 
BRANCH  29  30
HETATM   30  C5  UNL     1      43.227  26.342  11.326  1.00  0.00     0.004 C 
BRANCH  30  31
HETATM   31  C6  UNL     1      41.798  26.783  11.257  1.00  0.00     0.026 C 
BRANCH  31  32
HETATM   32  C7  UNL     1      40.959  25.622  11.832  1.00  0.00     0.164 C 
BRANCH  32  33
HETATM   33  O1  UNL     1      40.367  26.007  13.027  1.00  0.00    -0.401 OA
ATOM     34  H1  UNL     1      39.689  25.388  13.270  1.00  0.00     0.209 HD
ENDBRANCH  32  33
ENDBRANCH  31  32
ENDBRANCH  30  31
ENDBRANCH  29  30
ENDBRANCH  28  29
ENDBRANCH  26  28
ENDBRANCH   4  26
BRANCH   1  35
HETATM   35  N1  UNL     1      44.136  30.316  17.667  1.00  0.00    -0.234 N 
ATOM     36  H12 UNL     1      45.123  30.119  17.501  1.00  0.00     0.174 HD
ATOM     37  H11 UNL     1      43.912  31.116  18.259  1.00  0.00     0.174 HD
ENDBRANCH   1  35
TORSDOF 13
ENDMDL
MODEL 3
REMARK VINA RESULT: -7.623910737      3.159      4.679
REMARK  13 active torsions:
REMARK  status: ('A' for Active; 'I' for Inactive)
REMARK    1  A    between atoms: N1_1  and  C1_4 
REMARK    2  A    between atoms: C2_7  and  N3_8 
REMARK    3  A    between atoms: N3_8  and  C3_10 
REMARK    4  A    between atoms: C3_10  and  C4_11 
REMARK    5  A    between atoms: C4_11  and  C5_12 
REMARK    6  A    between atoms: C5_12  and  C6_13 
REMARK    7  A    between atoms: C6_13  and  C7_14 
REMARK    8  A    between atoms: C7_14  and  O1_15 
REMARK    9  A    between atoms: C8_19  and  N5_20 
REMARK   10  A    between atoms: N5_20  and  O2_22 
REMARK   11  A    between atoms: O2_22  and  C9_23 
REMARK   12  A    between atoms: C11_25  and  N6_26 
REMARK   13  A    between atoms: C12_30  and  N7_31 
ROOT
HETATM    1  C1  UNL     1      41.103  28.606  17.621  1.00  0.00     0.705 A 
HETATM    2  N2  UNL     1      41.158  28.095  16.384  1.00  0.00    -0.022 N 
ATOM      3  H2  UNL     1      40.358  27.573  16.027  1.00  0.00     0.203 HD
HETATM    4  C2  UNL     1      42.241  28.253  15.600  1.00  0.00     0.707 A 
HETATM    5  N4  UNL     1      43.295  28.945  16.074  1.00  0.00    -0.020 N 
ATOM      6  H4  UNL     1      44.118  29.068  15.484  1.00  0.00     0.203 HD
HETATM    7  C8  UNL     1      43.285  29.480  17.321  1.00  0.00     0.731 A 
HETATM    8  N8  UNL     1      42.177  29.289  18.054  1.00  0.00    -0.020 N 
ATOM      9  H8  UNL     1      42.149  29.684  18.994  1.00  0.00     0.203 HD
ENDROOT
BRANCH   7  10
HETATM   10  N5  UNL     1      44.306  30.132  17.739  1.00  0.00    -0.093 N 
ATOM     11  H5  UNL     1      44.474  31.070  17.375  1.00  0.00     0.213 HD
BRANCH  10  12
HETATM   12  O2  UNL     1      45.168  29.620  18.647  1.00  0.00    -0.233 OA
BRANCH  12  13
HETATM   13  C9  UNL     1      45.299  30.109  19.985  1.00  0.00     0.294 C 
HETATM   14  C10 UNL     1      45.954  28.999  20.781  1.00  0.00     0.100 C 
HETATM   15  C11 UNL     1      44.733  28.397  21.473  1.00  0.00     0.244 C 
HETATM   16  C12 UNL     1      43.941  29.689  21.713  1.00  0.00     0.351 C 
HETATM   17  O3  UNL     1      44.039  30.296  20.477  1.00  0.00    -0.325 OA
BRANCH  15  18
HETATM   18  N6  UNL     1      45.087  27.767  22.719  1.00  0.00    -0.071 N 
ATOM     19  H63 UNL     1      46.027  28.029  23.015  1.00  0.00     0.274 HD
ATOM     20  H62 UNL     1      44.560  28.161  23.498  1.00  0.00     0.274 HD
ATOM     21  H61 UNL     1      44.981  26.754  22.670  1.00  0.00     0.274 HD
ENDBRANCH  15  18
BRANCH  16  22
HETATM   22  N7  UNL     1      42.599  29.385  22.105  1.00  0.00    -0.051 N 
ATOM     23  H73 UNL     1      42.380  28.397  21.978  1.00  0.00     0.277 HD
ATOM     24  H72 UNL     1      42.477  29.438  23.117  1.00  0.00     0.277 HD
ATOM     25  H71 UNL     1      41.939  29.987  21.611  1.00  0.00     0.277 HD
ENDBRANCH  16  22
ENDBRANCH  12  13
ENDBRANCH  10  12
ENDBRANCH   7  10
BRANCH   4  26
HETATM   26  N3  UNL     1      42.336  27.782  14.411  1.00  0.00    -0.225 N 
ATOM     27  H3  UNL     1      41.688  27.035  14.160  1.00  0.00     0.177 HD
BRANCH  26  28
HETATM   28  C3  UNL     1      43.252  28.195  13.411  1.00  0.00     0.138 C 
BRANCH  28  29
HETATM   29  C4  UNL     1      44.023  27.109  12.725  1.00  0.00     0.020 C 
BRANCH  29  30
HETATM   30  C5  UNL     1      43.239  26.030  12.088  1.00  0.00     0.004 C 
BRANCH  30  31
HETATM   31  C6  UNL     1      42.099  26.441  11.208  1.00  0.00     0.026 C 
BRANCH  31  32
HETATM   32  C7  UNL     1      40.859  25.679  11.721  1.00  0.00     0.164 C 
BRANCH  32  33
HETATM   33  O1  UNL     1      40.581  26.045  13.030  1.00  0.00    -0.401 OA
ATOM     34  H1  UNL     1      39.649  25.971  13.199  1.00  0.00     0.209 HD
ENDBRANCH  32  33
ENDBRANCH  31  32
ENDBRANCH  30  31
ENDBRANCH  29  30
ENDBRANCH  28  29
ENDBRANCH  26  28
ENDBRANCH   4  26
BRANCH   1  35
HETATM   35  N1  UNL     1      40.057  28.440  18.348  1.00  0.00    -0.234 N 
ATOM     36  H12 UNL     1      39.282  27.843  18.059  1.00  0.00     0.174 HD
ATOM     37  H11 UNL     1      39.975  28.909  19.250  1.00  0.00     0.174 HD
ENDBRANCH   1  35
TORSDOF 13
ENDMDL
MODEL 4
REMARK VINA RESULT: -7.615385926      3.290      4.987
REMARK  13 active torsions:
REMARK  status: ('A' for Active; 'I' for Inactive)
REMARK    1  A    between atoms: N1_1  and  C1_4 
REMARK    2  A    between atoms: C2_7  and  N3_8 
REMARK    3  A    between atoms: N3_8  and  C3_10 
REMARK    4  A    between atoms: C3_10  and  C4_11 
REMARK    5  A    between atoms: C4_11  and  C5_12 
REMARK    6  A    between atoms: C5_12  and  C6_13 
REMARK    7  A    between atoms: C6_13  and  C7_14 
REMARK    8  A    between atoms: C7_14  and  O1_15 
REMARK    9  A    between atoms: C8_19  and  N5_20 
REMARK   10  A    between atoms: N5_20  and  O2_22 
REMARK   11  A    between atoms: O2_22  and  C9_23 
REMARK   12  A    between atoms: C11_25  and  N6_26 
REMARK   13  A    between atoms: C12_30  and  N7_31 
ROOT
HETATM    1  C1  UNL     1      41.047  28.852  16.886  1.00  0.00     0.705 A 
HETATM    2  N2  UNL     1      41.361  27.996  15.905  1.00  0.00    -0.022 N 
ATOM      3  H2  UNL     1      40.621  27.446  15.471  1.00  0.00     0.203 HD
HETATM    4  C2  UNL     1      42.629  27.844  15.476  1.00  0.00     0.707 A 
HETATM    5  N4  UNL     1      43.605  28.574  16.051  1.00  0.00    -0.020 N 
ATOM      6  H4  UNL     1      44.566  28.463  15.730  1.00  0.00     0.203 HD
HETATM    7  C8  UNL     1      43.334  29.453  17.048  1.00  0.00     0.731 A 
HETATM    8  N8  UNL     1      42.052  29.560  17.431  1.00  0.00    -0.020 N 
ATOM      9  H8  UNL     1      41.828  30.216  18.180  1.00  0.00     0.203 HD
ENDROOT
BRANCH   7  10
HETATM   10  N5  UNL     1      44.287  30.131  17.572  1.00  0.00    -0.093 N 
ATOM     11  H5  UNL     1      44.572  31.004  17.128  1.00  0.00     0.213 HD
BRANCH  10  12
HETATM   12  O2  UNL     1      44.928  29.729  18.693  1.00  0.00    -0.233 OA
BRANCH  12  13
HETATM   13  C9  UNL     1      44.385  29.858  20.010  1.00  0.00     0.294 C 
HETATM   14  C10 UNL     1      45.449  30.542  20.844  1.00  0.00     0.100 C 
HETATM   15  C11 UNL     1      46.051  29.339  21.567  1.00  0.00     0.244 C 
HETATM   16  C12 UNL     1      44.767  28.520  21.763  1.00  0.00     0.351 C 
HETATM   17  O3  UNL     1      44.206  28.598  20.505  1.00  0.00    -0.325 OA
BRANCH  15  18
HETATM   18  N6  UNL     1      46.625  29.715  22.833  1.00  0.00    -0.071 N 
ATOM     19  H63 UNL     1      47.621  29.916  22.746  1.00  0.00     0.274 HD
ATOM     20  H62 UNL     1      46.302  30.637  23.130  1.00  0.00     0.274 HD
ATOM     21  H61 UNL     1      46.448  29.010  23.549  1.00  0.00     0.274 HD
ENDBRANCH  15  18
BRANCH  16  22
HETATM   22  N7  UNL     1      45.085  27.188  22.176  1.00  0.00    -0.051 N 
ATOM     23  H73 UNL     1      45.316  27.143  23.169  1.00  0.00     0.277 HD
ATOM     24  H72 UNL     1      44.261  26.586  22.185  1.00  0.00     0.277 HD
ATOM     25  H71 UNL     1      45.830  26.803  21.594  1.00  0.00     0.277 HD
ENDBRANCH  16  22
ENDBRANCH  12  13
ENDBRANCH  10  12
ENDBRANCH   7  10
BRANCH   4  26
HETATM   26  N3  UNL     1      42.974  27.037  14.541  1.00  0.00    -0.225 N 
ATOM     27  H3  UNL     1      43.511  26.216  14.818  1.00  0.00     0.177 HD
BRANCH  26  28
HETATM   28  C3  UNL     1      42.683  27.174  13.160  1.00  0.00     0.138 C 
BRANCH  28  29
HETATM   29  C4  UNL     1      42.291  25.923  12.436  1.00  0.00     0.020 C 
BRANCH  29  30
HETATM   30  C5  UNL     1      40.988  25.935  11.736  1.00  0.00     0.004 C 
BRANCH  30  31
HETATM   31  C6  UNL     1      39.946  24.971  12.215  1.00  0.00     0.026 C 
BRANCH  31  32
HETATM   32  C7  UNL     1      40.707  23.731  12.729  1.00  0.00     0.164 C 
BRANCH  32  33
HETATM   33  O1  UNL     1      39.878  22.619  12.707  1.00  0.00    -0.401 OA
ATOM     34  H1  UNL     1      38.967  22.890  12.720  1.00  0.00     0.209 HD
ENDBRANCH  32  33
ENDBRANCH  31  32
ENDBRANCH  30  31
ENDBRANCH  29  30
ENDBRANCH  28  29
ENDBRANCH  26  28
ENDBRANCH   4  26
BRANCH   1  35
HETATM   35  N1  UNL     1      39.830  28.977  17.276  1.00  0.00    -0.234 N 
ATOM     36  H12 UNL     1      39.061  29.127  16.622  1.00  0.00     0.174 HD
ATOM     37  H11 UNL     1      39.597  28.929  18.267  1.00  0.00     0.174 HD
ENDBRANCH   1  35
TORSDOF 13
ENDMDL
MODEL 5
REMARK VINA RESULT: -7.599587120      2.546      7.902
REMARK  13 active torsions:
REMARK  status: ('A' for Active; 'I' for Inactive)
REMARK    1  A    between atoms: N1_1  and  C1_4 
REMARK    2  A    between atoms: C2_7  and  N3_8 
REMARK    3  A    between atoms: N3_8  and  C3_10 
REMARK    4  A    between atoms: C3_10  and  C4_11 
REMARK    5  A    between atoms: C4_11  and  C5_12 
REMARK    6  A    between atoms: C5_12  and  C6_13 
REMARK    7  A    between atoms: C6_13  and  C7_14 
REMARK    8  A    between atoms: C7_14  and  O1_15 
REMARK    9  A    between atoms: C8_19  and  N5_20 
REMARK   10  A    between atoms: N5_20  and  O2_22 
REMARK   11  A    between atoms: O2_22  and  C9_23 
REMARK   12  A    between atoms: C11_25  and  N6_26 
REMARK   13  A    between atoms: C12_30  and  N7_31 
ROOT
HETATM    1  C1  UNL     1      39.480  30.218  18.023  1.00  0.00     0.705 A 
HETATM    2  N2  UNL     1      39.487  29.504  19.157  1.00  0.00    -0.022 N 
ATOM      3  H2  UNL     1      39.005  29.871  19.977  1.00  0.00     0.203 HD
HETATM    4  C2  UNL     1      40.113  28.315  19.241  1.00  0.00     0.707 A 
HETATM    5  N4  UNL     1      40.749  27.833  18.155  1.00  0.00    -0.020 N 
ATOM      6  H4  UNL     1      41.224  26.933  18.213  1.00  0.00     0.203 HD
HETATM    7  C8  UNL     1      40.768  28.521  16.986  1.00  0.00     0.731 A 
HETATM    8  N8  UNL     1      40.126  29.699  16.964  1.00  0.00    -0.020 N 
ATOM      9  H8  UNL     1      40.128  30.232  16.094  1.00  0.00     0.203 HD
ENDROOT
BRANCH   7  10
HETATM   10  N5  UNL     1      41.382  28.032  15.973  1.00  0.00    -0.093 N 
ATOM     11  H5  UNL     1      41.100  27.118  15.620  1.00  0.00     0.213 HD
BRANCH  10  12
HETATM   12  O2  UNL     1      42.393  28.686  15.356  1.00  0.00    -0.233 OA
BRANCH  12  13
HETATM   13  C9  UNL     1      43.468  28.031  14.678  1.00  0.00     0.294 C 
HETATM   14  C10 UNL     1      43.266  28.299  13.200  1.00  0.00     0.100 C 
HETATM   15  C11 UNL     1      42.626  26.983  12.764  1.00  0.00     0.244 C 
HETATM   16  C12 UNL     1      43.411  26.030  13.677  1.00  0.00     0.351 C 
HETATM   17  O3  UNL     1      43.327  26.689  14.886  1.00  0.00    -0.325 OA
BRANCH  15  18
HETATM   18  N6  UNL     1      42.886  26.703  11.376  1.00  0.00    -0.071 N 
ATOM     19  H63 UNL     1      42.294  25.947  11.031  1.00  0.00     0.274 HD
ATOM     20  H62 UNL     1      42.550  27.455  10.774  1.00  0.00     0.274 HD
ATOM     21  H61 UNL     1      43.873  26.506  11.212  1.00  0.00     0.274 HD
ENDBRANCH  15  18
BRANCH  16  22
HETATM   22  N7  UNL     1      42.808  24.733  13.679  1.00  0.00    -0.051 N 
ATOM     23  H73 UNL     1      42.474  24.471  14.607  1.00  0.00     0.277 HD
ATOM     24  H72 UNL     1      41.913  24.729  13.189  1.00  0.00     0.277 HD
ATOM     25  H71 UNL     1      43.453  24.041  13.297  1.00  0.00     0.277 HD
ENDBRANCH  16  22
ENDBRANCH  12  13
ENDBRANCH  10  12
ENDBRANCH   7  10
BRANCH   4  26
HETATM   26  N3  UNL     1      40.146  27.600  20.305  1.00  0.00    -0.225 N 
ATOM     27  H3  UNL     1      40.997  27.646  20.864  1.00  0.00     0.177 HD
BRANCH  26  28
HETATM   28  C3  UNL     1      39.116  26.750  20.781  1.00  0.00     0.138 C 
BRANCH  28  29
HETATM   29  C4  UNL     1      38.025  27.405  21.571  1.00  0.00     0.020 C 
BRANCH  29  30
HETATM   30  C5  UNL     1      36.657  27.333  21.013  1.00  0.00     0.004 C 
BRANCH  30  31
HETATM   31  C6  UNL     1      36.210  28.474  20.152  1.00  0.00     0.026 C 
BRANCH  31  32
HETATM   32  C7  UNL     1      36.523  29.762  20.943  1.00  0.00     0.164 C 
BRANCH  32  33
HETATM   33  O1  UNL     1      36.576  30.849  20.083  1.00  0.00    -0.401 OA
ATOM     34  H1  UNL     1      36.567  31.659  20.579  1.00  0.00     0.209 HD
ENDBRANCH  32  33
ENDBRANCH  31  32
ENDBRANCH  30  31
ENDBRANCH  29  30
ENDBRANCH  28  29
ENDBRANCH  26  28
ENDBRANCH   4  26
BRANCH   1  35
HETATM   35  N1  UNL     1      38.873  31.349  17.971  1.00  0.00    -0.234 N 
ATOM     36  H12 UNL     1      38.673  31.900  18.806  1.00  0.00     0.174 HD
ATOM     37  H11 UNL     1      38.573  31.732  17.075  1.00  0.00     0.174 HD
ENDBRANCH   1  35
TORSDOF 13
ENDMDL
