MODEL 1
REMARK VINA RESULT: -7.370709121      0.000      0.000
REMARK  10 active torsions:
REMARK  status: ('A' for Active; 'I' for Inactive)
REMARK    1  A    between atoms: C4_8  and  N3_9 
REMARK    2  A    between atoms: C5_14  and  N5_15 
REMARK    3  A    between atoms: C9_25  and  N8_26 
REMARK    4  A    between atoms: C11_30  and  N9_31 
REMARK    5  A    between atoms: N9_31  and  C12_34 
REMARK    6  A    between atoms: C12_34  and  C13_35 
REMARK    7  A    between atoms: C13_35  and  O1_36 
REMARK    8  A    between atoms: O1_36  and  C14_37 
REMARK    9  A    between atoms: C14_37  and  C15_38 
REMARK   10  A    between atoms: C15_38  and  N10_39 
ROOT
HETATM    1  C1  UNL     1      40.161  32.877  22.466  1.00  0.00     0.066 C 
HETATM    2  C2  UNL     1      39.311  31.640  22.289  1.00  0.00     0.019 A 
HETATM    3  N1  UNL     1      38.693  31.376  23.370  1.00  0.00    -0.346 N 
ATOM      4  H1  UNL     1      38.890  32.036  24.121  1.00  0.00     0.167 HD
HETATM    5  C3  UNL     1      37.785  30.350  23.742  1.00  0.00     0.137 A 
HETATM    6  N2  UNL     1      37.317  30.463  25.000  1.00  0.00    -0.176 N 
ATOM      7  H2  UNL     1      37.633  31.247  25.570  1.00  0.00     0.186 HD
HETATM    8  C4  UNL     1      36.451  29.588  25.535  1.00  0.00     0.679 A 
HETATM    9  N4  UNL     1      36.004  28.525  24.804  1.00  0.00    -0.176 N 
ATOM     10  H4  UNL     1      35.346  27.853  25.199  1.00  0.00     0.186 HD
HETATM   11  C5  UNL     1      36.463  28.392  23.537  1.00  0.00     0.131 A 
HETATM   12  C6  UNL     1      37.346  29.283  22.989  1.00  0.00     0.080 A 
HETATM   13  C7  UNL     1      37.753  29.018  21.613  1.00  0.00     0.063 A 
HETATM   14  N6  UNL     1      37.171  27.880  21.196  1.00  0.00    -0.351 N 
ATOM     15  H6  UNL     1      36.556  27.347  21.813  1.00  0.00     0.166 HD
HETATM   16  C8  UNL     1      37.421  27.465  19.946  1.00  0.00     0.182 A 
HETATM   17  N7  UNL     1      38.226  28.159  19.128  1.00  0.00    -0.338 N 
ATOM     18  H7  UNL     1      38.387  27.805  18.185  1.00  0.00     0.168 HD
HETATM   19  C9  UNL     1      38.827  29.296  19.499  1.00  0.00     0.110 A 
HETATM   20  C10 UNL     1      38.593  29.762  20.795  1.00  0.00     0.049 A 
HETATM   21  C11 UNL     1      39.335  30.998  20.997  1.00  0.00     0.269 A 
ENDROOT
BRANCH  21  22
HETATM   22  N9  UNL     1      40.683  30.816  20.476  1.00  0.00    -0.060 N 
ATOM     23  H92 UNL     1      40.673  30.215  19.652  1.00  0.00     0.278 HD
ATOM     24  H91 UNL     1      41.027  31.678  20.053  1.00  0.00     0.278 HD
BRANCH  22  25
HETATM   25  C12 UNL     1      41.609  30.325  21.446  1.00  0.00     0.259 C 
BRANCH  25  26
HETATM   26  C13 UNL     1      42.485  29.279  20.691  1.00  0.00     0.195 C 
BRANCH  26  27
HETATM   27  O1  UNL     1      42.577  29.581  19.386  1.00  0.00    -0.388 OA
BRANCH  27  28
HETATM   28  C14 UNL     1      43.107  28.638  18.580  1.00  0.00     0.195 C 
BRANCH  28  29
HETATM   29  C15 UNL     1      43.520  29.039  17.199  1.00  0.00     0.255 C 
BRANCH  29  30
HETATM   30  N10 UNL     1      44.880  28.824  16.848  1.00  0.00    -0.077 N 
ATOM     31 3H10 UNL     1      45.125  27.847  17.016  1.00  0.00     0.274 HD
ATOM     32 2H10 UNL     1      44.982  28.871  15.834  1.00  0.00     0.274 HD
ATOM     33 1H10 UNL     1      45.572  29.430  17.289  1.00  0.00     0.274 HD
ENDBRANCH  29  30
ENDBRANCH  28  29
ENDBRANCH  27  28
ENDBRANCH  26  27
ENDBRANCH  25  26
ENDBRANCH  22  25
ENDBRANCH  21  22
BRANCH  19  34
HETATM   34  N8  UNL     1      39.592  29.933  18.681  1.00  0.00    -0.385 N 
ATOM     35  H82 UNL     1      39.417  29.932  17.676  1.00  0.00     0.157 HD
ATOM     36  H81 UNL     1      40.399  30.456  19.023  1.00  0.00     0.157 HD
ENDBRANCH  19  34
BRANCH  11  37
HETATM   37  N5  UNL     1      36.054  27.402  22.843  1.00  0.00    -0.384 N 
ATOM     38  H52 UNL     1      36.507  26.493  22.946  1.00  0.00     0.157 HD
ATOM     39  H51 UNL     1      35.277  27.548  22.198  1.00  0.00     0.157 HD
ENDBRANCH  11  37
BRANCH   8  40
HETATM   40  N3  UNL     1      36.021  29.731  26.751  1.00  0.00    -0.234 N 
ATOM     41  H32 UNL     1      36.245  30.592  27.250  1.00  0.00     0.174 HD
ATOM     42  H31 UNL     1      35.472  29.000  27.204  1.00  0.00     0.174 HD
ENDBRANCH   8  40
TORSDOF 10
ENDMDL
MODEL 2
REMARK VINA RESULT: -7.269984082      2.429      8.116
REMARK  10 active torsions:
REMARK  status: ('A' for Active; 'I' for Inactive)
REMARK    1  A    between atoms: C4_8  and  N3_9 
REMARK    2  A    between atoms: C5_14  and  N5_15 
REMARK    3  A    between atoms: C9_25  and  N8_26 
REMARK    4  A    between atoms: C11_30  and  N9_31 
REMARK    5  A    between atoms: N9_31  and  C12_34 
REMARK    6  A    between atoms: C12_34  and  C13_35 
REMARK    7  A    between atoms: C13_35  and  O1_36 
REMARK    8  A    between atoms: O1_36  and  C14_37 
REMARK    9  A    between atoms: C14_37  and  C15_38 
REMARK   10  A    between atoms: C15_38  and  N10_39 
ROOT
HETATM    1  C1  UNL     1      38.294  28.256  18.728  1.00  0.00     0.066 C 
HETATM    2  C2  UNL     1      39.786  28.452  18.591  1.00  0.00     0.019 A 
HETATM    3  N1  UNL     1      40.168  28.096  17.430  1.00  0.00    -0.346 N 
ATOM      4  H1  UNL     1      39.410  27.757  16.839  1.00  0.00     0.167 HD
HETATM    5  C3  UNL     1      41.436  28.074  16.791  1.00  0.00     0.137 A 
HETATM    6  N2  UNL     1      41.396  27.656  15.511  1.00  0.00    -0.176 N 
ATOM      7  H2  UNL     1      40.495  27.399  15.109  1.00  0.00     0.186 HD
HETATM    8  C4  UNL     1      42.492  27.565  14.742  1.00  0.00     0.679 A 
HETATM    9  N4  UNL     1      43.717  27.901  15.242  1.00  0.00    -0.176 N 
ATOM     10  H4  UNL     1      44.558  27.836  14.668  1.00  0.00     0.186 HD
HETATM   11  C5  UNL     1      43.779  28.323  16.527  1.00  0.00     0.131 A 
HETATM   12  C6  UNL     1      42.663  28.417  17.315  1.00  0.00     0.080 A 
HETATM   13  C7  UNL     1      42.877  28.890  18.679  1.00  0.00     0.063 A 
HETATM   14  N6  UNL     1      44.193  29.093  18.869  1.00  0.00    -0.351 N 
ATOM     15  H6  UNL     1      44.866  28.916  18.122  1.00  0.00     0.166 HD
HETATM   16  C8  UNL     1      44.595  29.534  20.069  1.00  0.00     0.182 A 
HETATM   17  N7  UNL     1      43.719  29.770  21.056  1.00  0.00    -0.338 N 
ATOM     18  H7  UNL     1      44.071  30.106  21.953  1.00  0.00     0.168 HD
HETATM   19  C9  UNL     1      42.402  29.583  20.913  1.00  0.00     0.110 A 
HETATM   20  C10 UNL     1      41.941  29.122  19.677  1.00  0.00     0.049 A 
HETATM   21  C11 UNL     1      40.493  28.983  19.731  1.00  0.00     0.269 A 
ENDROOT
BRANCH  21  22
HETATM   22  N9  UNL     1      40.141  28.321  20.979  1.00  0.00    -0.060 N 
ATOM     23  H92 UNL     1      40.915  28.365  21.642  1.00  0.00     0.278 HD
ATOM     24  H91 UNL     1      39.446  28.864  21.493  1.00  0.00     0.278 HD
BRANCH  22  25
HETATM   25  C12 UNL     1      39.701  26.974  20.807  1.00  0.00     0.259 C 
BRANCH  25  26
HETATM   26  C13 UNL     1      38.507  26.797  21.795  1.00  0.00     0.195 C 
BRANCH  26  27
HETATM   27  O1  UNL     1      38.322  27.906  22.528  1.00  0.00    -0.388 OA
BRANCH  27  28
HETATM   28  C14 UNL     1      37.050  28.210  22.860  1.00  0.00     0.195 C 
BRANCH  28  29
HETATM   29  C15 UNL     1      36.764  28.615  24.271  1.00  0.00     0.255 C 
BRANCH  29  30
HETATM   30  N10 UNL     1      35.521  28.200  24.819  1.00  0.00    -0.077 N 
ATOM     31 3H10 UNL     1      35.621  28.063  25.825  1.00  0.00     0.274 HD
ATOM     32 2H10 UNL     1      34.862  28.979  24.799  1.00  0.00     0.274 HD
ATOM     33 1H10 UNL     1      35.087  27.375  24.404  1.00  0.00     0.274 HD
ENDBRANCH  29  30
ENDBRANCH  28  29
ENDBRANCH  27  28
ENDBRANCH  26  27
ENDBRANCH  25  26
ENDBRANCH  22  25
ENDBRANCH  21  22
BRANCH  19  34
HETATM   34  N8  UNL     1      41.593  29.823  21.886  1.00  0.00    -0.385 N 
ATOM     35  H82 UNL     1      41.579  30.728  22.357  1.00  0.00     0.157 HD
ATOM     36  H81 UNL     1      40.943  29.108  22.212  1.00  0.00     0.157 HD
ENDBRANCH  19  34
BRANCH  11  37
HETATM   37  N5  UNL     1      44.918  28.639  17.009  1.00  0.00    -0.384 N 
ATOM     38  H52 UNL     1      45.211  29.616  17.011  1.00  0.00     0.157 HD
ATOM     39  H51 UNL     1      45.510  27.897  17.384  1.00  0.00     0.157 HD
ENDBRANCH  11  37
BRANCH   8  40
HETATM   40  N3  UNL     1      42.414  27.158  13.511  1.00  0.00    -0.234 N 
ATOM     41  H32 UNL     1      41.561  27.351  12.986  1.00  0.00     0.174 HD
ATOM     42  H31 UNL     1      43.186  26.656  13.074  1.00  0.00     0.174 HD
ENDBRANCH   8  40
TORSDOF 10
ENDMDL
MODEL 3
REMARK VINA RESULT: -7.172216246      2.312      4.138
REMARK  10 active torsions:
REMARK  status: ('A' for Active; 'I' for Inactive)
REMARK    1  A    between atoms: C4_8  and  N3_9 
REMARK    2  A    between atoms: C5_14  and  N5_15 
REMARK    3  A    between atoms: C9_25  and  N8_26 
REMARK    4  A    between atoms: C11_30  and  N9_31 
REMARK    5  A    between atoms: N9_31  and  C12_34 
REMARK    6  A    between atoms: C12_34  and  C13_35 
REMARK    7  A    between atoms: C13_35  and  O1_36 
REMARK    8  A    between atoms: O1_36  and  C14_37 
REMARK    9  A    between atoms: C14_37  and  C15_38 
REMARK   10  A    between atoms: C15_38  and  N10_39 
ROOT
HETATM    1  C1  UNL     1      36.885  27.463  20.078  1.00  0.00     0.066 C 
HETATM    2  C2  UNL     1      37.925  28.431  20.595  1.00  0.00     0.019 A 
HETATM    3  N1  UNL     1      37.359  29.466  21.072  1.00  0.00    -0.346 N 
ATOM      4  H1  UNL     1      36.341  29.437  21.011  1.00  0.00     0.167 HD
HETATM    5  C3  UNL     1      37.855  30.654  21.671  1.00  0.00     0.137 A 
HETATM    6  N2  UNL     1      36.893  31.499  22.091  1.00  0.00    -0.176 N 
ATOM      7  H2  UNL     1      35.918  31.234  21.955  1.00  0.00     0.186 HD
HETATM    8  C4  UNL     1      37.164  32.674  22.679  1.00  0.00     0.679 A 
HETATM    9  N4  UNL     1      38.457  33.065  22.878  1.00  0.00    -0.176 N 
ATOM     10  H4  UNL     1      38.676  33.956  23.325  1.00  0.00     0.186 HD
HETATM   11  C5  UNL     1      39.439  32.231  22.463  1.00  0.00     0.131 A 
HETATM   12  C6  UNL     1      39.166  31.031  21.862  1.00  0.00     0.080 A 
HETATM   13  C7  UNL     1      40.322  30.232  21.469  1.00  0.00     0.063 A 
HETATM   14  N6  UNL     1      41.444  30.913  21.764  1.00  0.00    -0.351 N 
ATOM     15  H6  UNL     1      41.401  31.838  22.193  1.00  0.00     0.166 HD
HETATM   16  C8  UNL     1      42.622  30.340  21.478  1.00  0.00     0.182 A 
HETATM   17  N7  UNL     1      42.690  29.124  20.916  1.00  0.00    -0.338 N 
ATOM     18  H7  UNL     1      43.608  28.728  20.717  1.00  0.00     0.168 HD
HETATM   19  C9  UNL     1      41.601  28.411  20.605  1.00  0.00     0.110 A 
HETATM   20  C10 UNL     1      40.353  28.973  20.885  1.00  0.00     0.049 A 
HETATM   21  C11 UNL     1      39.309  28.045  20.472  1.00  0.00     0.269 A 
ENDROOT
BRANCH  21  22
HETATM   22  N9  UNL     1      39.645  27.537  19.148  1.00  0.00    -0.060 N 
ATOM     23  H92 UNL     1      40.639  27.318  19.087  1.00  0.00     0.278 HD
ATOM     24  H91 UNL     1      39.257  26.603  19.011  1.00  0.00     0.278 HD
BRANCH  22  25
HETATM   25  C12 UNL     1      39.254  28.407  18.086  1.00  0.00     0.259 C 
BRANCH  25  26
HETATM   26  C13 UNL     1      40.339  28.227  16.981  1.00  0.00     0.195 C 
BRANCH  26  27
HETATM   27  O1  UNL     1      40.861  29.411  16.624  1.00  0.00    -0.388 OA
BRANCH  27  28
HETATM   28  C14 UNL     1      42.008  29.778  17.233  1.00  0.00     0.195 C 
BRANCH  28  29
HETATM   29  C15 UNL     1      43.168  28.835  17.187  1.00  0.00     0.255 C 
BRANCH  29  30
HETATM   30  N10 UNL     1      44.466  29.409  17.267  1.00  0.00    -0.077 N 
ATOM     31 3H10 UNL     1      44.480  30.291  16.755  1.00  0.00     0.274 HD
ATOM     32 2H10 UNL     1      44.634  29.740  18.217  1.00  0.00     0.274 HD
ATOM     33 1H10 UNL     1      45.246  28.826  16.965  1.00  0.00     0.274 HD
ENDBRANCH  29  30
ENDBRANCH  28  29
ENDBRANCH  27  28
ENDBRANCH  26  27
ENDBRANCH  25  26
ENDBRANCH  22  25
ENDBRANCH  21  22
BRANCH  19  34
HETATM   34  N8  UNL     1      41.709  27.245  20.066  1.00  0.00    -0.385 N 
ATOM     35  H82 UNL     1      42.547  26.971  19.554  1.00  0.00     0.157 HD
ATOM     36  H81 UNL     1      40.953  26.565  20.140  1.00  0.00     0.157 HD
ENDBRANCH  19  34
BRANCH  11  37
HETATM   37  N5  UNL     1      40.653  32.584  22.641  1.00  0.00    -0.384 N 
ATOM     38  H52 UNL     1      41.397  31.890  22.560  1.00  0.00     0.157 HD
ATOM     39  H51 UNL     1      40.848  33.561  22.862  1.00  0.00     0.157 HD
ENDBRANCH  11  37
BRANCH   8  40
HETATM   40  N3  UNL     1      36.210  33.462  23.071  1.00  0.00    -0.234 N 
ATOM     41  H32 UNL     1      35.252  33.243  22.796  1.00  0.00     0.174 HD
ATOM     42  H31 UNL     1      36.408  34.283  23.642  1.00  0.00     0.174 HD
ENDBRANCH   8  40
TORSDOF 10
ENDMDL
MODEL 4
REMARK VINA RESULT: -7.162868884      2.223      6.856
REMARK  10 active torsions:
REMARK  status: ('A' for Active; 'I' for Inactive)
REMARK    1  A    between atoms: C4_8  and  N3_9 
REMARK    2  A    between atoms: C5_14  and  N5_15 
REMARK    3  A    between atoms: C9_25  and  N8_26 
REMARK    4  A    between atoms: C11_30  and  N9_31 
REMARK    5  A    between atoms: N9_31  and  C12_34 
REMARK    6  A    between atoms: C12_34  and  C13_35 
REMARK    7  A    between atoms: C13_35  and  O1_36 
REMARK    8  A    between atoms: O1_36  and  C14_37 
REMARK    9  A    between atoms: C14_37  and  C15_38 
REMARK   10  A    between atoms: C15_38  and  N10_39 
ROOT
HETATM    1  C1  UNL     1      43.096  30.521  22.748  1.00  0.00     0.066 C 
HETATM    2  C2  UNL     1      42.359  29.819  21.631  1.00  0.00     0.019 A 
HETATM    3  N1  UNL     1      43.123  29.684  20.622  1.00  0.00    -0.346 N 
ATOM      4  H1  UNL     1      44.056  30.067  20.765  1.00  0.00     0.167 HD
HETATM    5  C3  UNL     1      42.939  29.109  19.337  1.00  0.00     0.137 A 
HETATM    6  N2  UNL     1      44.042  29.132  18.564  1.00  0.00    -0.176 N 
ATOM      7  H2  UNL     1      44.895  29.543  18.943  1.00  0.00     0.186 HD
HETATM    8  C4  UNL     1      44.065  28.638  17.316  1.00  0.00     0.679 A 
HETATM    9  N4  UNL     1      42.944  28.080  16.773  1.00  0.00    -0.176 N 
ATOM     10  H4  UNL     1      42.949  27.701  15.825  1.00  0.00     0.186 HD
HETATM   11  C5  UNL     1      41.824  28.047  17.533  1.00  0.00     0.131 A 
HETATM   12  C6  UNL     1      41.797  28.550  18.806  1.00  0.00     0.080 A 
HETATM   13  C7  UNL     1      40.523  28.444  19.511  1.00  0.00     0.063 A 
HETATM   14  N6  UNL     1      39.615  27.888  18.690  1.00  0.00    -0.351 N 
ATOM     15  H6  UNL     1      39.864  27.614  17.738  1.00  0.00     0.166 HD
HETATM   16  C8  UNL     1      38.373  27.702  19.159  1.00  0.00     0.182 A 
HETATM   17  N7  UNL     1      38.037  28.056  20.407  1.00  0.00    -0.338 N 
ATOM     18  H7  UNL     1      37.079  27.895  20.721  1.00  0.00     0.168 HD
HETATM   19  C9  UNL     1      38.906  28.613  21.259  1.00  0.00     0.110 A 
HETATM   20  C10 UNL     1      40.212  28.825  20.809  1.00  0.00     0.049 A 
HETATM   21  C11 UNL     1      40.990  29.437  21.877  1.00  0.00     0.269 A 
ENDROOT
BRANCH  21  22
HETATM   22  N9  UNL     1      40.197  30.505  22.469  1.00  0.00    -0.060 N 
ATOM     23  H92 UNL     1      39.210  30.248  22.499  1.00  0.00     0.278 HD
ATOM     24  H91 UNL     1      40.383  30.582  23.469  1.00  0.00     0.278 HD
BRANCH  22  25
HETATM   25  C12 UNL     1      40.369  31.768  21.826  1.00  0.00     0.259 C 
BRANCH  25  26
HETATM   26  C13 UNL     1      39.142  32.627  22.261  1.00  0.00     0.195 C 
BRANCH  26  27
HETATM   27  O1  UNL     1      37.994  32.062  21.857  1.00  0.00    -0.388 OA
BRANCH  27  28
HETATM   28  C14 UNL     1      36.915  32.245  22.647  1.00  0.00     0.195 C 
BRANCH  28  29
HETATM   29  C15 UNL     1      36.984  31.765  24.061  1.00  0.00     0.255 C 
BRANCH  29  30
HETATM   30  N10 UNL     1      36.281  32.527  25.033  1.00  0.00    -0.077 N 
ATOM     31 3H10 UNL     1      36.013  33.426  24.633  1.00  0.00     0.274 HD
ATOM     32 2H10 UNL     1      35.362  32.111  25.193  1.00  0.00     0.274 HD
ATOM     33 1H10 UNL     1      36.747  32.677  25.928  1.00  0.00     0.274 HD
ENDBRANCH  29  30
ENDBRANCH  28  29
ENDBRANCH  27  28
ENDBRANCH  26  27
ENDBRANCH  25  26
ENDBRANCH  22  25
ENDBRANCH  21  22
BRANCH  19  34
HETATM   34  N8  UNL     1      38.544  28.938  22.452  1.00  0.00    -0.385 N 
ATOM     35  H82 UNL     1      39.213  29.298  23.133  1.00  0.00     0.157 HD
ATOM     36  H81 UNL     1      37.572  28.842  22.746  1.00  0.00     0.157 HD
ENDBRANCH  19  34
BRANCH  11  37
HETATM   37  N5  UNL     1      40.768  27.529  17.037  1.00  0.00    -0.384 N 
ATOM     38  H52 UNL     1      39.902  28.069  17.022  1.00  0.00     0.157 HD
ATOM     39  H51 UNL     1      40.819  26.581  16.665  1.00  0.00     0.157 HD
ENDBRANCH  11  37
BRANCH   8  40
HETATM   40  N3  UNL     1      45.148  28.678  16.601  1.00  0.00    -0.234 N 
ATOM     41  H32 UNL     1      45.147  28.227  15.686  1.00  0.00     0.174 HD
ATOM     42  H31 UNL     1      45.986  29.149  16.943  1.00  0.00     0.174 HD
ENDBRANCH   8  40
TORSDOF 10
ENDMDL
MODEL 5
REMARK VINA RESULT: -7.139126553      2.608      6.631
REMARK  10 active torsions:
REMARK  status: ('A' for Active; 'I' for Inactive)
REMARK    1  A    between atoms: C4_8  and  N3_9 
REMARK    2  A    between atoms: C5_14  and  N5_15 
REMARK    3  A    between atoms: C9_25  and  N8_26 
REMARK    4  A    between atoms: C11_30  and  N9_31 
REMARK    5  A    between atoms: N9_31  and  C12_34 
REMARK    6  A    between atoms: C12_34  and  C13_35 
REMARK    7  A    between atoms: C13_35  and  O1_36 
REMARK    8  A    between atoms: O1_36  and  C14_37 
REMARK    9  A    between atoms: C14_37  and  C15_38 
REMARK   10  A    between atoms: C15_38  and  N10_39 
ROOT
HETATM    1  C1  UNL     1      43.069  30.562  22.724  1.00  0.00     0.066 C 
HETATM    2  C2  UNL     1      42.344  29.840  21.611  1.00  0.00     0.019 A 
HETATM    3  N1  UNL     1      43.112  29.704  20.606  1.00  0.00    -0.346 N 
ATOM      4  H1  UNL     1      44.041  30.099  20.749  1.00  0.00     0.167 HD
HETATM    5  C3  UNL     1      42.940  29.113  19.327  1.00  0.00     0.137 A 
HETATM    6  N2  UNL     1      44.046  29.142  18.557  1.00  0.00    -0.176 N 
ATOM      7  H2  UNL     1      44.892  29.566  18.935  1.00  0.00     0.186 HD
HETATM    8  C4  UNL     1      44.079  28.635  17.315  1.00  0.00     0.679 A 
HETATM    9  N4  UNL     1      42.967  28.058  16.773  1.00  0.00    -0.176 N 
ATOM     10  H4  UNL     1      42.980  27.670  15.830  1.00  0.00     0.186 HD
HETATM   11  C5  UNL     1      41.844  28.020  17.530  1.00  0.00     0.131 A 
HETATM   12  C6  UNL     1      41.807  28.536  18.798  1.00  0.00     0.080 A 
HETATM   13  C7  UNL     1      40.532  28.423  19.499  1.00  0.00     0.063 A 
HETATM   14  N6  UNL     1      39.633  27.847  18.681  1.00  0.00    -0.351 N 
ATOM     15  H6  UNL     1      39.888  27.567  17.733  1.00  0.00     0.166 HD
HETATM   16  C8  UNL     1      38.391  27.652  19.147  1.00  0.00     0.182 A 
HETATM   17  N7  UNL     1      38.047  28.015  20.391  1.00  0.00    -0.338 N 
ATOM     18  H7  UNL     1      37.090  27.846  20.703  1.00  0.00     0.168 HD
HETATM   19  C9  UNL     1      38.907  28.590  21.240  1.00  0.00     0.110 A 
HETATM   20  C10 UNL     1      40.212  28.813  20.792  1.00  0.00     0.049 A 
HETATM   21  C11 UNL     1      40.979  29.444  21.857  1.00  0.00     0.269 A 
ENDROOT
BRANCH  21  22
HETATM   22  N9  UNL     1      40.171  30.510  22.435  1.00  0.00    -0.060 N 
ATOM     23  H92 UNL     1      39.190  30.233  22.484  1.00  0.00     0.278 HD
ATOM     24  H91 UNL     1      40.368  30.613  23.431  1.00  0.00     0.278 HD
BRANCH  22  25
HETATM   25  C12 UNL     1      40.309  31.761  21.762  1.00  0.00     0.259 C 
BRANCH  25  26
HETATM   26  C13 UNL     1      39.115  32.634  22.258  1.00  0.00     0.195 C 
BRANCH  26  27
HETATM   27  O1  UNL     1      39.401  33.941  22.155  1.00  0.00    -0.388 OA
BRANCH  27  28
HETATM   28  C14 UNL     1      39.802  34.566  23.281  1.00  0.00     0.195 C 
BRANCH  28  29
HETATM   29  C15 UNL     1      41.071  35.356  23.238  1.00  0.00     0.255 C 
BRANCH  29  30
HETATM   30  N10 UNL     1      41.526  35.771  21.957  1.00  0.00    -0.077 N 
ATOM     31 3H10 UNL     1      42.537  35.643  21.897  1.00  0.00     0.274 HD
ATOM     32 2H10 UNL     1      41.211  35.105  21.251  1.00  0.00     0.274 HD
ATOM     33 1H10 UNL     1      41.284  36.718  21.666  1.00  0.00     0.274 HD
ENDBRANCH  29  30
ENDBRANCH  28  29
ENDBRANCH  27  28
ENDBRANCH  26  27
ENDBRANCH  25  26
ENDBRANCH  22  25
ENDBRANCH  21  22
BRANCH  19  34
HETATM   34  N8  UNL     1      38.536  28.923  22.428  1.00  0.00    -0.385 N 
ATOM     35  H82 UNL     1      37.906  28.335  22.974  1.00  0.00     0.157 HD
ATOM     36  H81 UNL     1      38.866  29.790  22.853  1.00  0.00     0.157 HD
ENDBRANCH  19  34
BRANCH  11  37
HETATM   37  N5  UNL     1      40.796  27.485  17.036  1.00  0.00    -0.384 N 
ATOM     38  H52 UNL     1      40.883  26.829  16.259  1.00  0.00     0.157 HD
ATOM     39  H51 UNL     1      39.890  27.730  17.437  1.00  0.00     0.157 HD
ENDBRANCH  11  37
BRANCH   8  40
HETATM   40  N3  UNL     1      45.164  28.680  16.603  1.00  0.00    -0.234 N 
ATOM     41  H32 UNL     1      45.944  29.247  16.937  1.00  0.00     0.174 HD
ATOM     42  H31 UNL     1      45.240  28.163  15.728  1.00  0.00     0.174 HD
ENDBRANCH   8  40
TORSDOF 10
ENDMDL
