MODEL 1
REMARK VINA RESULT: -8.238179721      0.000      0.000
REMARK  10 active torsions:
REMARK  status: ('A' for Active; 'I' for Inactive)
REMARK    1  A    between atoms: C2_2  and  C3_3 
REMARK    2  A    between atoms: C3_3  and  C4_4 
REMARK    3  A    between atoms: C3_3  and  N2_7 
REMARK    4  A    between atoms: N2_7  and  C6_10 
REMARK    5  A    between atoms: C6_10  and  C7_11 
REMARK    6  A    between atoms: C7_11  and  N3_12 
REMARK    7  A    between atoms: N3_12  and  C8_14 
REMARK    8  A    between atoms: C9_17  and  N5_18 
REMARK    9  A    between atoms: C13_26  and  N7_27 
REMARK   10  A    between atoms: C14_32  and  N9_33 
ROOT
HETATM    1  C4  UNL     1      43.772  28.984  18.763  1.00  0.00     0.156 C 
HETATM    2  C5  UNL     1      44.362  28.746  17.443  1.00  0.00     0.061 C 
HETATM    3  N1  UNL     1      44.819  28.556  16.388  1.00  0.00    -0.197 NA
ENDROOT
BRANCH   1   4
HETATM    4  C3  UNL     1      42.303  28.608  18.701  1.00  0.00     0.198 C 
BRANCH   4   5
HETATM    5  C2  UNL     1      41.939  28.112  20.084  1.00  0.00     0.029 C 
HETATM    6  C1  UNL     1      41.582  29.331  20.901  1.00  0.00     0.007 C 
ENDBRANCH   4   5
BRANCH   4   7
HETATM    7  N2  UNL     1      42.090  27.505  17.776  1.00  0.00    -0.069 N 
ATOM      8  H22 UNL     1      42.950  27.252  17.289  1.00  0.00     0.277 HD
ATOM      9  H21 UNL     1      41.926  26.627  18.269  1.00  0.00     0.277 HD
BRANCH   7  10
HETATM   10  C6  UNL     1      41.017  27.805  16.846  1.00  0.00     0.253 C 
BRANCH  10  11
HETATM   11  C7  UNL     1      40.388  29.142  17.116  1.00  0.00     0.165 C 
BRANCH  11  12
HETATM   12  N3  UNL     1      39.030  28.916  17.513  1.00  0.00    -0.224 N 
ATOM     13  H3  UNL     1      38.338  28.880  16.765  1.00  0.00     0.177 HD
BRANCH  12  14
HETATM   14  C8  UNL     1      38.595  28.756  18.690  1.00  0.00     0.681 A 
HETATM   15  N4  UNL     1      38.405  27.590  19.328  1.00  0.00    -0.175 N 
HETATM   16  C9  UNL     1      37.944  27.518  20.592  1.00  0.00     0.147 A 
ATOM     17  H4  UNL     1      38.619  26.723  18.835  1.00  0.00     0.186 HD
HETATM   18  C10 UNL     1      37.639  28.668  21.302  1.00  0.00     0.147 A 
HETATM   19  C11 UNL     1      37.830  29.858  20.654  1.00  0.00     0.155 A 
HETATM   20  N11 UNL     1      37.176  28.942  22.529  1.00  0.00    -0.214 N 
HETATM   21  N6  UNL     1      37.466  30.826  21.537  1.00  0.00    -0.322 N 
HETATM   22  N12 UNL     1      38.292  29.884  19.395  1.00  0.00    -0.174 N 
HETATM   23  C12 UNL     1      37.063  30.283  22.690  1.00  0.00     0.174 A 
ATOM     24  H6  UNL     1      37.496  31.827  21.345  1.00  0.00     0.169 HD
HETATM   25  C13 UNL     1      36.606  30.832  23.873  1.00  0.00     0.161 A 
HETATM   26  N8  UNL     1      36.271  30.006  24.877  1.00  0.00    -0.172 N 
HETATM   27  C14 UNL     1      36.384  28.661  24.713  1.00  0.00     0.692 A 
ATOM     28  H8  UNL     1      35.932  30.386  25.761  1.00  0.00     0.186 HD
HETATM   29  N10 UNL     1      36.837  28.157  23.538  1.00  0.00    -0.123 N 
ATOM     30  H10 UNL     1      36.918  27.147  23.429  1.00  0.00     0.206 HD
ATOM     31  H12 UNL     1      38.422  30.789  18.944  1.00  0.00     0.186 HD
BRANCH  16  32
HETATM   32  N5  UNL     1      37.778  26.385  21.152  1.00  0.00    -0.383 N 
ATOM     33  H52 UNL     1      37.932  25.537  20.606  1.00  0.00     0.157 HD
ATOM     34  H51 UNL     1      37.500  26.332  22.132  1.00  0.00     0.157 HD
ENDBRANCH  16  32
BRANCH  25  35
HETATM   35  N7  UNL     1      36.487  32.098  24.061  1.00  0.00    -0.382 N 
ATOM     36  H72 UNL     1      37.160  32.719  23.610  1.00  0.00     0.157 HD
ATOM     37  H71 UNL     1      35.752  32.510  24.637  1.00  0.00     0.157 HD
ENDBRANCH  25  35
BRANCH  27  38
HETATM   38  N9  UNL     1      36.071  27.877  25.665  1.00  0.00    -0.233 N 
ATOM     39  H92 UNL     1      35.694  28.253  26.535  1.00  0.00     0.174 HD
ATOM     40  H91 UNL     1      36.194  26.870  25.556  1.00  0.00     0.174 HD
ENDBRANCH  27  38
ENDBRANCH  12  14
ENDBRANCH  11  12
ENDBRANCH  10  11
ENDBRANCH   7  10
ENDBRANCH   4   7
ENDBRANCH   1   4
TORSDOF 10
ENDMDL
MODEL 2
REMARK VINA RESULT: -8.204201295      1.961      7.337
REMARK  10 active torsions:
REMARK  status: ('A' for Active; 'I' for Inactive)
REMARK    1  A    between atoms: C2_2  and  C3_3 
REMARK    2  A    between atoms: C3_3  and  C4_4 
REMARK    3  A    between atoms: C3_3  and  N2_7 
REMARK    4  A    between atoms: N2_7  and  C6_10 
REMARK    5  A    between atoms: C6_10  and  C7_11 
REMARK    6  A    between atoms: C7_11  and  N3_12 
REMARK    7  A    between atoms: N3_12  and  C8_14 
REMARK    8  A    between atoms: C9_17  and  N5_18 
REMARK    9  A    between atoms: C13_26  and  N7_27 
REMARK   10  A    between atoms: C14_32  and  N9_33 
ROOT
HETATM    1  C4  UNL     1      37.785  26.453  20.856  1.00  0.00     0.156 C 
HETATM    2  C5  UNL     1      39.205  26.807  20.915  1.00  0.00     0.061 C 
HETATM    3  N1  UNL     1      40.333  27.095  20.975  1.00  0.00    -0.197 NA
ENDROOT
BRANCH   1   4
HETATM    4  C3  UNL     1      37.041  27.303  21.870  1.00  0.00     0.198 C 
BRANCH   4   5
HETATM    5  C2  UNL     1      36.136  28.215  21.068  1.00  0.00     0.029 C 
HETATM    6  C1  UNL     1      35.571  27.383  19.942  1.00  0.00     0.007 C 
ENDBRANCH   4   5
BRANCH   4   7
HETATM    7  N2  UNL     1      37.964  28.151  22.610  1.00  0.00    -0.069 N 
ATOM      8  H22 UNL     1      38.031  27.870  23.588  1.00  0.00     0.277 HD
ATOM      9  H21 UNL     1      38.931  27.985  22.333  1.00  0.00     0.277 HD
BRANCH   7  10
HETATM   10  C6  UNL     1      37.603  29.551  22.479  1.00  0.00     0.253 C 
BRANCH  10  11
HETATM   11  C7  UNL     1      38.805  30.432  22.287  1.00  0.00     0.165 C 
BRANCH  11  12
HETATM   12  N3  UNL     1      38.788  30.907  20.935  1.00  0.00    -0.224 N 
ATOM     13  H3  UNL     1      38.340  31.809  20.776  1.00  0.00     0.177 HD
BRANCH  12  14
HETATM   14  C8  UNL     1      39.270  30.330  19.917  1.00  0.00     0.681 A 
HETATM   15  N4  UNL     1      38.584  29.749  18.921  1.00  0.00    -0.175 N 
HETATM   16  C9  UNL     1      39.188  29.164  17.867  1.00  0.00     0.147 A 
ATOM     17  H4  UNL     1      37.565  29.750  18.963  1.00  0.00     0.186 HD
HETATM   18  C10 UNL     1      40.569  29.136  17.766  1.00  0.00     0.147 A 
HETATM   19  C11 UNL     1      41.270  29.727  18.781  1.00  0.00     0.155 A 
HETATM   20  N11 UNL     1      41.456  28.653  16.885  1.00  0.00    -0.214 N 
HETATM   21  N6  UNL     1      42.584  29.573  18.466  1.00  0.00    -0.322 N 
HETATM   22  N12 UNL     1      40.630  30.298  19.812  1.00  0.00    -0.174 N 
HETATM   23  C12 UNL     1      42.716  28.917  17.309  1.00  0.00     0.174 A 
ATOM     24  H6  UNL     1      43.361  29.911  19.034  1.00  0.00     0.169 HD
HETATM   25  C13 UNL     1      43.821  28.525  16.577  1.00  0.00     0.161 A 
HETATM   26  N8  UNL     1      43.626  27.867  15.422  1.00  0.00    -0.172 N 
HETATM   27  C14 UNL     1      42.360  27.602  15.000  1.00  0.00     0.692 A 
ATOM     28  H8  UNL     1      44.424  27.567  14.863  1.00  0.00     0.186 HD
HETATM   29  N10 UNL     1      41.300  28.003  15.744  1.00  0.00    -0.123 N 
ATOM     30  H10 UNL     1      40.356  27.799  15.415  1.00  0.00     0.206 HD
ATOM     31  H12 UNL     1      41.185  30.729  20.551  1.00  0.00     0.186 HD
BRANCH  16  32
HETATM   32  N5  UNL     1      38.491  28.623  16.947  1.00  0.00    -0.383 N 
ATOM     33  H52 UNL     1      37.498  28.454  17.113  1.00  0.00     0.157 HD
ATOM     34  H51 UNL     1      38.922  28.367  16.058  1.00  0.00     0.157 HD
ENDBRANCH  16  32
BRANCH  25  35
HETATM   35  N7  UNL     1      45.029  28.759  16.947  1.00  0.00    -0.382 N 
ATOM     36  H72 UNL     1      45.384  29.712  16.864  1.00  0.00     0.157 HD
ATOM     37  H71 UNL     1      45.648  28.039  17.320  1.00  0.00     0.157 HD
ENDBRANCH  25  35
BRANCH  27  38
HETATM   38  N9  UNL     1      42.173  26.983  13.905  1.00  0.00    -0.233 N 
ATOM     39  H92 UNL     1      42.199  27.489  13.019  1.00  0.00     0.174 HD
ATOM     40  H91 UNL     1      42.000  25.977  13.911  1.00  0.00     0.174 HD
ENDBRANCH  27  38
ENDBRANCH  12  14
ENDBRANCH  11  12
ENDBRANCH  10  11
ENDBRANCH   7  10
ENDBRANCH   4   7
ENDBRANCH   1   4
TORSDOF 10
ENDMDL
MODEL 3
REMARK VINA RESULT: -7.961385084      1.698      7.726
REMARK  10 active torsions:
REMARK  status: ('A' for Active; 'I' for Inactive)
REMARK    1  A    between atoms: C2_2  and  C3_3 
REMARK    2  A    between atoms: C3_3  and  C4_4 
REMARK    3  A    between atoms: C3_3  and  N2_7 
REMARK    4  A    between atoms: N2_7  and  C6_10 
REMARK    5  A    between atoms: C6_10  and  C7_11 
REMARK    6  A    between atoms: C7_11  and  N3_12 
REMARK    7  A    between atoms: N3_12  and  C8_14 
REMARK    8  A    between atoms: C9_17  and  N5_18 
REMARK    9  A    between atoms: C13_26  and  N7_27 
REMARK   10  A    between atoms: C14_32  and  N9_33 
ROOT
HETATM    1  C4  UNL     1      36.704  31.967  22.922  1.00  0.00     0.156 C 
HETATM    2  C5  UNL     1      37.887  31.813  22.072  1.00  0.00     0.061 C 
HETATM    3  N1  UNL     1      38.829  31.678  21.399  1.00  0.00    -0.197 NA
ENDROOT
BRANCH   1   4
HETATM    4  C3  UNL     1      36.652  30.790  23.879  1.00  0.00     0.198 C 
BRANCH   4   5
HETATM    5  C2  UNL     1      37.220  31.292  25.190  1.00  0.00     0.029 C 
HETATM    6  C1  UNL     1      36.646  30.413  26.276  1.00  0.00     0.007 C 
ENDBRANCH   4   5
BRANCH   4   7
HETATM    7  N2  UNL     1      37.514  29.711  23.420  1.00  0.00    -0.069 N 
ATOM      8  H22 UNL     1      38.055  29.986  22.600  1.00  0.00     0.277 HD
ATOM      9  H21 UNL     1      38.284  29.543  24.067  1.00  0.00     0.277 HD
BRANCH   7  10
HETATM   10  C6  UNL     1      36.749  28.502  23.174  1.00  0.00     0.253 C 
BRANCH  10  11
HETATM   11  C7  UNL     1      37.516  27.499  22.360  1.00  0.00     0.165 C 
BRANCH  11  12
HETATM   12  N3  UNL     1      37.735  28.064  21.062  1.00  0.00    -0.224 N 
ATOM     13  H3  UNL     1      36.910  28.404  20.569  1.00  0.00     0.177 HD
BRANCH  12  14
HETATM   14  C8  UNL     1      38.841  28.187  20.459  1.00  0.00     0.681 A 
HETATM   15  N4  UNL     1      39.984  28.678  20.965  1.00  0.00    -0.175 N 
HETATM   16  C9  UNL     1      41.121  28.762  20.246  1.00  0.00     0.147 A 
ATOM     17  H4  UNL     1      39.991  29.000  21.933  1.00  0.00     0.186 HD
HETATM   18  C10 UNL     1      41.159  28.338  18.929  1.00  0.00     0.147 A 
HETATM   19  C11 UNL     1      39.995  27.839  18.410  1.00  0.00     0.155 A 
HETATM   20  N11 UNL     1      42.090  28.286  17.965  1.00  0.00    -0.214 N 
HETATM   21  N6  UNL     1      40.277  27.498  17.124  1.00  0.00    -0.322 N 
HETATM   22  N12 UNL     1      38.886  27.773  19.160  1.00  0.00    -0.174 N 
HETATM   23  C12 UNL     1      41.554  27.765  16.835  1.00  0.00     0.174 A 
ATOM     24  H6  UNL     1      39.605  27.094  16.471  1.00  0.00     0.169 HD
HETATM   25  C13 UNL     1      42.307  27.601  15.688  1.00  0.00     0.161 A 
HETATM   26  N8  UNL     1      43.598  27.971  15.709  1.00  0.00    -0.172 N 
HETATM   27  C14 UNL     1      44.133  28.495  16.844  1.00  0.00     0.692 A 
ATOM     28  H8  UNL     1      44.176  27.859  14.876  1.00  0.00     0.186 HD
HETATM   29  N10 UNL     1      43.363  28.641  17.951  1.00  0.00    -0.123 N 
ATOM     30  H10 UNL     1      43.778  29.034  18.796  1.00  0.00     0.206 HD
ATOM     31  H12 UNL     1      38.037  27.395  18.741  1.00  0.00     0.186 HD
BRANCH  16  32
HETATM   32  N5  UNL     1      42.179  29.239  20.773  1.00  0.00    -0.383 N 
ATOM     33  H52 UNL     1      42.120  30.111  21.299  1.00  0.00     0.157 HD
ATOM     34  H51 UNL     1      43.069  28.751  20.669  1.00  0.00     0.157 HD
ENDBRANCH  16  32
BRANCH  25  35
HETATM   35  N7  UNL     1      41.833  27.109  14.599  1.00  0.00    -0.382 N 
ATOM     36  H72 UNL     1      41.457  26.161  14.621  1.00  0.00     0.157 HD
ATOM     37  H71 UNL     1      41.814  27.621  13.717  1.00  0.00     0.157 HD
ENDBRANCH  25  35
BRANCH  27  38
HETATM   38  N9  UNL     1      45.357  28.842  16.867  1.00  0.00    -0.233 N 
ATOM     39  H92 UNL     1      45.693  29.574  16.241  1.00  0.00     0.174 HD
ATOM     40  H91 UNL     1      46.002  28.391  17.516  1.00  0.00     0.174 HD
ENDBRANCH  27  38
ENDBRANCH  12  14
ENDBRANCH  11  12
ENDBRANCH  10  11
ENDBRANCH   7  10
ENDBRANCH   4   7
ENDBRANCH   1   4
TORSDOF 10
ENDMDL
MODEL 4
REMARK VINA RESULT: -7.951687014      1.928      7.762
REMARK  10 active torsions:
REMARK  status: ('A' for Active; 'I' for Inactive)
REMARK    1  A    between atoms: C2_2  and  C3_3 
REMARK    2  A    between atoms: C3_3  and  C4_4 
REMARK    3  A    between atoms: C3_3  and  N2_7 
REMARK    4  A    between atoms: N2_7  and  C6_10 
REMARK    5  A    between atoms: C6_10  and  C7_11 
REMARK    6  A    between atoms: C7_11  and  N3_12 
REMARK    7  A    between atoms: N3_12  and  C8_14 
REMARK    8  A    between atoms: C9_17  and  N5_18 
REMARK    9  A    between atoms: C13_26  and  N7_27 
REMARK   10  A    between atoms: C14_32  and  N9_33 
ROOT
HETATM    1  C4  UNL     1      36.796  27.713  22.115  1.00  0.00     0.156 C 
HETATM    2  C5  UNL     1      36.307  28.633  21.085  1.00  0.00     0.061 C 
HETATM    3  N1  UNL     1      35.924  29.375  20.271  1.00  0.00    -0.197 NA
ENDROOT
BRANCH   1   4
HETATM    4  C3  UNL     1      37.286  28.538  23.292  1.00  0.00     0.198 C 
BRANCH   4   5
HETATM    5  C2  UNL     1      36.117  28.636  24.249  1.00  0.00     0.029 C 
HETATM    6  C1  UNL     1      36.396  29.812  25.155  1.00  0.00     0.007 C 
ENDBRANCH   4   5
BRANCH   4   7
HETATM    7  N2  UNL     1      37.617  29.891  22.873  1.00  0.00    -0.069 N 
ATOM      8  H22 UNL     1      37.206  30.116  21.967  1.00  0.00     0.277 HD
ATOM      9  H21 UNL     1      37.136  30.589  23.441  1.00  0.00     0.277 HD
BRANCH   7  10
HETATM   10  C6  UNL     1      39.054  30.100  22.875  1.00  0.00     0.253 C 
BRANCH  10  11
HETATM   11  C7  UNL     1      39.463  31.243  21.990  1.00  0.00     0.165 C 
BRANCH  11  12
HETATM   12  N3  UNL     1      38.844  31.053  20.713  1.00  0.00    -0.224 N 
ATOM     13  H3  UNL     1      37.913  31.452  20.595  1.00  0.00     0.177 HD
BRANCH  12  14
HETATM   14  C8  UNL     1      39.326  30.444  19.713  1.00  0.00     0.681 A 
HETATM   15  N4  UNL     1      38.640  29.847  18.726  1.00  0.00    -0.175 N 
HETATM   16  C9  UNL     1      39.244  29.228  17.692  1.00  0.00     0.147 A 
ATOM     17  H4  UNL     1      37.621  29.862  18.760  1.00  0.00     0.186 HD
HETATM   18  C10 UNL     1      40.625  29.180  17.603  1.00  0.00     0.147 A 
HETATM   19  C11 UNL     1      41.326  29.787  18.609  1.00  0.00     0.155 A 
HETATM   20  N11 UNL     1      41.513  28.663  16.742  1.00  0.00    -0.214 N 
HETATM   21  N6  UNL     1      42.640  29.608  18.309  1.00  0.00    -0.322 N 
HETATM   22  N12 UNL     1      40.686  30.393  19.620  1.00  0.00    -0.174 N 
HETATM   23  C12 UNL     1      42.773  28.922  17.169  1.00  0.00     0.174 A 
ATOM     24  H6  UNL     1      43.417  29.950  18.875  1.00  0.00     0.169 HD
HETATM   25  C13 UNL     1      43.878  28.497  16.457  1.00  0.00     0.161 A 
HETATM   26  N8  UNL     1      43.684  27.813  15.317  1.00  0.00    -0.172 N 
HETATM   27  C14 UNL     1      42.418  27.553  14.891  1.00  0.00     0.692 A 
ATOM     28  H8  UNL     1      44.482  27.488  14.773  1.00  0.00     0.186 HD
HETATM   29  N10 UNL     1      41.357  27.987  15.617  1.00  0.00    -0.123 N 
ATOM     30  H10 UNL     1      40.414  27.786  15.285  1.00  0.00     0.206 HD
ATOM     31  H12 UNL     1      41.241  30.834  20.352  1.00  0.00     0.186 HD
BRANCH  16  32
HETATM   32  N5  UNL     1      38.548  28.673  16.780  1.00  0.00    -0.383 N 
ATOM     33  H52 UNL     1      37.549  28.535  16.936  1.00  0.00     0.157 HD
ATOM     34  H51 UNL     1      38.985  28.375  15.908  1.00  0.00     0.157 HD
ENDBRANCH  16  32
BRANCH  25  35
HETATM   35  N7  UNL     1      45.087  28.725  16.830  1.00  0.00    -0.382 N 
ATOM     36  H72 UNL     1      45.235  29.223  17.708  1.00  0.00     0.157 HD
ATOM     37  H71 UNL     1      45.902  28.431  16.292  1.00  0.00     0.157 HD
ENDBRANCH  25  35
BRANCH  27  38
HETATM   38  N9  UNL     1      42.232  26.909  13.811  1.00  0.00    -0.233 N 
ATOM     39  H92 UNL     1      41.859  27.385  12.989  1.00  0.00     0.174 HD
ATOM     40  H91 UNL     1      42.458  25.915  13.765  1.00  0.00     0.174 HD
ENDBRANCH  27  38
ENDBRANCH  12  14
ENDBRANCH  11  12
ENDBRANCH  10  11
ENDBRANCH   7  10
ENDBRANCH   4   7
ENDBRANCH   1   4
TORSDOF 10
ENDMDL
MODEL 5
REMARK VINA RESULT: -7.936282229      3.357      5.007
REMARK  10 active torsions:
REMARK  status: ('A' for Active; 'I' for Inactive)
REMARK    1  A    between atoms: C2_2  and  C3_3 
REMARK    2  A    between atoms: C3_3  and  C4_4 
REMARK    3  A    between atoms: C3_3  and  N2_7 
REMARK    4  A    between atoms: N2_7  and  C6_10 
REMARK    5  A    between atoms: C6_10  and  C7_11 
REMARK    6  A    between atoms: C7_11  and  N3_12 
REMARK    7  A    between atoms: N3_12  and  C8_14 
REMARK    8  A    between atoms: C9_17  and  N5_18 
REMARK    9  A    between atoms: C13_26  and  N7_27 
REMARK   10  A    between atoms: C14_32  and  N9_33 
ROOT
HETATM    1  C4  UNL     1      41.647  25.958  11.461  1.00  0.00     0.156 C 
HETATM    2  C5  UNL     1      42.804  26.169  10.587  1.00  0.00     0.061 C 
HETATM    3  N1  UNL     1      43.732  26.329   9.900  1.00  0.00    -0.197 NA
ENDROOT
BRANCH   1   4
HETATM    4  C3  UNL     1      42.150  25.429  12.793  1.00  0.00     0.198 C 
BRANCH   4   5
HETATM    5  C2  UNL     1      41.481  24.085  12.988  1.00  0.00     0.029 C 
HETATM    6  C1  UNL     1      40.110  24.189  12.364  1.00  0.00     0.007 C 
ENDBRANCH   4   5
BRANCH   4   7
HETATM    7  N2  UNL     1      41.721  26.289  13.886  1.00  0.00    -0.069 N 
ATOM      8  H22 UNL     1      40.752  26.587  13.771  1.00  0.00     0.277 HD
ATOM      9  H21 UNL     1      41.622  25.768  14.757  1.00  0.00     0.277 HD
BRANCH   7  10
HETATM   10  C6  UNL     1      42.615  27.422  14.039  1.00  0.00     0.253 C 
BRANCH  10  11
HETATM   11  C7  UNL     1      42.969  27.676  15.477  1.00  0.00     0.165 C 
BRANCH  11  12
HETATM   12  N3  UNL     1      41.975  27.044  16.292  1.00  0.00    -0.224 N 
ATOM     13  H3  UNL     1      41.632  26.139  15.970  1.00  0.00     0.177 HD
BRANCH  12  14
HETATM   14  C8  UNL     1      41.475  27.486  17.367  1.00  0.00     0.681 A 
HETATM   15  N4  UNL     1      42.143  27.888  18.460  1.00  0.00    -0.175 N 
HETATM   16  C9  UNL     1      41.522  28.356  19.561  1.00  0.00     0.147 A 
ATOM     17  H4  UNL     1      43.162  27.838  18.456  1.00  0.00     0.186 HD
HETATM   18  C10 UNL     1      40.141  28.441  19.613  1.00  0.00     0.147 A 
HETATM   19  C11 UNL     1      39.458  28.031  18.501  1.00  0.00     0.155 A 
HETATM   20  N11 UNL     1      39.239  28.842  20.520  1.00  0.00    -0.214 N 
HETATM   21  N6  UNL     1      38.140  28.204  18.788  1.00  0.00    -0.322 N 
HETATM   22  N12 UNL     1      40.115  27.573  17.426  1.00  0.00    -0.174 N 
HETATM   23  C12 UNL     1      37.988  28.699  20.020  1.00  0.00     0.174 A 
ATOM     24  H6  UNL     1      37.374  27.985  18.151  1.00  0.00     0.169 HD
HETATM   25  C13 UNL     1      36.871  29.044  20.758  1.00  0.00     0.161 A 
HETATM   26  N8  UNL     1      37.046  29.531  21.997  1.00  0.00    -0.172 N 
HETATM   27  C14 UNL     1      38.303  29.672  22.498  1.00  0.00     0.692 A 
ATOM     28  H8  UNL     1      36.239  29.793  22.562  1.00  0.00     0.186 HD
HETATM   29  N10 UNL     1      39.375  29.324  21.744  1.00  0.00    -0.123 N 
ATOM     30  H10 UNL     1      40.312  29.436  22.132  1.00  0.00     0.206 HD
ATOM     31  H12 UNL     1      39.573  27.275  16.615  1.00  0.00     0.186 HD
BRANCH  16  32
HETATM   32  N5  UNL     1      42.202  28.723  20.575  1.00  0.00    -0.383 N 
ATOM     33  H52 UNL     1      42.863  29.494  20.473  1.00  0.00     0.157 HD
ATOM     34  H51 UNL     1      42.082  28.253  21.472  1.00  0.00     0.157 HD
ENDBRANCH  16  32
BRANCH  25  35
HETATM   35  N7  UNL     1      35.671  28.924  20.315  1.00  0.00    -0.382 N 
ATOM     36  H72 UNL     1      35.483  28.204  19.617  1.00  0.00     0.157 HD
ATOM     37  H71 UNL     1      34.898  29.512  20.629  1.00  0.00     0.157 HD
ENDBRANCH  25  35
BRANCH  27  38
HETATM   38  N9  UNL     1      38.470  30.136  23.670  1.00  0.00    -0.233 N 
ATOM     39  H92 UNL     1      38.628  29.503  24.454  1.00  0.00     0.174 HD
ATOM     40  H91 UNL     1      38.452  31.144  23.826  1.00  0.00     0.174 HD
ENDBRANCH  27  38
ENDBRANCH  12  14
ENDBRANCH  11  12
ENDBRANCH  10  11
ENDBRANCH   7  10
ENDBRANCH   4   7
ENDBRANCH   1   4
TORSDOF 10
ENDMDL
