MODEL 1
REMARK VINA RESULT: -7.887836591      0.000      0.000
REMARK  11 active torsions:
REMARK  status: ('A' for Active; 'I' for Inactive)
REMARK    1  A    between atoms: C3_3  and  C4_4 
REMARK    2  A    between atoms: C4_4  and  C5_5 
REMARK    3  A    between atoms: C5_5  and  C6_6 
REMARK    4  A    between atoms: C7_7  and  C8_8 
REMARK    5  A    between atoms: C9_10  and  C10_11 
REMARK    6  A    between atoms: C10_11  and  S1_12 
REMARK    7  A    between atoms: S1_12  and  C11_13 
REMARK    8  A    between atoms: C11_13  and  C12_14 
REMARK    9  A    between atoms: C12_14  and  O2_15 
REMARK   10  A    between atoms: C12_14  and  C13_17 
REMARK   11  A    between atoms: C14_21  and  O6_23 
ROOT
HETATM    1  C8  UNL     1      30.946   6.605  14.660  1.00  0.00     0.293 C 
HETATM    2  O1  UNL     1      31.158   7.834  15.270  1.00  0.00    -0.327 OA
HETATM    3  C9  UNL     1      32.294   7.739  16.061  1.00  0.00     0.278 C 
HETATM    4  O5  UNL     1      32.912   6.525  15.801  1.00  0.00    -0.301 OA
HETATM    5  C14 UNL     1      32.105   5.514  16.310  1.00  0.00     0.280 C 
HETATM    6  C15 UNL     1      31.906   5.758  17.779  1.00  0.00     0.115 C 
HETATM    7  O7  UNL     1      30.892   5.575  15.621  1.00  0.00    -0.299 OA
ENDROOT
BRANCH   3   8
HETATM    8  C10 UNL     1      33.247   8.893  15.814  1.00  0.00     0.135 C 
BRANCH   8   9
HETATM    9  S1  UNL     1      34.927   8.380  16.235  1.00  0.00    -0.161 SA
BRANCH   9  10
HETATM   10  C11 UNL     1      35.217   8.692  18.013  1.00  0.00     0.116 C 
BRANCH  10  11
HETATM   11  C12 UNL     1      36.130   7.589  18.524  1.00  0.00     0.228 C 
BRANCH  11  12
HETATM   12  O2  UNL     1      36.390   6.672  17.535  1.00  0.00    -0.384 OA
ATOM     13  H2  UNL     1      37.248   6.281  17.653  1.00  0.00     0.210 HD
ENDBRANCH  11  12
BRANCH  11  14
HETATM   14  C13 UNL     1      37.344   8.242  19.079  1.00  0.00     0.203 C 
HETATM   15  O3  UNL     1      37.506   9.474  19.108  1.00  0.00    -0.646 OA
HETATM   16  O4  UNL     1      38.322   7.378  19.580  1.00  0.00    -0.646 OA
ENDBRANCH  11  14
ENDBRANCH  10  11
ENDBRANCH   9  10
ENDBRANCH   8   9
ENDBRANCH   3   8
BRANCH   1  17
HETATM   17  C7  UNL     1      29.690   6.575  13.898  1.00  0.00     0.029 C 
HETATM   18  C6  UNL     1      29.681   6.804  12.598  1.00  0.00    -0.025 C 
BRANCH  18  19
HETATM   19  C5  UNL     1      30.851   7.104  11.764  1.00  0.00     0.031 C 
BRANCH  19  20
HETATM   20  C4  UNL     1      30.710   8.503  11.205  1.00  0.00     0.030 C 
BRANCH  20  21
HETATM   21  C3  UNL     1      31.311   9.449  12.175  1.00  0.00    -0.031 C 
HETATM   22  C2  UNL     1      30.530  10.320  12.784  1.00  0.00    -0.035 C 
HETATM   23  C1  UNL     1      31.121  11.265  13.751  1.00  0.00     0.036 C 
ENDBRANCH  20  21
ENDBRANCH  19  20
ENDBRANCH  18  19
ENDBRANCH   1  17
BRANCH   5  24
HETATM   24  O6  UNL     1      32.639   4.249  16.058  1.00  0.00    -0.343 OA
ATOM     25  H6  UNL     1      31.962   3.585  16.005  1.00  0.00     0.215 HD
ENDBRANCH   5  24
TORSDOF 11
ENDMDL
MODEL 2
REMARK VINA RESULT: -7.866315544      0.842      1.093
REMARK  11 active torsions:
REMARK  status: ('A' for Active; 'I' for Inactive)
REMARK    1  A    between atoms: C3_3  and  C4_4 
REMARK    2  A    between atoms: C4_4  and  C5_5 
REMARK    3  A    between atoms: C5_5  and  C6_6 
REMARK    4  A    between atoms: C7_7  and  C8_8 
REMARK    5  A    between atoms: C9_10  and  C10_11 
REMARK    6  A    between atoms: C10_11  and  S1_12 
REMARK    7  A    between atoms: S1_12  and  C11_13 
REMARK    8  A    between atoms: C11_13  and  C12_14 
REMARK    9  A    between atoms: C12_14  and  O2_15 
REMARK   10  A    between atoms: C12_14  and  C13_17 
REMARK   11  A    between atoms: C14_21  and  O6_23 
ROOT
HETATM    1  C8  UNL     1      30.938   6.686  14.781  1.00  0.00     0.293 C 
HETATM    2  O1  UNL     1      31.111   7.892  15.444  1.00  0.00    -0.327 OA
HETATM    3  C9  UNL     1      32.248   7.798  16.234  1.00  0.00     0.278 C 
HETATM    4  O5  UNL     1      32.903   6.615  15.925  1.00  0.00    -0.301 OA
HETATM    5  C14 UNL     1      32.126   5.559  16.386  1.00  0.00     0.280 C 
HETATM    6  C15 UNL     1      31.917   5.732  17.864  1.00  0.00     0.115 C 
HETATM    7  O7  UNL     1      30.913   5.614  15.696  1.00  0.00    -0.299 OA
ENDROOT
BRANCH   3   8
HETATM    8  C10 UNL     1      33.166   8.990  16.042  1.00  0.00     0.135 C 
BRANCH   8   9
HETATM    9  S1  UNL     1      34.465   8.559  14.864  1.00  0.00    -0.161 SA
BRANCH   9  10
HETATM   10  C11 UNL     1      36.083   8.615  15.715  1.00  0.00     0.116 C 
BRANCH  10  11
HETATM   11  C12 UNL     1      35.831   8.330  17.188  1.00  0.00     0.228 C 
BRANCH  11  12
HETATM   12  O2  UNL     1      35.537   7.003  17.385  1.00  0.00    -0.384 OA
ATOM     13  H2  UNL     1      35.768   6.733  18.267  1.00  0.00     0.210 HD
ENDBRANCH  11  12
BRANCH  11  14
HETATM   14  C13 UNL     1      37.020   8.806  17.939  1.00  0.00     0.203 C 
HETATM   15  O3  UNL     1      37.653   8.097  18.740  1.00  0.00    -0.646 OA
HETATM   16  O4  UNL     1      37.403  10.129  17.696  1.00  0.00    -0.646 OA
ENDBRANCH  11  14
ENDBRANCH  10  11
ENDBRANCH   9  10
ENDBRANCH   8   9
ENDBRANCH   3   8
BRANCH   1  17
HETATM   17  C7  UNL     1      29.685   6.650  14.014  1.00  0.00     0.029 C 
HETATM   18  C6  UNL     1      29.686   6.828  12.706  1.00  0.00    -0.025 C 
BRANCH  18  19
HETATM   19  C5  UNL     1      30.866   7.073  11.868  1.00  0.00     0.031 C 
BRANCH  19  20
HETATM   20  C4  UNL     1      30.761   8.457  11.263  1.00  0.00     0.030 C 
BRANCH  20  21
HETATM   21  C3  UNL     1      31.334   9.425  12.228  1.00  0.00    -0.031 C 
HETATM   22  C2  UNL     1      30.527  10.276  12.831  1.00  0.00    -0.035 C 
HETATM   23  C1  UNL     1      31.089  11.244  13.793  1.00  0.00     0.036 C 
ENDBRANCH  20  21
ENDBRANCH  19  20
ENDBRANCH  18  19
ENDBRANCH   1  17
BRANCH   5  24
HETATM   24  O6  UNL     1      32.699   4.323  16.081  1.00  0.00    -0.343 OA
ATOM     25  H6  UNL     1      32.307   3.934  15.309  1.00  0.00     0.215 HD
ENDBRANCH   5  24
TORSDOF 11
ENDMDL
MODEL 3
REMARK VINA RESULT: -7.671147376      2.378      5.335
REMARK  11 active torsions:
REMARK  status: ('A' for Active; 'I' for Inactive)
REMARK    1  A    between atoms: C3_3  and  C4_4 
REMARK    2  A    between atoms: C4_4  and  C5_5 
REMARK    3  A    between atoms: C5_5  and  C6_6 
REMARK    4  A    between atoms: C7_7  and  C8_8 
REMARK    5  A    between atoms: C9_10  and  C10_11 
REMARK    6  A    between atoms: C10_11  and  S1_12 
REMARK    7  A    between atoms: S1_12  and  C11_13 
REMARK    8  A    between atoms: C11_13  and  C12_14 
REMARK    9  A    between atoms: C12_14  and  O2_15 
REMARK   10  A    between atoms: C12_14  and  C13_17 
REMARK   11  A    between atoms: C14_21  and  O6_23 
ROOT
HETATM    1  C8  UNL     1      31.340   6.201  15.195  1.00  0.00     0.293 C 
HETATM    2  O1  UNL     1      31.814   5.862  13.936  1.00  0.00    -0.327 OA
HETATM    3  C9  UNL     1      31.221   6.702  13.004  1.00  0.00     0.278 C 
HETATM    4  O5  UNL     1      30.530   7.694  13.682  1.00  0.00    -0.301 OA
HETATM    5  C14 UNL     1      29.432   7.108  14.302  1.00  0.00     0.280 C 
HETATM    6  C15 UNL     1      28.594   6.437  13.251  1.00  0.00     0.115 C 
HETATM    7  O7  UNL     1      29.930   6.179  15.217  1.00  0.00    -0.299 OA
ENDROOT
BRANCH   3   8
HETATM    8  C10 UNL     1      32.244   7.305  12.060  1.00  0.00     0.135 C 
BRANCH   8   9
HETATM    9  S1  UNL     1      32.758   8.918  12.688  1.00  0.00    -0.161 SA
BRANCH   9  10
HETATM   10  C11 UNL     1      33.972   8.673  14.033  1.00  0.00     0.116 C 
BRANCH  10  11
HETATM   11  C12 UNL     1      33.582   9.603  15.171  1.00  0.00     0.228 C 
BRANCH  11  12
HETATM   12  O2  UNL     1      32.235   9.522  15.429  1.00  0.00    -0.384 OA
ATOM     13  H2  UNL     1      31.891  10.365  15.699  1.00  0.00     0.210 HD
ENDBRANCH  11  12
BRANCH  11  14
HETATM   14  C13 UNL     1      34.442   9.264  16.334  1.00  0.00     0.203 C 
HETATM   15  O3  UNL     1      34.370   9.841  17.431  1.00  0.00    -0.646 OA
HETATM   16  O4  UNL     1      35.364   8.233  16.125  1.00  0.00    -0.646 OA
ENDBRANCH  11  14
ENDBRANCH  10  11
ENDBRANCH   9  10
ENDBRANCH   8   9
ENDBRANCH   3   8
BRANCH   1  17
HETATM   17  C7  UNL     1      31.820   5.280  16.234  1.00  0.00     0.029 C 
HETATM   18  C6  UNL     1      32.170   5.727  17.426  1.00  0.00    -0.025 C 
BRANCH  18  19
HETATM   19  C5  UNL     1      32.135   7.126  17.869  1.00  0.00     0.031 C 
BRANCH  19  20
HETATM   20  C4  UNL     1      32.608   7.199  19.305  1.00  0.00     0.030 C 
BRANCH  20  21
HETATM   21  C3  UNL     1      34.057   6.886  19.328  1.00  0.00    -0.031 C 
HETATM   22  C2  UNL     1      34.772   7.251  20.374  1.00  0.00    -0.035 C 
HETATM   23  C1  UNL     1      36.215   6.943  20.404  1.00  0.00     0.036 C 
ENDBRANCH  20  21
ENDBRANCH  19  20
ENDBRANCH  18  19
ENDBRANCH   1  17
BRANCH   5  24
HETATM   24  O6  UNL     1      28.698   8.037  15.041  1.00  0.00    -0.343 OA
ATOM     25  H6  UNL     1      28.100   8.530  14.492  1.00  0.00     0.215 HD
ENDBRANCH   5  24
TORSDOF 11
ENDMDL
MODEL 4
REMARK VINA RESULT: -7.664184504      2.120      5.130
REMARK  11 active torsions:
REMARK  status: ('A' for Active; 'I' for Inactive)
REMARK    1  A    between atoms: C3_3  and  C4_4 
REMARK    2  A    between atoms: C4_4  and  C5_5 
REMARK    3  A    between atoms: C5_5  and  C6_6 
REMARK    4  A    between atoms: C7_7  and  C8_8 
REMARK    5  A    between atoms: C9_10  and  C10_11 
REMARK    6  A    between atoms: C10_11  and  S1_12 
REMARK    7  A    between atoms: S1_12  and  C11_13 
REMARK    8  A    between atoms: C11_13  and  C12_14 
REMARK    9  A    between atoms: C12_14  and  O2_15 
REMARK   10  A    between atoms: C12_14  and  C13_17 
REMARK   11  A    between atoms: C14_21  and  O6_23 
ROOT
HETATM    1  C8  UNL     1      31.615   6.598  15.879  1.00  0.00     0.293 C 
HETATM    2  O1  UNL     1      32.478   6.567  14.792  1.00  0.00    -0.327 OA
HETATM    3  C9  UNL     1      31.977   7.412  13.811  1.00  0.00     0.278 C 
HETATM    4  O5  UNL     1      30.915   8.126  14.345  1.00  0.00    -0.301 OA
HETATM    5  C14 UNL     1      29.861   7.243  14.549  1.00  0.00     0.280 C 
HETATM    6  C15 UNL     1      29.520   6.598  13.236  1.00  0.00     0.115 C 
HETATM    7  O7  UNL     1      30.298   6.295  15.477  1.00  0.00    -0.299 OA
ENDROOT
BRANCH   3   8
HETATM    8  C10 UNL     1      33.045   8.348  13.280  1.00  0.00     0.135 C 
BRANCH   8   9
HETATM    9  S1  UNL     1      33.143   9.806  14.341  1.00  0.00    -0.161 SA
BRANCH   9  10
HETATM   10  C11 UNL     1      34.839   9.942  15.010  1.00  0.00     0.116 C 
BRANCH  10  11
HETATM   11  C12 UNL     1      34.853   9.241  16.359  1.00  0.00     0.228 C 
BRANCH  11  12
HETATM   12  O2  UNL     1      34.850   7.876  16.200  1.00  0.00    -0.384 OA
ATOM     13  H2  UNL     1      34.887   7.437  17.042  1.00  0.00     0.210 HD
ENDBRANCH  11  12
BRANCH  11  14
HETATM   14  C13 UNL     1      36.022   9.760  17.115  1.00  0.00     0.203 C 
HETATM   15  O3  UNL     1      37.195   9.647  16.724  1.00  0.00    -0.646 OA
HETATM   16  O4  UNL     1      35.726  10.400  18.323  1.00  0.00    -0.646 OA
ENDBRANCH  11  14
ENDBRANCH  10  11
ENDBRANCH   9  10
ENDBRANCH   8   9
ENDBRANCH   3   8
BRANCH   1  17
HETATM   17  C7  UNL     1      32.000   5.635  16.919  1.00  0.00     0.029 C 
HETATM   18  C6  UNL     1      32.370   6.045  18.118  1.00  0.00    -0.025 C 
BRANCH  18  19
HETATM   19  C5  UNL     1      32.449   7.440  18.569  1.00  0.00     0.031 C 
BRANCH  19  20
HETATM   20  C4  UNL     1      33.151   7.485  19.909  1.00  0.00     0.030 C 
BRANCH  20  21
HETATM   21  C3  UNL     1      34.570   7.110  19.697  1.00  0.00    -0.031 C 
HETATM   22  C2  UNL     1      35.467   7.487  20.587  1.00  0.00    -0.035 C 
HETATM   23  C1  UNL     1      36.882   7.119  20.382  1.00  0.00     0.036 C 
ENDBRANCH  20  21
ENDBRANCH  19  20
ENDBRANCH  18  19
ENDBRANCH   1  17
BRANCH   5  24
HETATM   24  O6  UNL     1      28.758   7.878  15.122  1.00  0.00    -0.343 OA
ATOM     25  H6  UNL     1      28.906   8.086  16.036  1.00  0.00     0.215 HD
ENDBRANCH   5  24
TORSDOF 11
ENDMDL
MODEL 5
REMARK VINA RESULT: -7.619518093      1.122      1.437
REMARK  11 active torsions:
REMARK  status: ('A' for Active; 'I' for Inactive)
REMARK    1  A    between atoms: C3_3  and  C4_4 
REMARK    2  A    between atoms: C4_4  and  C5_5 
REMARK    3  A    between atoms: C5_5  and  C6_6 
REMARK    4  A    between atoms: C7_7  and  C8_8 
REMARK    5  A    between atoms: C9_10  and  C10_11 
REMARK    6  A    between atoms: C10_11  and  S1_12 
REMARK    7  A    between atoms: S1_12  and  C11_13 
REMARK    8  A    between atoms: C11_13  and  C12_14 
REMARK    9  A    between atoms: C12_14  and  O2_15 
REMARK   10  A    between atoms: C12_14  and  C13_17 
REMARK   11  A    between atoms: C14_21  and  O6_23 
ROOT
HETATM    1  C8  UNL     1      30.851   6.942  15.275  1.00  0.00     0.293 C 
HETATM    2  O1  UNL     1      31.135   8.054  16.056  1.00  0.00    -0.327 OA
HETATM    3  C9  UNL     1      32.326   7.822  16.731  1.00  0.00     0.278 C 
HETATM    4  O5  UNL     1      32.896   6.660  16.232  1.00  0.00    -0.301 OA
HETATM    5  C14 UNL     1      32.108   5.587  16.633  1.00  0.00     0.280 C 
HETATM    6  C15 UNL     1      32.026   5.592  18.133  1.00  0.00     0.115 C 
HETATM    7  O7  UNL     1      30.848   5.771  16.060  1.00  0.00    -0.299 OA
ENDROOT
BRANCH   3   8
HETATM    8  C10 UNL     1      33.282   8.992  16.599  1.00  0.00     0.135 C 
BRANCH   8   9
HETATM    9  S1  UNL     1      34.493   8.631  15.310  1.00  0.00    -0.161 SA
BRANCH   9  10
HETATM   10  C11 UNL     1      36.129   8.375  16.086  1.00  0.00     0.116 C 
BRANCH  10  11
HETATM   11  C12 UNL     1      35.896   8.135  17.569  1.00  0.00     0.228 C 
BRANCH  11  12
HETATM   12  O2  UNL     1      35.660   6.805  17.817  1.00  0.00    -0.384 OA
ATOM     13  H2  UNL     1      36.476   6.324  17.891  1.00  0.00     0.210 HD
ENDBRANCH  11  12
BRANCH  11  14
HETATM   14  C13 UNL     1      37.068   8.688  18.295  1.00  0.00     0.203 C 
HETATM   15  O3  UNL     1      37.367   9.894  18.296  1.00  0.00    -0.646 OA
HETATM   16  O4  UNL     1      37.839   7.758  18.999  1.00  0.00    -0.646 OA
ENDBRANCH  11  14
ENDBRANCH  10  11
ENDBRANCH   9  10
ENDBRANCH   8   9
ENDBRANCH   3   8
BRANCH   1  17
HETATM   17  C7  UNL     1      29.541   7.047  14.619  1.00  0.00     0.029 C 
HETATM   18  C6  UNL     1      29.407   7.687  13.472  1.00  0.00    -0.025 C 
BRANCH  18  19
HETATM   19  C5  UNL     1      30.480   8.350  12.721  1.00  0.00     0.031 C 
BRANCH  19  20
HETATM   20  C4  UNL     1      30.461   9.830  13.040  1.00  0.00     0.030 C 
BRANCH  20  21
HETATM   21  C3  UNL     1      31.031  10.557  11.881  1.00  0.00    -0.031 C 
HETATM   22  C2  UNL     1      31.320   9.883  10.785  1.00  0.00    -0.035 C 
HETATM   23  C1  UNL     1      31.889  10.600   9.627  1.00  0.00     0.036 C 
ENDBRANCH  20  21
ENDBRANCH  19  20
ENDBRANCH  18  19
ENDBRANCH   1  17
BRANCH   5  24
HETATM   24  O6  UNL     1      32.594   4.375  16.140  1.00  0.00    -0.343 OA
ATOM     25  H6  UNL     1      33.047   4.488  15.313  1.00  0.00     0.215 HD
ENDBRANCH   5  24
TORSDOF 11
ENDMDL
