MODEL 1
REMARK VINA RESULT: -8.065116506      0.000      0.000
REMARK  8 active torsions:
REMARK  status: ('A' for Active; 'I' for Inactive)
REMARK    1  A    between atoms: C2_2  and  C3_3 
REMARK    2  A    between atoms: C4_4  and  N1_5 
REMARK    3  A    between atoms: N1_5  and  C5_7 
REMARK    4  A    between atoms: C5_7  and  C6_8 
REMARK    5  A    between atoms: C6_8  and  C8_10 
REMARK    6  A    between atoms: C12_18  and  N4_19 
REMARK    7  A    between atoms: N4_19  and  C13_21 
REMARK    8  A    between atoms: C13_21  and  C14_22 
ROOT
HETATM    1  C3  UNL     1      33.986   8.389  14.486  1.00  0.00     0.029 A 
HETATM    2  C4  UNL     1      32.861   7.581  14.301  1.00  0.00     0.112 A 
HETATM    3  N2  UNL     1      32.370   6.903  15.381  1.00  0.00    -0.332 N 
ATOM      4  H2  UNL     1      31.550   6.312  15.246  1.00  0.00     0.168 HD
HETATM    5  C10 UNL     1      32.904   6.972  16.606  1.00  0.00     0.080 A 
HETATM    6  C11 UNL     1      32.319   6.206  17.746  1.00  0.00     0.089 C 
HETATM    7  N3  UNL     1      33.982   7.757  16.747  1.00  0.00    -0.332 N 
ATOM      8  H3  UNL     1      34.410   7.825  17.670  1.00  0.00     0.168 HD
HETATM    9  C12 UNL     1      34.535   8.462  15.733  1.00  0.00     0.112 A 
ENDROOT
BRANCH   9  10
HETATM   10  N4  UNL     1      35.687   9.239  16.020  1.00  0.00    -0.371 N 
ATOM     11  H4  UNL     1      35.779  10.142  15.554  1.00  0.00     0.161 HD
BRANCH  10  12
HETATM   12  C13 UNL     1      36.739   8.841  16.927  1.00  0.00     0.185 C 
BRANCH  12  13
HETATM   13  C14 UNL     1      36.885   9.651  18.150  1.00  0.00     0.379 C 
HETATM   14  O1  UNL     1      35.629  10.119  18.531  1.00  0.00    -0.352 OA
HETATM   15  C15 UNL     1      35.223   9.365  19.627  1.00  0.00     0.236 C 
HETATM   16  C16 UNL     1      36.549   9.337  20.404  1.00  0.00     0.446 C 
HETATM   17  N5  UNL     1      36.630   8.256  21.328  1.00  0.00    -0.040 N 
HETATM   18  N6  UNL     1      37.434   9.028  19.294  1.00  0.00     0.153 N 
HETATM   19  C17 UNL     1      37.247   7.138  20.645  1.00  0.00     0.265 C 
ATOM     20  H52 UNL     1      37.111   8.507  22.192  1.00  0.00     0.279 HD
ATOM     21  H51 UNL     1      35.728   8.019  21.741  1.00  0.00     0.279 HD
HETATM   22  C18 UNL     1      37.617   7.626  19.257  1.00  0.00     0.306 C 
ENDBRANCH  12  13
ENDBRANCH  10  12
ENDBRANCH   9  10
BRANCH   1  23
HETATM   23  C2  UNL     1      34.534   9.136  13.346  1.00  0.00     0.042 C 
HETATM   24  C1  UNL     1      34.175  10.607  13.358  1.00  0.00     0.010 C 
ENDBRANCH   1  23
BRANCH   2  25
HETATM   25  N1  UNL     1      32.235   7.443  13.043  1.00  0.00    -0.375 N 
ATOM     26  H1  UNL     1      32.782   7.199  12.217  1.00  0.00     0.161 HD
BRANCH  25  27
HETATM   27  C5  UNL     1      30.818   7.649  12.939  1.00  0.00     0.125 C 
BRANCH  27  28
HETATM   28  C6  UNL     1      30.428   8.945  12.307  1.00  0.00    -0.001 C 
HETATM   29  C7  UNL     1      31.419   9.206  11.176  1.00  0.00     0.011 C 
BRANCH  28  30
HETATM   30  C8  UNL     1      30.448  10.050  13.326  1.00  0.00     0.001 C 
HETATM   31  C9  UNL     1      30.760  11.392  12.741  1.00  0.00     0.005 C 
ENDBRANCH  28  30
ENDBRANCH  27  28
ENDBRANCH  25  27
ENDBRANCH   2  25
TORSDOF 8
ENDMDL
MODEL 2
REMARK VINA RESULT: -7.858312756      2.423      7.855
REMARK  8 active torsions:
REMARK  status: ('A' for Active; 'I' for Inactive)
REMARK    1  A    between atoms: C2_2  and  C3_3 
REMARK    2  A    between atoms: C4_4  and  N1_5 
REMARK    3  A    between atoms: N1_5  and  C5_7 
REMARK    4  A    between atoms: C5_7  and  C6_8 
REMARK    5  A    between atoms: C6_8  and  C8_10 
REMARK    6  A    between atoms: C12_18  and  N4_19 
REMARK    7  A    between atoms: N4_19  and  C13_21 
REMARK    8  A    between atoms: C13_21  and  C14_22 
ROOT
HETATM    1  C3  UNL     1      33.548   7.764  17.127  1.00  0.00     0.029 A 
HETATM    2  C4  UNL     1      34.928   7.619  17.286  1.00  0.00     0.112 A 
HETATM    3  N2  UNL     1      35.745   8.128  16.316  1.00  0.00    -0.332 N 
ATOM      4  H2  UNL     1      36.753   8.022  16.431  1.00  0.00     0.168 HD
HETATM    5  C10 UNL     1      35.297   8.759  15.225  1.00  0.00     0.080 A 
HETATM    6  C11 UNL     1      36.243   9.295  14.202  1.00  0.00     0.089 C 
HETATM    7  N3  UNL     1      33.967   8.881  15.105  1.00  0.00    -0.332 N 
ATOM      8  H3  UNL     1      33.600   9.357  14.282  1.00  0.00     0.168 HD
HETATM    9  C12 UNL     1      33.086   8.406  16.016  1.00  0.00     0.112 A 
ENDROOT
BRANCH   9  10
HETATM   10  N4  UNL     1      31.703   8.588  15.754  1.00  0.00    -0.371 N 
ATOM     11  H4  UNL     1      31.247   9.408  16.155  1.00  0.00     0.161 HD
BRANCH  10  12
HETATM   12  C13 UNL     1      30.895   7.693  14.957  1.00  0.00     0.185 C 
BRANCH  12  13
HETATM   13  C14 UNL     1      30.854   7.968  13.509  1.00  0.00     0.379 C 
HETATM   14  O1  UNL     1      31.930   7.324  12.900  1.00  0.00    -0.352 OA
HETATM   15  C15 UNL     1      31.422   6.209  12.240  1.00  0.00     0.236 C 
HETATM   16  C16 UNL     1      30.167   6.847  11.622  1.00  0.00     0.446 C 
HETATM   17  N5  UNL     1      29.166   5.891  11.285  1.00  0.00    -0.040 N 
HETATM   18  N6  UNL     1      29.702   7.570  12.793  1.00  0.00     0.153 N 
HETATM   19  C17 UNL     1      28.283   5.758  12.425  1.00  0.00     0.265 C 
ATOM     20  H52 UNL     1      28.669   6.123  10.424  1.00  0.00     0.279 HD
ATOM     21  H51 UNL     1      29.556   5.000  10.980  1.00  0.00     0.279 HD
HETATM   22  C18 UNL     1      28.758   6.758  13.462  1.00  0.00     0.306 C 
ENDBRANCH  12  13
ENDBRANCH  10  12
ENDBRANCH   9  10
BRANCH   1  23
HETATM   23  C2  UNL     1      32.643   7.233  18.155  1.00  0.00     0.042 C 
HETATM   24  C1  UNL     1      32.156   5.828  17.864  1.00  0.00     0.010 C 
ENDBRANCH   1  23
BRANCH   2  25
HETATM   25  N1  UNL     1      35.491   6.961  18.402  1.00  0.00    -0.375 N 
ATOM     26  H1  UNL     1      35.177   6.027  18.663  1.00  0.00     0.161 HD
BRANCH  25  27
HETATM   27  C5  UNL     1      36.510   7.624  19.165  1.00  0.00     0.125 C 
BRANCH  27  28
HETATM   28  C6  UNL     1      36.052   8.141  20.489  1.00  0.00    -0.001 C 
HETATM   29  C7  UNL     1      34.903   7.246  20.944  1.00  0.00     0.011 C 
BRANCH  28  30
HETATM   30  C8  UNL     1      35.621   9.576  20.369  1.00  0.00     0.001 C 
HETATM   31  C9  UNL     1      36.401  10.348  19.350  1.00  0.00     0.005 C 
ENDBRANCH  28  30
ENDBRANCH  27  28
ENDBRANCH  25  27
ENDBRANCH   2  25
TORSDOF 8
ENDMDL
MODEL 3
REMARK VINA RESULT: -7.830747571      1.165      1.535
REMARK  8 active torsions:
REMARK  status: ('A' for Active; 'I' for Inactive)
REMARK    1  A    between atoms: C2_2  and  C3_3 
REMARK    2  A    between atoms: C4_4  and  N1_5 
REMARK    3  A    between atoms: N1_5  and  C5_7 
REMARK    4  A    between atoms: C5_7  and  C6_8 
REMARK    5  A    between atoms: C6_8  and  C8_10 
REMARK    6  A    between atoms: C12_18  and  N4_19 
REMARK    7  A    between atoms: N4_19  and  C13_21 
REMARK    8  A    between atoms: C13_21  and  C14_22 
ROOT
HETATM    1  C3  UNL     1      33.463   8.171  14.604  1.00  0.00     0.029 A 
HETATM    2  C4  UNL     1      32.623   7.099  14.297  1.00  0.00     0.112 A 
HETATM    3  N2  UNL     1      32.184   6.310  15.323  1.00  0.00    -0.332 N 
ATOM      4  H2  UNL     1      31.570   5.526  15.099  1.00  0.00     0.168 HD
HETATM    5  C10 UNL     1      32.513   6.509  16.605  1.00  0.00     0.080 A 
HETATM    6  C11 UNL     1      31.998   5.611  17.681  1.00  0.00     0.089 C 
HETATM    7  N3  UNL     1      33.322   7.547  16.863  1.00  0.00    -0.332 N 
ATOM      8  H3  UNL     1      33.588   7.719  17.832  1.00  0.00     0.168 HD
HETATM    9  C12 UNL     1      33.803   8.377  15.909  1.00  0.00     0.112 A 
ENDROOT
BRANCH   9  10
HETATM   10  N4  UNL     1      34.665   9.427  16.321  1.00  0.00    -0.371 N 
ATOM     11  H4  UNL     1      34.445  10.373  16.008  1.00  0.00     0.161 HD
BRANCH  10  12
HETATM   12  C13 UNL     1      35.832   9.249  17.155  1.00  0.00     0.185 C 
BRANCH  12  13
HETATM   13  C14 UNL     1      35.752   9.811  18.515  1.00  0.00     0.379 C 
HETATM   14  O1  UNL     1      34.493   9.533  19.042  1.00  0.00    -0.352 OA
HETATM   15  C15 UNL     1      34.650   8.507  19.968  1.00  0.00     0.236 C 
HETATM   16  C16 UNL     1      35.930   9.003  20.662  1.00  0.00     0.446 C 
HETATM   17  N5  UNL     1      36.641   7.964  21.328  1.00  0.00    -0.040 N 
HETATM   18  N6  UNL     1      36.687   9.357  19.474  1.00  0.00     0.153 N 
HETATM   19  C17 UNL     1      37.607   7.424  20.395  1.00  0.00     0.265 C 
ATOM     20  H52 UNL     1      37.065   8.272  22.204  1.00  0.00     0.279 HD
ATOM     21  H51 UNL     1      36.026   7.252  21.720  1.00  0.00     0.279 HD
HETATM   22  C18 UNL     1      37.501   8.253  19.129  1.00  0.00     0.306 C 
ENDBRANCH  12  13
ENDBRANCH  10  12
ENDBRANCH   9  10
BRANCH   1  23
HETATM   23  C2  UNL     1      33.947   9.041  13.524  1.00  0.00     0.042 C 
HETATM   24  C1  UNL     1      33.068  10.250  13.281  1.00  0.00     0.010 C 
ENDBRANCH   1  23
BRANCH   2  25
HETATM   25  N1  UNL     1      32.228   6.809  12.972  1.00  0.00    -0.375 N 
ATOM     26  H1  UNL     1      32.720   7.228  12.184  1.00  0.00     0.161 HD
BRANCH  25  27
HETATM   27  C5  UNL     1      31.126   5.916  12.749  1.00  0.00     0.125 C 
BRANCH  27  28
HETATM   28  C6  UNL     1      29.939   6.551  12.103  1.00  0.00    -0.001 C 
HETATM   29  C7  UNL     1      30.367   7.946  11.656  1.00  0.00     0.011 C 
BRANCH  28  30
HETATM   30  C8  UNL     1      28.788   6.609  13.068  1.00  0.00     0.001 C 
HETATM   31  C9  UNL     1      28.860   7.770  14.010  1.00  0.00     0.005 C 
ENDBRANCH  28  30
ENDBRANCH  27  28
ENDBRANCH  25  27
ENDBRANCH   2  25
TORSDOF 8
ENDMDL
MODEL 4
REMARK VINA RESULT: -7.808828866      1.150      1.698
REMARK  8 active torsions:
REMARK  status: ('A' for Active; 'I' for Inactive)
REMARK    1  A    between atoms: C2_2  and  C3_3 
REMARK    2  A    between atoms: C4_4  and  N1_5 
REMARK    3  A    between atoms: N1_5  and  C5_7 
REMARK    4  A    between atoms: C5_7  and  C6_8 
REMARK    5  A    between atoms: C6_8  and  C8_10 
REMARK    6  A    between atoms: C12_18  and  N4_19 
REMARK    7  A    between atoms: N4_19  and  C13_21 
REMARK    8  A    between atoms: C13_21  and  C14_22 
ROOT
HETATM    1  C3  UNL     1      33.118   8.927  14.952  1.00  0.00     0.029 A 
HETATM    2  C4  UNL     1      31.775   8.561  15.072  1.00  0.00     0.112 A 
HETATM    3  N2  UNL     1      31.449   7.597  15.985  1.00  0.00    -0.332 N 
ATOM      4  H2  UNL     1      30.469   7.330  16.072  1.00  0.00     0.168 HD
HETATM    5  C10 UNL     1      32.344   6.985  16.769  1.00  0.00     0.080 A 
HETATM    6  C11 UNL     1      31.923   5.940  17.748  1.00  0.00     0.089 C 
HETATM    7  N3  UNL     1      33.623   7.361  16.626  1.00  0.00    -0.332 N 
ATOM      8  H3  UNL     1      34.325   6.909  17.212  1.00  0.00     0.168 HD
HETATM    9  C12 UNL     1      34.034   8.305  15.749  1.00  0.00     0.112 A 
ENDROOT
BRANCH   9  10
HETATM   10  N4  UNL     1      35.423   8.592  15.690  1.00  0.00    -0.371 N 
ATOM     11  H4  UNL     1      35.780   9.037  14.844  1.00  0.00     0.161 HD
BRANCH  10  12
HETATM   12  C13 UNL     1      36.366   8.297  16.744  1.00  0.00     0.185 C 
BRANCH  12  13
HETATM   13  C14 UNL     1      36.521   9.327  17.786  1.00  0.00     0.379 C 
HETATM   14  O1  UNL     1      35.256   9.717  18.223  1.00  0.00    -0.352 OA
HETATM   15  C15 UNL     1      35.054   9.137  19.470  1.00  0.00     0.236 C 
HETATM   16  C16 UNL     1      36.440   9.395  20.084  1.00  0.00     0.446 C 
HETATM   17  N5  UNL     1      36.744   8.517  21.163  1.00  0.00    -0.040 N 
HETATM   18  N6  UNL     1      37.250   8.988  18.949  1.00  0.00     0.153 N 
HETATM   19  C17 UNL     1      37.432   7.367  20.614  1.00  0.00     0.265 C 
ATOM     20  H52 UNL     1      37.267   8.973  21.911  1.00  0.00     0.279 HD
ATOM     21  H51 UNL     1      35.922   8.263  21.710  1.00  0.00     0.279 HD
HETATM   22  C18 UNL     1      37.605   7.632  19.131  1.00  0.00     0.306 C 
ENDBRANCH  12  13
ENDBRANCH  10  12
ENDBRANCH   9  10
BRANCH   1  23
HETATM   23  C2  UNL     1      33.500   9.964  13.985  1.00  0.00     0.042 C 
HETATM   24  C1  UNL     1      34.074   9.409  12.697  1.00  0.00     0.010 C 
ENDBRANCH   1  23
BRANCH   2  25
HETATM   25  N1  UNL     1      30.763   9.148  14.282  1.00  0.00    -0.375 N 
ATOM     26  H1  UNL     1      30.674  10.162  14.226  1.00  0.00     0.161 HD
BRANCH  25  27
HETATM   27  C5  UNL     1      29.861   8.300  13.556  1.00  0.00     0.125 C 
BRANCH  27  28
HETATM   28  C6  UNL     1      30.488   7.558  12.422  1.00  0.00    -0.001 C 
HETATM   29  C7  UNL     1      30.818   8.586  11.344  1.00  0.00     0.011 C 
BRANCH  28  30
HETATM   30  C8  UNL     1      29.552   6.500  11.909  1.00  0.00     0.001 C 
HETATM   31  C9  UNL     1      28.407   6.221  12.831  1.00  0.00     0.005 C 
ENDBRANCH  28  30
ENDBRANCH  27  28
ENDBRANCH  25  27
ENDBRANCH   2  25
TORSDOF 8
ENDMDL
MODEL 5
REMARK VINA RESULT: -7.802090064      1.026      1.156
REMARK  8 active torsions:
REMARK  status: ('A' for Active; 'I' for Inactive)
REMARK    1  A    between atoms: C2_2  and  C3_3 
REMARK    2  A    between atoms: C4_4  and  N1_5 
REMARK    3  A    between atoms: N1_5  and  C5_7 
REMARK    4  A    between atoms: C5_7  and  C6_8 
REMARK    5  A    between atoms: C6_8  and  C8_10 
REMARK    6  A    between atoms: C12_18  and  N4_19 
REMARK    7  A    between atoms: N4_19  and  C13_21 
REMARK    8  A    between atoms: C13_21  and  C14_22 
ROOT
HETATM    1  C3  UNL     1      33.576   9.330  15.015  1.00  0.00     0.029 A 
HETATM    2  C4  UNL     1      32.197   9.119  15.087  1.00  0.00     0.112 A 
HETATM    3  N2  UNL     1      31.740   8.110  15.888  1.00  0.00    -0.332 N 
ATOM      4  H2  UNL     1      30.733   7.956  15.939  1.00  0.00     0.168 HD
HETATM    5  C10 UNL     1      32.539   7.316  16.609  1.00  0.00     0.080 A 
HETATM    6  C11 UNL     1      31.976   6.231  17.467  1.00  0.00     0.089 C 
HETATM    7  N3  UNL     1      33.856   7.546  16.516  1.00  0.00    -0.332 N 
ATOM      8  H3  UNL     1      34.487   6.953  17.055  1.00  0.00     0.168 HD
HETATM    9  C12 UNL     1      34.395   8.521  15.748  1.00  0.00     0.112 A 
ENDROOT
BRANCH   9  10
HETATM   10  N4  UNL     1      35.809   8.642  15.730  1.00  0.00    -0.371 N 
ATOM     11  H4  UNL     1      36.247   8.958  14.865  1.00  0.00     0.161 HD
BRANCH  10  12
HETATM   12  C13 UNL     1      36.671   8.349  16.852  1.00  0.00     0.185 C 
BRANCH  12  13
HETATM   13  C14 UNL     1      36.767   9.392  17.889  1.00  0.00     0.379 C 
HETATM   14  O1  UNL     1      35.482   9.826  18.210  1.00  0.00    -0.352 OA
HETATM   15  C15 UNL     1      35.156   9.272  19.443  1.00  0.00     0.236 C 
HETATM   16  C16 UNL     1      36.491   9.501  20.170  1.00  0.00     0.446 C 
HETATM   17  N5  UNL     1      36.674   8.632  21.284  1.00  0.00    -0.040 N 
HETATM   18  N6  UNL     1      37.383   9.051  19.115  1.00  0.00     0.153 N 
HETATM   19  C17 UNL     1      37.372   7.454  20.813  1.00  0.00     0.265 C 
ATOM     20  H52 UNL     1      37.146   9.085  22.067  1.00  0.00     0.279 HD
ATOM     21  H51 UNL     1      35.801   8.411  21.762  1.00  0.00     0.279 HD
HETATM   22  C18 UNL     1      37.680   7.688  19.346  1.00  0.00     0.306 C 
ENDBRANCH  12  13
ENDBRANCH  10  12
ENDBRANCH   9  10
BRANCH   1  23
HETATM   23  C2  UNL     1      34.098  10.409  14.168  1.00  0.00     0.042 C 
HETATM   24  C1  UNL     1      34.570   9.936  12.808  1.00  0.00     0.010 C 
ENDBRANCH   1  23
BRANCH   2  25
HETATM   25  N1  UNL     1      31.278   9.904  14.356  1.00  0.00    -0.375 N 
ATOM     26  H1  UNL     1      31.187  10.902  14.544  1.00  0.00     0.161 HD
BRANCH  25  27
HETATM   27  C5  UNL     1      30.474   9.280  13.343  1.00  0.00     0.125 C 
BRANCH  27  28
HETATM   28  C6  UNL     1      30.582   9.910  11.994  1.00  0.00    -0.001 C 
HETATM   29  C7  UNL     1      31.467   9.000  11.145  1.00  0.00     0.011 C 
BRANCH  28  30
HETATM   30  C8  UNL     1      31.161  11.293  12.108  1.00  0.00     0.001 C 
HETATM   31  C9  UNL     1      31.687  11.826  10.811  1.00  0.00     0.005 C 
ENDBRANCH  28  30
ENDBRANCH  27  28
ENDBRANCH  25  27
ENDBRANCH   2  25
TORSDOF 8
ENDMDL
