MODEL 1
REMARK VINA RESULT: -7.520498026      0.000      0.000
REMARK  13 active torsions:
REMARK  status: ('A' for Active; 'I' for Inactive)
REMARK    1  A    between atoms: C2_2  and  C3_3 
REMARK    2  A    between atoms: C3_3  and  C4_4 
REMARK    3  A    between atoms: C4_4  and  C5_5 
REMARK    4  A    between atoms: C5_5  and  N1_6 
REMARK    5  A    between atoms: N1_6  and  C6_8 
REMARK    6  A    between atoms: C7_11  and  N3_12 
REMARK    7  A    between atoms: C9_18  and  N5_19 
REMARK    8  A    between atoms: C10_24  and  N7_25 
REMARK    9  A    between atoms: N8_28  and  C11_29 
REMARK   10  A    between atoms: C12_31  and  C13_32 
REMARK   11  A    between atoms: C13_32  and  N9_33 
REMARK   12  A    between atoms: C15_37  and  O2_38 
REMARK   13  A    between atoms: C16_40  and  O3_41 
ROOT
HETATM    1  C6  UNL     1      42.710  30.469  21.256  1.00  0.00     0.147 A 
HETATM    2  N2  UNL     1      43.827  30.815  21.937  1.00  0.00    -0.175 N 
ATOM      3  H2  UNL     1      43.732  31.222  22.867  1.00  0.00     0.186 HD
HETATM    4  C7  UNL     1      45.053  30.638  21.429  1.00  0.00     0.678 A 
HETATM    5  N4  UNL     1      45.159  30.098  20.200  1.00  0.00    -0.186 N 
ATOM      6  H4  UNL     1      46.082  29.953  19.791  1.00  0.00     0.184 HD
HETATM    7  C8  UNL     1      44.043  29.741  19.494  1.00  0.00     0.124 A 
HETATM    8  C9  UNL     1      44.172  29.192  18.241  1.00  0.00     0.144 A 
HETATM    9  N6  UNL     1      43.065  28.868  17.605  1.00  0.00    -0.174 N 
ATOM     10  H6  UNL     1      43.139  28.459  16.673  1.00  0.00     0.186 HD
HETATM   11  C10 UNL     1      41.850  29.051  18.129  1.00  0.00     0.686 A 
HETATM   12  N8  UNL     1      41.615  29.595  19.379  1.00  0.00    -0.122 N 
HETATM   13  C17 UNL     1      42.767  29.920  20.012  1.00  0.00     0.134 A 
ENDROOT
BRANCH  12  14
HETATM   14  C11 UNL     1      40.318  29.775  19.891  1.00  0.00     0.174 C 
HETATM   15  O1  UNL     1      39.709  28.909  20.782  1.00  0.00    -0.326 OA
HETATM   16  C12 UNL     1      38.352  29.142  20.649  1.00  0.00     0.187 C 
HETATM   17  C15 UNL     1      38.132  30.474  20.024  1.00  0.00     0.186 C 
HETATM   18  C16 UNL     1      39.533  31.006  19.657  1.00  0.00     0.225 C 
BRANCH  16  19
HETATM   19  C13 UNL     1      37.627  28.008  19.976  1.00  0.00     0.266 C 
BRANCH  19  20
HETATM   20  N9  UNL     1      36.193  28.203  20.005  1.00  0.00    -0.076 N 
HETATM   21  C14 UNL     1      35.721  27.814  21.338  1.00  0.00     0.267 C 
ATOM     22  H92 UNL     1      35.916  29.149  19.745  1.00  0.00     0.276 HD
ATOM     23  H91 UNL     1      35.711  27.710  19.253  1.00  0.00     0.276 HD
ENDBRANCH  19  20
ENDBRANCH  16  19
BRANCH  17  24
HETATM   24  O2  UNL     1      37.456  31.366  20.847  1.00  0.00    -0.390 OA
ATOM     25  H2  UNL     1      36.571  31.089  21.057  1.00  0.00     0.210 HD
ENDBRANCH  17  24
BRANCH  18  26
HETATM   26  O3  UNL     1      39.521  31.419  18.299  1.00  0.00    -0.385 OA
ATOM     27  H3  UNL     1      38.853  32.067  18.106  1.00  0.00     0.210 HD
ENDBRANCH  18  26
ENDBRANCH  12  14
BRANCH  11  28
HETATM   28  N7  UNL     1      40.897  28.681  17.381  1.00  0.00    -0.234 N 
ATOM     29  H72 UNL     1      40.824  29.002  16.416  1.00  0.00     0.174 HD
ATOM     30  H71 UNL     1      40.232  28.051  17.829  1.00  0.00     0.174 HD
ENDBRANCH  11  28
BRANCH   1  31
HETATM   31  N1  UNL     1      41.637  30.684  21.825  1.00  0.00    -0.374 N 
ATOM     32  H1  UNL     1      40.835  30.231  21.387  1.00  0.00     0.161 HD
BRANCH  31  33
HETATM   33  C5  UNL     1      41.313  31.451  22.987  1.00  0.00     0.121 C 
BRANCH  33  34
HETATM   34  C4  UNL     1      39.915  31.171  23.489  1.00  0.00     0.020 C 
BRANCH  34  35
HETATM   35  C3  UNL     1      39.233  32.499  23.746  1.00  0.00     0.001 C 
BRANCH  35  36
HETATM   36  C2  UNL     1      39.577  33.522  22.696  1.00  0.00    -0.004 C 
HETATM   37  C1  UNL     1      38.519  34.583  22.665  1.00  0.00     0.005 C 
ENDBRANCH  35  36
ENDBRANCH  34  35
ENDBRANCH  33  34
ENDBRANCH  31  33
ENDBRANCH   1  31
BRANCH   8  38
HETATM   38  N5  UNL     1      45.337  29.000  17.705  1.00  0.00    -0.383 N 
ATOM     39  H52 UNL     1      45.540  28.156  17.169  1.00  0.00     0.157 HD
ATOM     40  H51 UNL     1      46.086  29.686  17.802  1.00  0.00     0.157 HD
ENDBRANCH   8  38
BRANCH   4  41
HETATM   41  N3  UNL     1      46.128  30.955  22.047  1.00  0.00    -0.234 N 
ATOM     42  H32 UNL     1      46.378  31.941  22.109  1.00  0.00     0.174 HD
ATOM     43  H31 UNL     1      46.749  30.273  22.483  1.00  0.00     0.174 HD
ENDBRANCH   4  41
TORSDOF 13
ENDMDL
MODEL 2
REMARK VINA RESULT: -7.466674539      0.966      1.122
REMARK  13 active torsions:
REMARK  status: ('A' for Active; 'I' for Inactive)
REMARK    1  A    between atoms: C2_2  and  C3_3 
REMARK    2  A    between atoms: C3_3  and  C4_4 
REMARK    3  A    between atoms: C4_4  and  C5_5 
REMARK    4  A    between atoms: C5_5  and  N1_6 
REMARK    5  A    between atoms: N1_6  and  C6_8 
REMARK    6  A    between atoms: C7_11  and  N3_12 
REMARK    7  A    between atoms: C9_18  and  N5_19 
REMARK    8  A    between atoms: C10_24  and  N7_25 
REMARK    9  A    between atoms: N8_28  and  C11_29 
REMARK   10  A    between atoms: C12_31  and  C13_32 
REMARK   11  A    between atoms: C13_32  and  N9_33 
REMARK   12  A    between atoms: C15_37  and  O2_38 
REMARK   13  A    between atoms: C16_40  and  O3_41 
ROOT
HETATM    1  C6  UNL     1      43.084  30.348  20.627  1.00  0.00     0.147 A 
HETATM    2  N2  UNL     1      44.280  30.737  21.127  1.00  0.00    -0.175 N 
ATOM      3  H2  UNL     1      44.316  31.146  22.060  1.00  0.00     0.186 HD
HETATM    4  C7  UNL     1      45.417  30.602  20.435  1.00  0.00     0.678 A 
HETATM    5  N4  UNL     1      45.351  30.059  19.204  1.00  0.00    -0.186 N 
ATOM      6  H4  UNL     1      46.204  29.945  18.657  1.00  0.00     0.184 HD
HETATM    7  C8  UNL     1      44.153  29.659  18.680  1.00  0.00     0.124 A 
HETATM    8  C9  UNL     1      44.106  29.108  17.422  1.00  0.00     0.144 A 
HETATM    9  N6  UNL     1      42.926  28.741  16.965  1.00  0.00    -0.174 N 
ATOM     10  H6  UNL     1      42.869  28.331  16.033  1.00  0.00     0.186 HD
HETATM   11  C10 UNL     1      41.801  28.884  17.672  1.00  0.00     0.686 A 
HETATM   12  N8  UNL     1      41.743  29.426  18.943  1.00  0.00    -0.122 N 
HETATM   13  C17 UNL     1      42.967  29.795  19.389  1.00  0.00     0.134 A 
ENDROOT
BRANCH  12  14
HETATM   14  C11 UNL     1      40.536  29.562  19.650  1.00  0.00     0.174 C 
HETATM   15  O1  UNL     1      40.064  28.638  20.566  1.00  0.00    -0.326 OA
HETATM   16  C12 UNL     1      38.703  28.866  20.648  1.00  0.00     0.187 C 
HETATM   17  C15 UNL     1      38.393  30.232  20.145  1.00  0.00     0.186 C 
HETATM   18  C16 UNL     1      39.724  30.798  19.610  1.00  0.00     0.225 C 
BRANCH  16  19
HETATM   19  C13 UNL     1      37.887  27.769  20.020  1.00  0.00     0.266 C 
BRANCH  19  20
HETATM   20  N9  UNL     1      36.552  28.221  19.690  1.00  0.00    -0.076 N 
HETATM   21  C14 UNL     1      35.662  27.802  20.778  1.00  0.00     0.267 C 
ATOM     22  H92 UNL     1      36.507  29.223  19.503  1.00  0.00     0.276 HD
ATOM     23  H91 UNL     1      36.239  27.900  18.774  1.00  0.00     0.276 HD
ENDBRANCH  19  20
ENDBRANCH  16  19
BRANCH  17  24
HETATM   24  O2  UNL     1      37.845  31.065  21.112  1.00  0.00    -0.390 OA
ATOM     25  H2  UNL     1      37.867  30.693  21.987  1.00  0.00     0.210 HD
ENDBRANCH  17  24
BRANCH  18  26
HETATM   26  O3  UNL     1      39.513  31.293  18.296  1.00  0.00    -0.385 OA
ATOM     27  H3  UNL     1      38.721  30.960  17.889  1.00  0.00     0.210 HD
ENDBRANCH  18  26
ENDBRANCH  12  14
BRANCH  11  28
HETATM   28  N7  UNL     1      40.758  28.476  17.081  1.00  0.00    -0.234 N 
ATOM     29  H72 UNL     1      40.022  29.123  16.794  1.00  0.00     0.174 HD
ATOM     30  H71 UNL     1      40.729  27.469  16.927  1.00  0.00     0.174 HD
ENDBRANCH  11  28
BRANCH   1  31
HETATM   31  N1  UNL     1      42.105  30.528  21.357  1.00  0.00    -0.374 N 
ATOM     32  H1  UNL     1      41.257  30.059  21.038  1.00  0.00     0.161 HD
BRANCH  31  33
HETATM   33  C5  UNL     1      41.943  31.273  22.565  1.00  0.00     0.121 C 
BRANCH  33  34
HETATM   34  C4  UNL     1      41.163  32.551  22.352  1.00  0.00     0.020 C 
BRANCH  34  35
HETATM   35  C3  UNL     1      42.143  33.706  22.359  1.00  0.00     0.001 C 
BRANCH  35  36
HETATM   36  C2  UNL     1      41.468  35.017  22.666  1.00  0.00    -0.004 C 
HETATM   37  C1  UNL     1      39.983  34.816  22.713  1.00  0.00     0.005 C 
ENDBRANCH  35  36
ENDBRANCH  34  35
ENDBRANCH  33  34
ENDBRANCH  31  33
ENDBRANCH   1  31
BRANCH   8  38
HETATM   38  N5  UNL     1      45.180  28.955  16.711  1.00  0.00    -0.383 N 
ATOM     39  H52 UNL     1      46.074  28.727  17.146  1.00  0.00     0.157 HD
ATOM     40  H51 UNL     1      45.164  29.058  15.696  1.00  0.00     0.157 HD
ENDBRANCH   8  38
BRANCH   4  41
HETATM   41  N3  UNL     1      46.563  30.960  20.879  1.00  0.00    -0.234 N 
ATOM     42  H32 UNL     1      47.109  31.624  20.331  1.00  0.00     0.174 HD
ATOM     43  H31 UNL     1      46.961  30.616  21.754  1.00  0.00     0.174 HD
ENDBRANCH   4  41
TORSDOF 13
ENDMDL
MODEL 3
REMARK VINA RESULT: -7.459881999      0.871      1.303
REMARK  13 active torsions:
REMARK  status: ('A' for Active; 'I' for Inactive)
REMARK    1  A    between atoms: C2_2  and  C3_3 
REMARK    2  A    between atoms: C3_3  and  C4_4 
REMARK    3  A    between atoms: C4_4  and  C5_5 
REMARK    4  A    between atoms: C5_5  and  N1_6 
REMARK    5  A    between atoms: N1_6  and  C6_8 
REMARK    6  A    between atoms: C7_11  and  N3_12 
REMARK    7  A    between atoms: C9_18  and  N5_19 
REMARK    8  A    between atoms: C10_24  and  N7_25 
REMARK    9  A    between atoms: N8_28  and  C11_29 
REMARK   10  A    between atoms: C12_31  and  C13_32 
REMARK   11  A    between atoms: C13_32  and  N9_33 
REMARK   12  A    between atoms: C15_37  and  O2_38 
REMARK   13  A    between atoms: C16_40  and  O3_41 
ROOT
HETATM    1  C6  UNL     1      42.489  30.519  21.333  1.00  0.00     0.147 A 
HETATM    2  N2  UNL     1      43.615  30.891  21.986  1.00  0.00    -0.175 N 
ATOM      3  H2  UNL     1      43.530  31.361  22.887  1.00  0.00     0.186 HD
HETATM    4  C7  UNL     1      44.835  30.660  21.488  1.00  0.00     0.678 A 
HETATM    5  N4  UNL     1      44.928  30.037  20.298  1.00  0.00    -0.186 N 
ATOM      6  H4  UNL     1      45.847  29.849  19.897  1.00  0.00     0.184 HD
HETATM    7  C8  UNL     1      43.804  29.652  19.620  1.00  0.00     0.124 A 
HETATM    8  C9  UNL     1      43.919  29.018  18.407  1.00  0.00     0.144 A 
HETATM    9  N6  UNL     1      42.804  28.671  17.796  1.00  0.00    -0.174 N 
ATOM     10  H6  UNL     1      42.868  28.200  16.894  1.00  0.00     0.186 HD
HETATM   11  C10 UNL     1      41.594  28.910  18.310  1.00  0.00     0.686 A 
HETATM   12  N8  UNL     1      41.373  29.540  19.521  1.00  0.00    -0.122 N 
HETATM   13  C17 UNL     1      42.533  29.887  20.128  1.00  0.00     0.134 A 
ENDROOT
BRANCH  12  14
HETATM   14  C11 UNL     1      40.082  29.776  20.023  1.00  0.00     0.174 C 
HETATM   15  O1  UNL     1      39.439  28.952  20.931  1.00  0.00    -0.326 OA
HETATM   16  C12 UNL     1      38.092  29.227  20.787  1.00  0.00     0.187 C 
HETATM   17  C15 UNL     1      37.920  30.552  20.130  1.00  0.00     0.186 C 
HETATM   18  C16 UNL     1      39.340  31.027  19.758  1.00  0.00     0.225 C 
BRANCH  16  19
HETATM   19  C13 UNL     1      37.331  28.104  20.136  1.00  0.00     0.266 C 
BRANCH  19  20
HETATM   20  N9  UNL     1      35.960  28.053  20.597  1.00  0.00    -0.076 N 
HETATM   21  C14 UNL     1      35.990  27.814  22.045  1.00  0.00     0.267 C 
ATOM     22  H92 UNL     1      35.425  28.883  20.343  1.00  0.00     0.276 HD
ATOM     23  H91 UNL     1      35.397  27.369  20.093  1.00  0.00     0.276 HD
ENDBRANCH  19  20
ENDBRANCH  16  19
BRANCH  17  24
HETATM   24  O2  UNL     1      37.272  31.484  20.931  1.00  0.00    -0.390 OA
ATOM     25  H2  UNL     1      37.711  31.640  21.759  1.00  0.00     0.210 HD
ENDBRANCH  17  24
BRANCH  18  26
HETATM   26  O3  UNL     1      39.347  31.409  18.391  1.00  0.00    -0.385 OA
ATOM     27  H3  UNL     1      38.868  32.212  18.220  1.00  0.00     0.210 HD
ENDBRANCH  18  26
ENDBRANCH  12  14
BRANCH  11  28
HETATM   28  N7  UNL     1      40.633  28.506  17.591  1.00  0.00    -0.234 N 
ATOM     29  H72 UNL     1      40.644  28.619  16.578  1.00  0.00     0.174 HD
ATOM     30  H71 UNL     1      39.871  28.073  18.113  1.00  0.00     0.174 HD
ENDBRANCH  11  28
BRANCH   1  31
HETATM   31  N1  UNL     1      41.422  30.790  21.889  1.00  0.00    -0.374 N 
ATOM     32  H1  UNL     1      40.603  30.692  21.289  1.00  0.00     0.161 HD
BRANCH  31  33
HETATM   33  C5  UNL     1      41.125  31.215  23.221  1.00  0.00     0.121 C 
BRANCH  33  34
HETATM   34  C4  UNL     1      39.687  31.659  23.374  1.00  0.00     0.020 C 
BRANCH  34  35
HETATM   35  C3  UNL     1      39.166  31.117  24.689  1.00  0.00     0.001 C 
BRANCH  35  36
HETATM   36  C2  UNL     1      38.266  29.925  24.491  1.00  0.00    -0.004 C 
HETATM   37  C1  UNL     1      36.843  30.325  24.741  1.00  0.00     0.005 C 
ENDBRANCH  35  36
ENDBRANCH  34  35
ENDBRANCH  33  34
ENDBRANCH  31  33
ENDBRANCH   1  31
BRANCH   8  38
HETATM   38  N5  UNL     1      45.079  28.771  17.881  1.00  0.00    -0.383 N 
ATOM     39  H52 UNL     1      45.622  27.954  18.160  1.00  0.00     0.157 HD
ATOM     40  H51 UNL     1      45.483  29.385  17.174  1.00  0.00     0.157 HD
ENDBRANCH   8  38
BRANCH   4  41
HETATM   41  N3  UNL     1      45.918  30.999  22.081  1.00  0.00    -0.234 N 
ATOM     42  H32 UNL     1      46.510  30.263  22.466  1.00  0.00     0.174 HD
ATOM     43  H31 UNL     1      46.221  31.967  22.191  1.00  0.00     0.174 HD
ENDBRANCH   4  41
TORSDOF 13
ENDMDL
MODEL 4
REMARK VINA RESULT: -7.265049290      1.912      5.250
REMARK  13 active torsions:
REMARK  status: ('A' for Active; 'I' for Inactive)
REMARK    1  A    between atoms: C2_2  and  C3_3 
REMARK    2  A    between atoms: C3_3  and  C4_4 
REMARK    3  A    between atoms: C4_4  and  C5_5 
REMARK    4  A    between atoms: C5_5  and  N1_6 
REMARK    5  A    between atoms: N1_6  and  C6_8 
REMARK    6  A    between atoms: C7_11  and  N3_12 
REMARK    7  A    between atoms: C9_18  and  N5_19 
REMARK    8  A    between atoms: C10_24  and  N7_25 
REMARK    9  A    between atoms: N8_28  and  C11_29 
REMARK   10  A    between atoms: C12_31  and  C13_32 
REMARK   11  A    between atoms: C13_32  and  N9_33 
REMARK   12  A    between atoms: C15_37  and  O2_38 
REMARK   13  A    between atoms: C16_40  and  O3_41 
ROOT
HETATM    1  C6  UNL     1      39.845  30.161  19.801  1.00  0.00     0.147 A 
HETATM    2  N2  UNL     1      39.773  29.445  18.654  1.00  0.00    -0.175 N 
ATOM      3  H2  UNL     1      38.859  29.281  18.232  1.00  0.00     0.186 HD
HETATM    4  C7  UNL     1      40.862  28.946  18.058  1.00  0.00     0.678 A 
HETATM    5  N4  UNL     1      42.059  29.173  18.630  1.00  0.00    -0.186 N 
ATOM      6  H4  UNL     1      42.904  28.803  18.195  1.00  0.00     0.184 HD
HETATM    7  C8  UNL     1      42.156  29.894  19.788  1.00  0.00     0.124 A 
HETATM    8  C9  UNL     1      43.387  30.114  20.358  1.00  0.00     0.144 A 
HETATM    9  N6  UNL     1      43.422  30.813  21.473  1.00  0.00    -0.174 N 
ATOM     10  H6  UNL     1      44.326  30.987  21.912  1.00  0.00     0.186 HD
HETATM   11  C10 UNL     1      42.323  31.304  22.054  1.00  0.00     0.686 A 
HETATM   12  N8  UNL     1      41.042  31.138  21.561  1.00  0.00    -0.122 N 
HETATM   13  C17 UNL     1      41.033  30.416  20.415  1.00  0.00     0.134 A 
ENDROOT
BRANCH  12  14
HETATM   14  C11 UNL     1      39.912  31.668  22.206  1.00  0.00     0.174 C 
HETATM   15  O1  UNL     1      39.278  32.838  21.826  1.00  0.00    -0.326 OA
HETATM   16  C12 UNL     1      38.580  33.258  22.943  1.00  0.00     0.187 C 
HETATM   17  C15 UNL     1      38.394  32.113  23.876  1.00  0.00     0.186 C 
HETATM   18  C16 UNL     1      39.180  30.935  23.262  1.00  0.00     0.225 C 
BRANCH  16  19
HETATM   19  C13 UNL     1      39.172  34.488  23.575  1.00  0.00     0.266 C 
BRANCH  19  20
HETATM   20  N9  UNL     1      39.826  35.327  22.594  1.00  0.00    -0.076 N 
HETATM   21  C14 UNL     1      41.167  35.640  23.103  1.00  0.00     0.267 C 
ATOM     22  H92 UNL     1      39.842  34.911  21.663  1.00  0.00     0.276 HD
ATOM     23  H91 UNL     1      39.286  36.159  22.360  1.00  0.00     0.276 HD
ENDBRANCH  19  20
ENDBRANCH  16  19
BRANCH  17  24
HETATM   24  O2  UNL     1      37.061  31.777  24.078  1.00  0.00    -0.390 OA
ATOM     25  H2  UNL     1      36.647  31.397  23.311  1.00  0.00     0.210 HD
ENDBRANCH  17  24
BRANCH  18  26
HETATM   26  O3  UNL     1      40.027  30.385  24.259  1.00  0.00    -0.385 OA
ATOM     27  H3  UNL     1      40.952  30.515  24.084  1.00  0.00     0.210 HD
ENDBRANCH  18  26
ENDBRANCH  12  14
BRANCH  11  28
HETATM   28  N7  UNL     1      42.541  31.954  23.119  1.00  0.00    -0.234 N 
ATOM     29  H72 UNL     1      42.802  31.483  23.985  1.00  0.00     0.174 HD
ATOM     30  H71 UNL     1      42.432  32.964  23.025  1.00  0.00     0.174 HD
ENDBRANCH  11  28
BRANCH   1  31
HETATM   31  N1  UNL     1      38.773  30.566  20.259  1.00  0.00    -0.374 N 
ATOM     32  H1  UNL     1      38.861  31.072  21.140  1.00  0.00     0.161 HD
BRANCH  31  33
HETATM   33  C5  UNL     1      37.431  30.454  19.779  1.00  0.00     0.121 C 
BRANCH  33  34
HETATM   34  C4  UNL     1      36.584  29.552  20.649  1.00  0.00     0.020 C 
BRANCH  34  35
HETATM   35  C3  UNL     1      36.631  28.156  20.063  1.00  0.00     0.001 C 
BRANCH  35  36
HETATM   36  C2  UNL     1      37.487  27.228  20.885  1.00  0.00    -0.004 C 
HETATM   37  C1  UNL     1      37.524  27.707  22.305  1.00  0.00     0.005 C 
ENDBRANCH  35  36
ENDBRANCH  34  35
ENDBRANCH  33  34
ENDBRANCH  31  33
ENDBRANCH   1  31
BRANCH   8  38
HETATM   38  N5  UNL     1      44.472  29.652  19.819  1.00  0.00    -0.383 N 
ATOM     39  H52 UNL     1      45.379  29.765  20.274  1.00  0.00     0.157 HD
ATOM     40  H51 UNL     1      44.454  29.161  18.924  1.00  0.00     0.157 HD
ENDBRANCH   8  38
BRANCH   4  41
HETATM   41  N3  UNL     1      40.826  28.265  16.975  1.00  0.00    -0.234 N 
ATOM     42  H32 UNL     1      40.337  27.370  16.981  1.00  0.00     0.174 HD
ATOM     43  H31 UNL     1      41.261  28.569  16.103  1.00  0.00     0.174 HD
ENDBRANCH   4  41
TORSDOF 13
ENDMDL
MODEL 5
REMARK VINA RESULT: -7.246912551      2.644      5.948
REMARK  13 active torsions:
REMARK  status: ('A' for Active; 'I' for Inactive)
REMARK    1  A    between atoms: C2_2  and  C3_3 
REMARK    2  A    between atoms: C3_3  and  C4_4 
REMARK    3  A    between atoms: C4_4  and  C5_5 
REMARK    4  A    between atoms: C5_5  and  N1_6 
REMARK    5  A    between atoms: N1_6  and  C6_8 
REMARK    6  A    between atoms: C7_11  and  N3_12 
REMARK    7  A    between atoms: C9_18  and  N5_19 
REMARK    8  A    between atoms: C10_24  and  N7_25 
REMARK    9  A    between atoms: N8_28  and  C11_29 
REMARK   10  A    between atoms: C12_31  and  C13_32 
REMARK   11  A    between atoms: C13_32  and  N9_33 
REMARK   12  A    between atoms: C15_37  and  O2_38 
REMARK   13  A    between atoms: C16_40  and  O3_41 
ROOT
HETATM    1  C6  UNL     1      38.043  30.507  21.506  1.00  0.00     0.147 A 
HETATM    2  N2  UNL     1      36.842  29.973  21.185  1.00  0.00    -0.175 N 
ATOM      3  H2  UNL     1      36.013  30.281  21.693  1.00  0.00     0.186 HD
HETATM    4  C7  UNL     1      36.707  29.052  20.223  1.00  0.00     0.678 A 
HETATM    5  N4  UNL     1      37.813  28.657  19.563  1.00  0.00    -0.186 N 
ATOM      6  H4  UNL     1      37.736  27.957  18.826  1.00  0.00     0.184 HD
HETATM    7  C8  UNL     1      39.036  29.184  19.870  1.00  0.00     0.124 A 
HETATM    8  C9  UNL     1      40.153  28.767  19.186  1.00  0.00     0.144 A 
HETATM    9  N6  UNL     1      41.307  29.306  19.523  1.00  0.00    -0.174 N 
ATOM     10  H6  UNL     1      42.147  29.010  19.028  1.00  0.00     0.186 HD
HETATM   11  C10 UNL     1      41.421  30.225  20.487  1.00  0.00     0.686 A 
HETATM   12  N8  UNL     1      40.361  30.709  21.231  1.00  0.00    -0.122 N 
HETATM   13  C17 UNL     1      39.188  30.139  20.866  1.00  0.00     0.134 A 
ENDROOT
BRANCH  12  14
HETATM   14  C11 UNL     1      40.527  31.673  22.240  1.00  0.00     0.174 C 
HETATM   15  O1  UNL     1      40.284  33.025  22.069  1.00  0.00    -0.326 OA
HETATM   16  C12 UNL     1      41.007  33.656  23.064  1.00  0.00     0.187 C 
HETATM   17  C15 UNL     1      41.325  32.683  24.145  1.00  0.00     0.186 C 
HETATM   18  C16 UNL     1      40.818  31.315  23.645  1.00  0.00     0.225 C 
BRANCH  16  19
HETATM   19  C13 UNL     1      42.196  34.411  22.535  1.00  0.00     0.266 C 
BRANCH  19  20
HETATM   20  N9  UNL     1      41.893  35.813  22.343  1.00  0.00    -0.076 N 
HETATM   21  C14 UNL     1      41.391  36.336  23.619  1.00  0.00     0.267 C 
ATOM     22  H92 UNL     1      42.684  36.344  21.979  1.00  0.00     0.276 HD
ATOM     23  H91 UNL     1      41.252  35.978  21.566  1.00  0.00     0.276 HD
ENDBRANCH  19  20
ENDBRANCH  16  19
BRANCH  17  24
HETATM   24  O2  UNL     1      40.756  33.013  25.369  1.00  0.00    -0.390 OA
ATOM     25  H2  UNL     1      39.997  32.485  25.587  1.00  0.00     0.210 HD
ENDBRANCH  17  24
BRANCH  18  26
HETATM   26  O3  UNL     1      41.864  30.365  23.781  1.00  0.00    -0.385 OA
ATOM     27  H3  UNL     1      42.257  30.114  22.953  1.00  0.00     0.210 HD
ENDBRANCH  18  26
ENDBRANCH  12  14
BRANCH  11  28
HETATM   28  N7  UNL     1      42.604  30.637  20.677  1.00  0.00    -0.234 N 
ATOM     29  H72 UNL     1      43.102  30.437  21.544  1.00  0.00     0.174 HD
ATOM     30  H71 UNL     1      42.992  31.172  19.901  1.00  0.00     0.174 HD
ENDBRANCH  11  28
BRANCH   1  31
HETATM   31  N1  UNL     1      38.043  31.344  22.412  1.00  0.00    -0.374 N 
ATOM     32  H1  UNL     1      38.967  31.544  22.795  1.00  0.00     0.161 HD
BRANCH  31  33
HETATM   33  C5  UNL     1      36.984  32.082  23.025  1.00  0.00     0.121 C 
BRANCH  33  34
HETATM   34  C4  UNL     1      36.964  31.919  24.528  1.00  0.00     0.020 C 
BRANCH  34  35
HETATM   35  C3  UNL     1      36.488  30.516  24.842  1.00  0.00     0.001 C 
BRANCH  35  36
HETATM   36  C2  UNL     1      37.513  29.733  25.620  1.00  0.00    -0.004 C 
HETATM   37  C1  UNL     1      38.074  28.645  24.755  1.00  0.00     0.005 C 
ENDBRANCH  35  36
ENDBRANCH  34  35
ENDBRANCH  33  34
ENDBRANCH  31  33
ENDBRANCH   1  31
BRANCH   8  38
HETATM   38  N5  UNL     1      40.075  27.878  18.245  1.00  0.00    -0.383 N 
ATOM     39  H52 UNL     1      39.346  27.923  17.533  1.00  0.00     0.157 HD
ATOM     40  H51 UNL     1      40.740  27.106  18.187  1.00  0.00     0.157 HD
ENDBRANCH   8  38
BRANCH   4  41
HETATM   41  N3  UNL     1      35.586  28.528  19.897  1.00  0.00    -0.234 N 
ATOM     42  H32 UNL     1      34.886  29.121  19.451  1.00  0.00     0.174 HD
ATOM     43  H31 UNL     1      35.353  27.548  20.059  1.00  0.00     0.174 HD
ENDBRANCH   4  41
TORSDOF 13
ENDMDL
