MODEL 1
REMARK VINA RESULT: -7.374477619      0.000      0.000
REMARK  12 active torsions:
REMARK  status: ('A' for Active; 'I' for Inactive)
REMARK    1  A    between atoms: C5_10  and  N3_11 
REMARK    2  A    between atoms: N3_11  and  C6_13 
REMARK    3  A    between atoms: C6_13  and  C7_14 
REMARK    4  A    between atoms: C7_14  and  N4_15 
REMARK    5  A    between atoms: C8_21  and  N6_22 
REMARK    6  A    between atoms: N6_22  and  C9_24 
REMARK    7  A    between atoms: C9_24  and  C10_25 
REMARK    8  A    between atoms: C10_25  and  C11_26 
REMARK    9  A    between atoms: C11_26  and  C12_27 
REMARK   10  A    between atoms: C12_27  and  N7_28 
REMARK   11  A    between atoms: N7_28  and  C13_30 
REMARK   12  A    between atoms: C14_35  and  N10_36 
ROOT
HETATM    1  C1  UNL     1      38.039  28.648  21.924  1.00  0.00     0.035 C 
HETATM    2  C2  UNL     1      38.209  29.317  20.570  1.00  0.00     0.065 C 
HETATM    3  S1  UNL     1      37.136  30.764  20.409  1.00  0.00    -0.080 SA
HETATM    4  C3  UNL     1      37.940  28.289  19.514  1.00  0.00     0.147 C 
HETATM    5  N1  UNL     1      39.207  27.611  19.403  1.00  0.00    -0.373 N 
ATOM      6  H1  UNL     1      39.359  26.634  19.151  1.00  0.00     0.161 HD
HETATM    7  C4  UNL     1      40.202  28.577  19.714  1.00  0.00     0.128 A 
HETATM    8  N2  UNL     1      41.534  28.661  19.465  1.00  0.00    -0.176 N 
ATOM      9  H2  UNL     1      41.983  27.902  18.952  1.00  0.00     0.186 HD
HETATM   10  C5  UNL     1      42.288  29.698  19.863  1.00  0.00     0.681 A 
HETATM   11  N5  UNL     1      41.699  30.704  20.543  1.00  0.00    -0.176 N 
ATOM     12  H5  UNL     1      42.272  31.492  20.847  1.00  0.00     0.186 HD
HETATM   13  C8  UNL     1      40.390  30.707  20.835  1.00  0.00     0.128 A 
HETATM   14  C15 UNL     1      39.633  29.625  20.412  1.00  0.00     0.051 A 
ENDROOT
BRANCH  13  15
HETATM   15  N6  UNL     1      39.792  31.645  21.482  1.00  0.00    -0.375 N 
ATOM     16  H6  UNL     1      38.776  31.731  21.493  1.00  0.00     0.161 HD
BRANCH  15  17
HETATM   17  C9  UNL     1      40.652  32.574  22.195  1.00  0.00     0.121 C 
BRANCH  17  18
HETATM   18  C10 UNL     1      39.938  33.781  22.715  1.00  0.00     0.021 C 
BRANCH  18  19
HETATM   19  C11 UNL     1      38.498  33.737  22.311  1.00  0.00     0.022 C 
BRANCH  19  20
HETATM   20  C12 UNL     1      37.612  33.821  23.551  1.00  0.00     0.138 C 
BRANCH  20  21
HETATM   21  N7  UNL     1      36.809  32.649  23.697  1.00  0.00    -0.224 N 
ATOM     22  H7  UNL     1      35.875  32.671  23.289  1.00  0.00     0.177 HD
BRANCH  21  23
HETATM   23  C13 UNL     1      37.166  31.561  24.303  1.00  0.00     0.707 A 
HETATM   24  N8  UNL     1      38.405  31.314  24.753  1.00  0.00    -0.117 N 
HETATM   25  N9  UNL     1      38.401  30.122  25.312  1.00  0.00    -0.118 N 
ATOM     26  H8  UNL     1      39.207  31.939  24.677  1.00  0.00     0.206 HD
HETATM   27  C14 UNL     1      37.174  29.588  25.232  1.00  0.00     0.705 A 
ATOM     28  H9  UNL     1      39.209  29.672  25.741  1.00  0.00     0.206 HD
HETATM   29  N11 UNL     1      36.421  30.493  24.604  1.00  0.00    -0.020 N 
ATOM     30  H11 UNL     1      35.430  30.386  24.386  1.00  0.00     0.203 HD
BRANCH  27  31
HETATM   31  N10 UNL     1      36.835  28.424  25.686  1.00  0.00    -0.233 N 
ATOM     32 2H10 UNL     1      37.134  27.502  25.369  1.00  0.00     0.174 HD
ATOM     33 1H10 UNL     1      36.192  28.258  26.461  1.00  0.00     0.174 HD
ENDBRANCH  27  31
ENDBRANCH  21  23
ENDBRANCH  20  21
ENDBRANCH  19  20
ENDBRANCH  18  19
ENDBRANCH  17  18
ENDBRANCH  15  17
ENDBRANCH  13  15
BRANCH  10  34
HETATM   34  N3  UNL     1      43.692  29.755  19.583  1.00  0.00    -0.224 N 
ATOM     35  H3  UNL     1      44.266  30.490  19.998  1.00  0.00     0.177 HD
BRANCH  34  36
HETATM   36  C6  UNL     1      44.292  28.772  18.716  1.00  0.00     0.165 C 
BRANCH  36  37
HETATM   37  C7  UNL     1      44.368  29.241  17.300  1.00  0.00     0.249 C 
BRANCH  37  38
HETATM   38  N4  UNL     1      45.729  29.269  16.794  1.00  0.00    -0.078 N 
ATOM     39  H43 UNL     1      45.828  29.954  16.044  1.00  0.00     0.274 HD
ATOM     40  H42 UNL     1      46.366  29.681  17.476  1.00  0.00     0.274 HD
ATOM     41  H41 UNL     1      46.056  28.350  16.496  1.00  0.00     0.274 HD
ENDBRANCH  37  38
ENDBRANCH  36  37
ENDBRANCH  34  36
ENDBRANCH  10  34
TORSDOF 12
ENDMDL
MODEL 2
REMARK VINA RESULT: -7.363139001      2.217      7.440
REMARK  12 active torsions:
REMARK  status: ('A' for Active; 'I' for Inactive)
REMARK    1  A    between atoms: C5_10  and  N3_11 
REMARK    2  A    between atoms: N3_11  and  C6_13 
REMARK    3  A    between atoms: C6_13  and  C7_14 
REMARK    4  A    between atoms: C7_14  and  N4_15 
REMARK    5  A    between atoms: C8_21  and  N6_22 
REMARK    6  A    between atoms: N6_22  and  C9_24 
REMARK    7  A    between atoms: C9_24  and  C10_25 
REMARK    8  A    between atoms: C10_25  and  C11_26 
REMARK    9  A    between atoms: C11_26  and  C12_27 
REMARK   10  A    between atoms: C12_27  and  N7_28 
REMARK   11  A    between atoms: N7_28  and  C13_30 
REMARK   12  A    between atoms: C14_35  and  N10_36 
ROOT
HETATM    1  C1  UNL     1      41.516  31.777  23.854  1.00  0.00     0.035 C 
HETATM    2  C2  UNL     1      40.078  32.218  23.635  1.00  0.00     0.065 C 
HETATM    3  S1  UNL     1      39.990  33.682  22.578  1.00  0.00    -0.080 SA
HETATM    4  C3  UNL     1      39.461  32.449  24.981  1.00  0.00     0.147 C 
HETATM    5  N1  UNL     1      39.056  31.123  25.375  1.00  0.00    -0.373 N 
ATOM      6  H1  UNL     1      38.999  30.757  26.326  1.00  0.00     0.161 HD
HETATM    7  C4  UNL     1      38.751  30.428  24.173  1.00  0.00     0.128 A 
HETATM    8  N2  UNL     1      38.021  29.317  23.894  1.00  0.00    -0.176 N 
ATOM      9  H2  UNL     1      37.570  28.825  24.665  1.00  0.00     0.186 HD
HETATM   10  C5  UNL     1      37.866  28.838  22.651  1.00  0.00     0.681 A 
HETATM   11  N5  UNL     1      38.462  29.486  21.627  1.00  0.00    -0.176 N 
ATOM     12  H5  UNL     1      38.345  29.122  20.681  1.00  0.00     0.186 HD
HETATM   13  C8  UNL     1      39.201  30.591  21.807  1.00  0.00     0.128 A 
HETATM   14  C15 UNL     1      39.346  31.065  23.101  1.00  0.00     0.051 A 
ENDROOT
BRANCH  13  15
HETATM   15  N6  UNL     1      39.786  31.235  20.859  1.00  0.00    -0.375 N 
ATOM     16  H6  UNL     1      39.752  32.253  20.797  1.00  0.00     0.161 HD
BRANCH  15  17
HETATM   17  C9  UNL     1      40.496  30.427  19.883  1.00  0.00     0.121 C 
BRANCH  17  18
HETATM   18  C10 UNL     1      39.840  30.387  18.539  1.00  0.00     0.021 C 
BRANCH  18  19
HETATM   19  C11 UNL     1      39.742  28.974  18.060  1.00  0.00     0.022 C 
BRANCH  19  20
HETATM   20  C12 UNL     1      40.492  28.823  16.739  1.00  0.00     0.138 C 
BRANCH  20  21
HETATM   21  N7  UNL     1      41.692  28.067  16.905  1.00  0.00    -0.224 N 
ATOM     22  H7  UNL     1      41.608  27.050  16.884  1.00  0.00     0.177 HD
BRANCH  21  23
HETATM   23  C13 UNL     1      42.876  28.560  17.081  1.00  0.00     0.707 A 
HETATM   24  N8  UNL     1      43.789  28.709  16.109  1.00  0.00    -0.117 N 
HETATM   25  N9  UNL     1      44.868  29.237  16.646  1.00  0.00    -0.118 N 
ATOM     26  H8  UNL     1      43.667  28.457  15.128  1.00  0.00     0.206 HD
HETATM   27  C14 UNL     1      44.671  29.435  17.957  1.00  0.00     0.705 A 
ATOM     28  H9  UNL     1      45.725  29.462  16.141  1.00  0.00     0.206 HD
HETATM   29  N11 UNL     1      43.432  29.010  18.210  1.00  0.00    -0.020 N 
ATOM     30  H11 UNL     1      42.979  29.026  19.124  1.00  0.00     0.203 HD
BRANCH  27  31
HETATM   31  N10 UNL     1      45.539  29.940  18.775  1.00  0.00    -0.233 N 
ATOM     32 2H10 UNL     1      46.341  30.535  18.568  1.00  0.00     0.174 HD
ATOM     33 1H10 UNL     1      45.542  29.808  19.786  1.00  0.00     0.174 HD
ENDBRANCH  27  31
ENDBRANCH  21  23
ENDBRANCH  20  21
ENDBRANCH  19  20
ENDBRANCH  18  19
ENDBRANCH  17  18
ENDBRANCH  15  17
ENDBRANCH  13  15
BRANCH  10  34
HETATM   34  N3  UNL     1      37.089  27.662  22.391  1.00  0.00    -0.224 N 
ATOM     35  H3  UNL     1      36.595  27.197  23.153  1.00  0.00     0.177 HD
BRANCH  34  36
HETATM   36  C6  UNL     1      37.007  27.139  21.050  1.00  0.00     0.165 C 
BRANCH  36  37
HETATM   37  C7  UNL     1      35.706  27.470  20.394  1.00  0.00     0.249 C 
BRANCH  37  38
HETATM   38  N4  UNL     1      35.646  28.848  19.938  1.00  0.00    -0.078 N 
ATOM     39  H43 UNL     1      34.795  29.306  20.264  1.00  0.00     0.274 HD
ATOM     40  H42 UNL     1      36.337  29.424  20.418  1.00  0.00     0.274 HD
ATOM     41  H41 UNL     1      35.741  28.930  18.926  1.00  0.00     0.274 HD
ENDBRANCH  37  38
ENDBRANCH  36  37
ENDBRANCH  34  36
ENDBRANCH  10  34
TORSDOF 12
ENDMDL
MODEL 3
REMARK VINA RESULT: -7.131338126      2.260      4.608
REMARK  12 active torsions:
REMARK  status: ('A' for Active; 'I' for Inactive)
REMARK    1  A    between atoms: C5_10  and  N3_11 
REMARK    2  A    between atoms: N3_11  and  C6_13 
REMARK    3  A    between atoms: C6_13  and  C7_14 
REMARK    4  A    between atoms: C7_14  and  N4_15 
REMARK    5  A    between atoms: C8_21  and  N6_22 
REMARK    6  A    between atoms: N6_22  and  C9_24 
REMARK    7  A    between atoms: C9_24  and  C10_25 
REMARK    8  A    between atoms: C10_25  and  C11_26 
REMARK    9  A    between atoms: C11_26  and  C12_27 
REMARK   10  A    between atoms: C12_27  and  N7_28 
REMARK   11  A    between atoms: N7_28  and  C13_30 
REMARK   12  A    between atoms: C14_35  and  N10_36 
ROOT
HETATM    1  C1  UNL     1      42.995  30.458  16.980  1.00  0.00     0.035 C 
HETATM    2  C2  UNL     1      42.966  29.150  17.752  1.00  0.00     0.065 C 
HETATM    3  S1  UNL     1      44.461  28.939  18.748  1.00  0.00    -0.080 SA
HETATM    4  C3  UNL     1      42.778  28.040  16.764  1.00  0.00     0.147 C 
HETATM    5  N1  UNL     1      41.349  28.025  16.573  1.00  0.00    -0.373 N 
ATOM      6  H1  UNL     1      40.847  27.756  15.727  1.00  0.00     0.161 HD
HETATM    7  C4  UNL     1      40.781  28.461  17.801  1.00  0.00     0.128 A 
HETATM    8  N2  UNL     1      39.546  28.341  18.354  1.00  0.00    -0.176 N 
ATOM      9  H2  UNL     1      38.824  27.847  17.831  1.00  0.00     0.186 HD
HETATM   10  C5  UNL     1      39.234  28.843  19.559  1.00  0.00     0.681 A 
HETATM   11  N5  UNL     1      40.187  29.499  20.255  1.00  0.00    -0.176 N 
ATOM     12  H5  UNL     1      39.951  29.882  21.171  1.00  0.00     0.186 HD
HETATM   13  C8  UNL     1      41.434  29.666  19.788  1.00  0.00     0.128 A 
HETATM   14  C15 UNL     1      41.731  29.138  18.542  1.00  0.00     0.051 A 
ENDROOT
BRANCH  13  15
HETATM   15  N6  UNL     1      42.368  30.285  20.419  1.00  0.00    -0.375 N 
ATOM     16  H6  UNL     1      43.275  30.475  19.992  1.00  0.00     0.161 HD
BRANCH  15  17
HETATM   17  C9  UNL     1      42.055  30.698  21.776  1.00  0.00     0.121 C 
BRANCH  17  18
HETATM   18  C10 UNL     1      41.798  32.165  21.918  1.00  0.00     0.021 C 
BRANCH  18  19
HETATM   19  C11 UNL     1      40.728  32.400  22.937  1.00  0.00     0.022 C 
BRANCH  19  20
HETATM   20  C12 UNL     1      39.501  33.009  22.265  1.00  0.00     0.138 C 
BRANCH  20  21
HETATM   21  N7  UNL     1      38.494  32.024  22.028  1.00  0.00    -0.224 N 
ATOM     22  H7  UNL     1      38.336  31.743  21.060  1.00  0.00     0.177 HD
BRANCH  21  23
HETATM   23  C13 UNL     1      37.766  31.456  22.936  1.00  0.00     0.707 A 
HETATM   24  N8  UNL     1      36.958  32.112  23.782  1.00  0.00    -0.117 N 
HETATM   25  N9  UNL     1      36.378  31.222  24.558  1.00  0.00    -0.118 N 
ATOM     26  H8  UNL     1      36.818  33.122  23.817  1.00  0.00     0.206 HD
HETATM   27  C14 UNL     1      36.796  29.992  24.230  1.00  0.00     0.705 A 
ATOM     28  H9  UNL     1      35.710  31.436  25.299  1.00  0.00     0.206 HD
HETATM   29  N11 UNL     1      37.657  30.155  23.223  1.00  0.00    -0.020 N 
ATOM     30  H11 UNL     1      38.154  29.403  22.746  1.00  0.00     0.203 HD
BRANCH  27  31
HETATM   31  N10 UNL     1      36.416  28.895  24.803  1.00  0.00    -0.233 N 
ATOM     32 2H10 UNL     1      36.981  28.099  25.098  1.00  0.00     0.174 HD
ATOM     33 1H10 UNL     1      35.454  28.663  25.052  1.00  0.00     0.174 HD
ENDBRANCH  27  31
ENDBRANCH  21  23
ENDBRANCH  20  21
ENDBRANCH  19  20
ENDBRANCH  18  19
ENDBRANCH  17  18
ENDBRANCH  15  17
ENDBRANCH  13  15
BRANCH  10  34
HETATM   34  N3  UNL     1      37.921  28.699  20.115  1.00  0.00    -0.224 N 
ATOM     35  H3  UNL     1      37.238  29.450  20.014  1.00  0.00     0.177 HD
BRANCH  34  36
HETATM   36  C6  UNL     1      37.569  27.491  20.817  1.00  0.00     0.165 C 
BRANCH  36  37
HETATM   37  C7  UNL     1      36.108  27.422  21.124  1.00  0.00     0.249 C 
BRANCH  37  38
HETATM   38  N4  UNL     1      35.294  28.066  20.108  1.00  0.00    -0.078 N 
ATOM     39  H43 UNL     1      34.721  28.807  20.513  1.00  0.00     0.274 HD
ATOM     40  H42 UNL     1      35.868  28.628  19.480  1.00  0.00     0.274 HD
ATOM     41  H41 UNL     1      34.721  27.403  19.587  1.00  0.00     0.274 HD
ENDBRANCH  37  38
ENDBRANCH  36  37
ENDBRANCH  34  36
ENDBRANCH  10  34
TORSDOF 12
ENDMDL
MODEL 4
REMARK VINA RESULT: -7.126592473      2.669      4.184
REMARK  12 active torsions:
REMARK  status: ('A' for Active; 'I' for Inactive)
REMARK    1  A    between atoms: C5_10  and  N3_11 
REMARK    2  A    between atoms: N3_11  and  C6_13 
REMARK    3  A    between atoms: C6_13  and  C7_14 
REMARK    4  A    between atoms: C7_14  and  N4_15 
REMARK    5  A    between atoms: C8_21  and  N6_22 
REMARK    6  A    between atoms: N6_22  and  C9_24 
REMARK    7  A    between atoms: C9_24  and  C10_25 
REMARK    8  A    between atoms: C10_25  and  C11_26 
REMARK    9  A    between atoms: C11_26  and  C12_27 
REMARK   10  A    between atoms: C12_27  and  N7_28 
REMARK   11  A    between atoms: N7_28  and  C13_30 
REMARK   12  A    between atoms: C14_35  and  N10_36 
ROOT
HETATM    1  C1  UNL     1      37.894  28.819  22.310  1.00  0.00     0.035 C 
HETATM    2  C2  UNL     1      37.826  29.857  21.203  1.00  0.00     0.065 C 
HETATM    3  S1  UNL     1      37.942  31.536  21.865  1.00  0.00    -0.080 SA
HETATM    4  C3  UNL     1      36.554  29.632  20.443  1.00  0.00     0.147 C 
HETATM    5  N1  UNL     1      36.920  28.587  19.519  1.00  0.00    -0.373 N 
ATOM      6  H1  UNL     1      36.308  27.864  19.139  1.00  0.00     0.161 HD
HETATM    7  C4  UNL     1      38.303  28.766  19.245  1.00  0.00     0.128 A 
HETATM    8  N2  UNL     1      39.119  28.349  18.243  1.00  0.00    -0.176 N 
ATOM      9  H2  UNL     1      38.721  27.779  17.496  1.00  0.00     0.186 HD
HETATM   10  C5  UNL     1      40.425  28.652  18.190  1.00  0.00     0.681 A 
HETATM   11  N5  UNL     1      40.956  29.405  19.177  1.00  0.00    -0.176 N 
ATOM     12  H5  UNL     1      41.949  29.635  19.139  1.00  0.00     0.186 HD
HETATM   13  C8  UNL     1      40.227  29.862  20.207  1.00  0.00     0.128 A 
HETATM   14  C15 UNL     1      38.880  29.534  20.237  1.00  0.00     0.051 A 
ENDROOT
BRANCH  13  15
HETATM   15  N6  UNL     1      40.696  30.579  21.166  1.00  0.00    -0.375 N 
ATOM     16  H6  UNL     1      40.094  30.977  21.887  1.00  0.00     0.161 HD
BRANCH  15  17
HETATM   17  C9  UNL     1      42.133  30.788  21.162  1.00  0.00     0.121 C 
BRANCH  17  18
HETATM   18  C10 UNL     1      42.742  30.834  22.528  1.00  0.00     0.021 C 
BRANCH  18  19
HETATM   19  C11 UNL     1      44.038  31.579  22.485  1.00  0.00     0.022 C 
BRANCH  19  20
HETATM   20  C12 UNL     1      43.882  32.926  23.184  1.00  0.00     0.138 C 
BRANCH  20  21
HETATM   21  N7  UNL     1      43.295  33.897  22.318  1.00  0.00    -0.224 N 
ATOM     22  H7  UNL     1      43.796  34.118  21.457  1.00  0.00     0.177 HD
BRANCH  21  23
HETATM   23  C13 UNL     1      42.181  34.523  22.531  1.00  0.00     0.707 A 
HETATM   24  N8  UNL     1      42.091  35.802  22.926  1.00  0.00    -0.117 N 
HETATM   25  N9  UNL     1      40.815  36.100  23.041  1.00  0.00    -0.118 N 
ATOM     26  H8  UNL     1      42.874  36.431  23.106  1.00  0.00     0.206 HD
HETATM   27  C14 UNL     1      40.069  35.032  22.725  1.00  0.00     0.705 A 
ATOM     28  H9  UNL     1      40.448  37.007  23.327  1.00  0.00     0.206 HD
HETATM   29  N11 UNL     1      40.931  34.063  22.412  1.00  0.00    -0.020 N 
ATOM     30  H11 UNL     1      40.676  33.118  22.125  1.00  0.00     0.203 HD
BRANCH  27  31
HETATM   31  N10 UNL     1      38.774  34.994  22.737  1.00  0.00    -0.233 N 
ATOM     32 2H10 UNL     1      38.112  35.676  22.367  1.00  0.00     0.174 HD
ATOM     33 1H10 UNL     1      38.211  34.243  23.135  1.00  0.00     0.174 HD
ENDBRANCH  27  31
ENDBRANCH  21  23
ENDBRANCH  20  21
ENDBRANCH  19  20
ENDBRANCH  18  19
ENDBRANCH  17  18
ENDBRANCH  15  17
ENDBRANCH  13  15
BRANCH  10  34
HETATM   34  N3  UNL     1      41.259  28.195  17.119  1.00  0.00    -0.224 N 
ATOM     35  H3  UNL     1      41.234  27.216  16.833  1.00  0.00     0.177 HD
BRANCH  34  36
HETATM   36  C6  UNL     1      42.133  29.123  16.445  1.00  0.00     0.165 C 
BRANCH  36  37
HETATM   37  C7  UNL     1      43.575  28.822  16.694  1.00  0.00     0.249 C 
BRANCH  37  38
HETATM   38  N4  UNL     1      44.325  29.993  17.112  1.00  0.00    -0.078 N 
ATOM     39  H43 UNL     1      44.747  30.464  16.311  1.00  0.00     0.274 HD
ATOM     40  H42 UNL     1      43.701  30.734  17.429  1.00  0.00     0.274 HD
ATOM     41  H41 UNL     1      45.027  29.777  17.820  1.00  0.00     0.274 HD
ENDBRANCH  37  38
ENDBRANCH  36  37
ENDBRANCH  34  36
ENDBRANCH  10  34
TORSDOF 12
ENDMDL
MODEL 5
REMARK VINA RESULT: -7.105276753      1.980      4.962
REMARK  12 active torsions:
REMARK  status: ('A' for Active; 'I' for Inactive)
REMARK    1  A    between atoms: C5_10  and  N3_11 
REMARK    2  A    between atoms: N3_11  and  C6_13 
REMARK    3  A    between atoms: C6_13  and  C7_14 
REMARK    4  A    between atoms: C7_14  and  N4_15 
REMARK    5  A    between atoms: C8_21  and  N6_22 
REMARK    6  A    between atoms: N6_22  and  C9_24 
REMARK    7  A    between atoms: C9_24  and  C10_25 
REMARK    8  A    between atoms: C10_25  and  C11_26 
REMARK    9  A    between atoms: C11_26  and  C12_27 
REMARK   10  A    between atoms: C12_27  and  N7_28 
REMARK   11  A    between atoms: N7_28  and  C13_30 
REMARK   12  A    between atoms: C14_35  and  N10_36 
ROOT
HETATM    1  C1  UNL     1      40.930  28.189  19.701  1.00  0.00     0.035 C 
HETATM    2  C2  UNL     1      41.170  29.572  19.121  1.00  0.00     0.065 C 
HETATM    3  S1  UNL     1      40.456  29.728  17.467  1.00  0.00    -0.080 SA
HETATM    4  C3  UNL     1      42.648  29.821  19.128  1.00  0.00     0.147 C 
HETATM    5  N1  UNL     1      42.884  30.282  20.474  1.00  0.00    -0.373 N 
ATOM      6  H1  UNL     1      43.734  30.157  21.024  1.00  0.00     0.161 HD
HETATM    7  C4  UNL     1      41.694  30.944  20.881  1.00  0.00     0.128 A 
HETATM    8  N2  UNL     1      41.414  31.849  21.854  1.00  0.00    -0.176 N 
ATOM      9  H2  UNL     1      42.171  32.162  22.461  1.00  0.00     0.186 HD
HETATM   10  C5  UNL     1      40.185  32.350  22.053  1.00  0.00     0.681 A 
HETATM   11  N5  UNL     1      39.179  31.938  21.253  1.00  0.00    -0.176 N 
ATOM     12  H5  UNL     1      38.244  32.317  21.404  1.00  0.00     0.186 HD
HETATM   13  C8  UNL     1      39.362  31.047  20.266  1.00  0.00     0.128 A 
HETATM   14  C15 UNL     1      40.640  30.545  20.081  1.00  0.00     0.051 A 
ENDROOT
BRANCH  13  15
HETATM   15  N6  UNL     1      38.430  30.629  19.484  1.00  0.00    -0.375 N 
ATOM     16  H6  UNL     1      38.467  30.770  18.475  1.00  0.00     0.161 HD
BRANCH  15  17
HETATM   17  C9  UNL     1      37.321  29.943  20.125  1.00  0.00     0.121 C 
BRANCH  17  18
HETATM   18  C10 UNL     1      37.147  28.526  19.679  1.00  0.00     0.021 C 
BRANCH  18  19
HETATM   19  C11 UNL     1      37.687  27.593  20.716  1.00  0.00     0.022 C 
BRANCH  19  20
HETATM   20  C12 UNL     1      36.685  27.455  21.858  1.00  0.00     0.138 C 
BRANCH  20  21
HETATM   21  N7  UNL     1      37.257  27.854  23.104  1.00  0.00    -0.224 N 
ATOM     22  H7  UNL     1      37.938  27.223  23.527  1.00  0.00     0.177 HD
BRANCH  21  23
HETATM   23  C13 UNL     1      36.987  28.947  23.743  1.00  0.00     0.707 A 
HETATM   24  N8  UNL     1      36.489  28.996  24.988  1.00  0.00    -0.117 N 
HETATM   25  N9  UNL     1      36.342  30.263  25.314  1.00  0.00    -0.118 N 
ATOM     26  H8  UNL     1      36.264  28.194  25.576  1.00  0.00     0.206 HD
HETATM   27  C14 UNL     1      36.738  31.042  24.298  1.00  0.00     0.705 A 
ATOM     28  H9  UNL     1      35.981  30.601  26.206  1.00  0.00     0.206 HD
HETATM   29  N11 UNL     1      37.135  30.211  23.332  1.00  0.00    -0.020 N 
ATOM     30  H11 UNL     1      37.495  30.496  22.422  1.00  0.00     0.203 HD
BRANCH  27  31
HETATM   31  N10 UNL     1      36.721  32.337  24.299  1.00  0.00    -0.233 N 
ATOM     32 2H10 UNL     1      36.250  32.969  24.945  1.00  0.00     0.174 HD
ATOM     33 1H10 UNL     1      37.198  32.932  23.622  1.00  0.00     0.174 HD
ENDBRANCH  27  31
ENDBRANCH  21  23
ENDBRANCH  20  21
ENDBRANCH  19  20
ENDBRANCH  18  19
ENDBRANCH  17  18
ENDBRANCH  15  17
ENDBRANCH  13  15
BRANCH  10  34
HETATM   34  N3  UNL     1      39.922  33.304  23.090  1.00  0.00    -0.224 N 
ATOM     35  H3  UNL     1      39.785  32.990  24.051  1.00  0.00     0.177 HD
BRANCH  34  36
HETATM   36  C6  UNL     1      39.852  34.708  22.771  1.00  0.00     0.165 C 
BRANCH  36  37
HETATM   37  C7  UNL     1      40.988  35.478  23.362  1.00  0.00     0.249 C 
BRANCH  37  38
HETATM   38  N4  UNL     1      41.688  36.284  22.377  1.00  0.00    -0.078 N 
ATOM     39  H43 UNL     1      41.049  36.926  21.907  1.00  0.00     0.274 HD
ATOM     40  H42 UNL     1      42.301  36.963  22.827  1.00  0.00     0.274 HD
ATOM     41  H41 UNL     1      42.202  35.718  21.702  1.00  0.00     0.274 HD
ENDBRANCH  37  38
ENDBRANCH  36  37
ENDBRANCH  34  36
ENDBRANCH  10  34
TORSDOF 12
ENDMDL
