MODEL 1
REMARK VINA RESULT: -7.554206344      0.000      0.000
REMARK  3 active torsions:
REMARK  status: ('A' for Active; 'I' for Inactive)
REMARK    1  A    between atoms: C2_2  and  N1_4 
REMARK    2  A    between atoms: C2_2  and  C15_23 
REMARK       I    between atoms: C4_6  and  N3_8 
REMARK    3  A    between atoms: N4_10  and  C5_12 
ROOT
HETATM    1  N1  UNL     1      22.265  43.836  24.209  1.00  0.00    -0.346 N 
ATOM      2  H1  UNL     1      23.079  44.448  24.148  1.00  0.00     0.163 HD
HETATM    3  C4  UNL     1      21.881  43.572  25.383  1.00  0.00     0.203 C 
HETATM    4  N2  UNL     1      22.613  44.145  26.462  1.00  0.00    -0.062 NA
HETATM    5  N3  UNL     1      20.784  42.753  25.630  1.00  0.00    -0.273 N 
ATOM      6  H3  UNL     1      20.130  42.648  24.855  1.00  0.00     0.189 HD
HETATM    7  N4  UNL     1      20.490  42.129  26.666  1.00  0.00    -0.298 N 
ATOM      8  H4  UNL     1      19.629  41.583  26.630  1.00  0.00     0.187 HD
ENDROOT
BRANCH   7   9
HETATM    9  C5  UNL     1      21.196  42.087  27.875  1.00  0.00     0.059 A 
HETATM   10  C6  UNL     1      22.214  41.168  28.124  1.00  0.00     0.032 A 
HETATM   11  C7  UNL     1      22.886  41.158  29.327  1.00  0.00     0.003 A 
HETATM   12  C8  UNL     1      22.581  42.056  30.331  1.00  0.00     0.012 A 
HETATM   13  C9  UNL     1      21.581  42.969  30.102  1.00  0.00    -0.024 A 
HETATM   14  C10 UNL     1      21.242  43.891  31.085  1.00  0.00     0.015 A 
HETATM   15  C14 UNL     1      20.900  42.975  28.879  1.00  0.00     0.005 A 
HETATM   16  C11 UNL     1      20.244  44.826  30.899  1.00  0.00     0.043 A 
HETATM   17  C12 UNL     1      19.571  44.823  29.674  1.00  0.00     0.117 A 
HETATM   18  F1  UNL     1      18.583  45.704  29.413  1.00  0.00    -0.206 F 
HETATM   19  C13 UNL     1      19.900  43.914  28.692  1.00  0.00     0.057 A 
ENDBRANCH   7   9
BRANCH   1  20
HETATM   20  C2  UNL     1      21.733  43.409  22.954  1.00  0.00     0.123 C 
HETATM   21  C1  UNL     1      22.641  42.306  22.414  1.00  0.00     0.047 C 
HETATM   22  C3  UNL     1      20.342  42.870  22.986  1.00  0.00     0.047 C 
BRANCH  20  23
HETATM   23  C15 UNL     1      21.785  44.610  22.000  1.00  0.00     0.411 C 
HETATM   24  F2  UNL     1      22.511  45.645  22.551  1.00  0.00    -0.168 F 
HETATM   25  F3  UNL     1      20.487  45.046  21.844  1.00  0.00    -0.168 F 
HETATM   26  F4  UNL     1      22.279  44.232  20.769  1.00  0.00    -0.168 F 
ENDBRANCH  20  23
ENDBRANCH   1  20
TORSDOF 3
ENDMDL
MODEL 2
REMARK VINA RESULT: -7.530448728      2.449      3.631
REMARK  3 active torsions:
REMARK  status: ('A' for Active; 'I' for Inactive)
REMARK    1  A    between atoms: C2_2  and  N1_4 
REMARK    2  A    between atoms: C2_2  and  C15_23 
REMARK       I    between atoms: C4_6  and  N3_8 
REMARK    3  A    between atoms: N4_10  and  C5_12 
ROOT
HETATM    1  N1  UNL     1      20.937  42.015  24.250  1.00  0.00    -0.346 N 
ATOM      2  H1  UNL     1      20.113  41.418  24.188  1.00  0.00     0.163 HD
HETATM    3  C4  UNL     1      21.328  42.267  25.424  1.00  0.00     0.203 C 
HETATM    4  N2  UNL     1      20.590  41.701  26.502  1.00  0.00    -0.062 NA
HETATM    5  N3  UNL     1      22.440  43.066  25.674  1.00  0.00    -0.273 N 
ATOM      6  H3  UNL     1      23.094  43.163  24.897  1.00  0.00     0.189 HD
HETATM    7  N4  UNL     1      22.747  43.679  26.712  1.00  0.00    -0.298 N 
ATOM      8  H4  UNL     1      23.617  44.211  26.677  1.00  0.00     0.187 HD
ENDROOT
BRANCH   7   9
HETATM    9  C5  UNL     1      22.045  43.727  27.923  1.00  0.00     0.059 A 
HETATM   10  C6  UNL     1      21.029  44.648  28.171  1.00  0.00     0.032 A 
HETATM   11  C7  UNL     1      20.360  44.663  29.377  1.00  0.00     0.003 A 
HETATM   12  C8  UNL     1      20.667  43.769  30.383  1.00  0.00     0.012 A 
HETATM   13  C9  UNL     1      21.665  42.853  30.154  1.00  0.00    -0.024 A 
HETATM   14  C10 UNL     1      22.006  41.935  31.140  1.00  0.00     0.015 A 
HETATM   15  C14 UNL     1      22.342  42.842  28.929  1.00  0.00     0.005 A 
HETATM   16  C11 UNL     1      23.002  40.998  30.954  1.00  0.00     0.043 A 
HETATM   17  C12 UNL     1      23.671  40.996  29.728  1.00  0.00     0.117 A 
HETATM   18  F1  UNL     1      24.657  40.112  29.466  1.00  0.00    -0.206 F 
HETATM   19  C13 UNL     1      23.341  41.901  28.743  1.00  0.00     0.057 A 
ENDBRANCH   7   9
BRANCH   1  20
HETATM   20  C2  UNL     1      21.474  42.440  22.996  1.00  0.00     0.123 C 
HETATM   21  C1  UNL     1      20.572  43.547  22.454  1.00  0.00     0.047 C 
HETATM   22  C3  UNL     1      22.867  42.973  23.031  1.00  0.00     0.047 C 
BRANCH  20  23
HETATM   23  C15 UNL     1      21.418  41.240  22.042  1.00  0.00     0.411 C 
HETATM   24  F2  UNL     1      20.706  40.199  22.601  1.00  0.00    -0.168 F 
HETATM   25  F3  UNL     1      22.717  40.813  21.870  1.00  0.00    -0.168 F 
HETATM   26  F4  UNL     1      20.906  41.615  20.818  1.00  0.00    -0.168 F 
ENDBRANCH  20  23
ENDBRANCH   1  20
TORSDOF 3
ENDMDL
MODEL 3
REMARK VINA RESULT: -7.508034095      2.053      6.444
REMARK  3 active torsions:
REMARK  status: ('A' for Active; 'I' for Inactive)
REMARK    1  A    between atoms: C2_2  and  N1_4 
REMARK    2  A    between atoms: C2_2  and  C15_23 
REMARK       I    between atoms: C4_6  and  N3_8 
REMARK    3  A    between atoms: N4_10  and  C5_12 
ROOT
HETATM    1  N1  UNL     1      22.367  42.332  27.061  1.00  0.00    -0.346 N 
ATOM      2  H1  UNL     1      23.379  42.357  27.187  1.00  0.00     0.163 HD
HETATM    3  C4  UNL     1      21.976  41.803  25.983  1.00  0.00     0.203 C 
HETATM    4  N2  UNL     1      22.969  41.313  25.088  1.00  0.00    -0.062 NA
HETATM    5  N3  UNL     1      20.625  41.694  25.665  1.00  0.00    -0.273 N 
ATOM      6  H3  UNL     1      19.982  41.756  26.455  1.00  0.00     0.189 HD
HETATM    7  N4  UNL     1      20.092  41.533  24.553  1.00  0.00    -0.298 N 
ATOM      8  H4  UNL     1      19.073  41.479  24.548  1.00  0.00     0.187 HD
ENDROOT
BRANCH   7   9
HETATM    9  C5  UNL     1      20.721  41.416  23.306  1.00  0.00     0.059 A 
HETATM   10  C6  UNL     1      21.026  40.186  22.726  1.00  0.00     0.032 A 
HETATM   11  C7  UNL     1      21.644  40.113  21.496  1.00  0.00     0.003 A 
HETATM   12  C8  UNL     1      21.984  41.251  20.791  1.00  0.00     0.012 A 
HETATM   13  C9  UNL     1      21.689  42.471  21.348  1.00  0.00    -0.024 A 
HETATM   14  C10 UNL     1      22.015  43.641  20.673  1.00  0.00     0.015 A 
HETATM   15  C14 UNL     1      21.063  42.541  22.597  1.00  0.00     0.005 A 
HETATM   16  C11 UNL     1      21.739  44.888  21.195  1.00  0.00     0.043 A 
HETATM   17  C12 UNL     1      21.112  44.946  22.442  1.00  0.00     0.117 A 
HETATM   18  F1  UNL     1      20.807  46.126  23.022  1.00  0.00    -0.206 F 
HETATM   19  C13 UNL     1      20.785  43.792  23.121  1.00  0.00     0.057 A 
ENDBRANCH   7   9
BRANCH   1  20
HETATM   20  C2  UNL     1      21.609  42.901  28.129  1.00  0.00     0.123 C 
HETATM   21  C1  UNL     1      20.186  42.353  28.034  1.00  0.00     0.047 C 
HETATM   22  C3  UNL     1      22.108  42.617  29.506  1.00  0.00     0.047 C 
BRANCH  20  23
HETATM   23  C15 UNL     1      21.573  44.419  27.910  1.00  0.00     0.411 C 
HETATM   24  F2  UNL     1      21.179  45.074  29.059  1.00  0.00    -0.168 F 
HETATM   25  F3  UNL     1      20.619  44.656  26.945  1.00  0.00    -0.168 F 
HETATM   26  F4  UNL     1      22.792  44.873  27.451  1.00  0.00    -0.168 F 
ENDBRANCH  20  23
ENDBRANCH   1  20
TORSDOF 3
ENDMDL
MODEL 4
REMARK VINA RESULT: -7.495483606      2.709      7.121
REMARK  3 active torsions:
REMARK  status: ('A' for Active; 'I' for Inactive)
REMARK    1  A    between atoms: C2_2  and  N1_4 
REMARK    2  A    between atoms: C2_2  and  C15_23 
REMARK       I    between atoms: C4_6  and  N3_8 
REMARK    3  A    between atoms: N4_10  and  C5_12 
ROOT
HETATM    1  N1  UNL     1      20.869  43.520  27.065  1.00  0.00    -0.346 N 
ATOM      2  H1  UNL     1      19.857  43.502  27.195  1.00  0.00     0.163 HD
HETATM    3  C4  UNL     1      21.260  44.041  25.983  1.00  0.00     0.203 C 
HETATM    4  N2  UNL     1      20.266  44.531  25.088  1.00  0.00    -0.062 NA
HETATM    5  N3  UNL     1      22.610  44.141  25.661  1.00  0.00    -0.273 N 
ATOM      6  H3  UNL     1      23.255  44.080  26.449  1.00  0.00     0.189 HD
HETATM    7  N4  UNL     1      23.140  44.293  24.546  1.00  0.00    -0.298 N 
ATOM      8  H4  UNL     1      24.159  44.342  24.538  1.00  0.00     0.187 HD
ENDROOT
BRANCH   7   9
HETATM    9  C5  UNL     1      22.509  44.406  23.301  1.00  0.00     0.059 A 
HETATM   10  C6  UNL     1      22.203  45.633  22.717  1.00  0.00     0.032 A 
HETATM   11  C7  UNL     1      21.582  45.703  21.488  1.00  0.00     0.003 A 
HETATM   12  C8  UNL     1      21.239  44.563  20.788  1.00  0.00     0.012 A 
HETATM   13  C9  UNL     1      21.535  43.345  21.349  1.00  0.00    -0.024 A 
HETATM   14  C10 UNL     1      21.207  42.172  20.678  1.00  0.00     0.015 A 
HETATM   15  C14 UNL     1      22.165  43.278  22.597  1.00  0.00     0.005 A 
HETATM   16  C11 UNL     1      21.484  40.927  21.204  1.00  0.00     0.043 A 
HETATM   17  C12 UNL     1      22.114  40.873  22.450  1.00  0.00     0.117 A 
HETATM   18  F1  UNL     1      22.419  39.694  23.033  1.00  0.00    -0.206 F 
HETATM   19  C13 UNL     1      22.443  42.029  23.124  1.00  0.00     0.057 A 
ENDBRANCH   7   9
BRANCH   1  20
HETATM   20  C2  UNL     1      21.627  42.953  28.135  1.00  0.00     0.123 C 
HETATM   21  C1  UNL     1      23.049  43.505  28.041  1.00  0.00     0.047 C 
HETATM   22  C3  UNL     1      21.126  43.237  29.511  1.00  0.00     0.047 C 
BRANCH  20  23
HETATM   23  C15 UNL     1      21.666  41.435  27.917  1.00  0.00     0.411 C 
HETATM   24  F2  UNL     1      22.082  40.784  29.060  1.00  0.00    -0.168 F 
HETATM   25  F3  UNL     1      22.606  41.201  26.937  1.00  0.00    -0.168 F 
HETATM   26  F4  UNL     1      20.442  40.975  27.478  1.00  0.00    -0.168 F 
ENDBRANCH  20  23
ENDBRANCH   1  20
TORSDOF 3
ENDMDL
MODEL 5
REMARK VINA RESULT: -7.430917807      2.128      3.174
REMARK  3 active torsions:
REMARK  status: ('A' for Active; 'I' for Inactive)
REMARK    1  A    between atoms: C2_2  and  N1_4 
REMARK    2  A    between atoms: C2_2  and  C15_23 
REMARK       I    between atoms: C4_6  and  N3_8 
REMARK    3  A    between atoms: N4_10  and  C5_12 
ROOT
HETATM    1  N1  UNL     1      20.952  41.902  24.220  1.00  0.00    -0.346 N 
ATOM      2  H1  UNL     1      20.124  41.310  24.164  1.00  0.00     0.163 HD
HETATM    3  C4  UNL     1      21.336  42.174  25.392  1.00  0.00     0.203 C 
HETATM    4  N2  UNL     1      20.586  41.636  26.476  1.00  0.00    -0.062 NA
HETATM    5  N3  UNL     1      22.452  42.971  25.634  1.00  0.00    -0.273 N 
ATOM      6  H3  UNL     1      23.112  43.048  24.860  1.00  0.00     0.189 HD
HETATM    7  N4  UNL     1      22.756  43.602  26.661  1.00  0.00    -0.298 N 
ATOM      8  H4  UNL     1      23.630  44.127  26.622  1.00  0.00     0.187 HD
ENDROOT
BRANCH   7   9
HETATM    9  C5  UNL     1      22.045  43.680  27.866  1.00  0.00     0.059 A 
HETATM   10  C6  UNL     1      21.023  44.601  28.082  1.00  0.00     0.032 A 
HETATM   11  C7  UNL     1      20.345  44.645  29.282  1.00  0.00     0.003 A 
HETATM   12  C8  UNL     1      20.652  43.781  30.315  1.00  0.00     0.012 A 
HETATM   13  C9  UNL     1      21.657  42.866  30.118  1.00  0.00    -0.024 A 
HETATM   14  C10 UNL     1      21.997  41.978  31.132  1.00  0.00     0.015 A 
HETATM   15  C14 UNL     1      22.342  42.825  28.899  1.00  0.00     0.005 A 
HETATM   16  C11 UNL     1      23.000  41.043  30.979  1.00  0.00     0.043 A 
HETATM   17  C12 UNL     1      23.677  41.010  29.757  1.00  0.00     0.117 A 
HETATM   18  F1  UNL     1      24.670  40.126  29.527  1.00  0.00    -0.206 F 
HETATM   19  C13 UNL     1      23.348  41.886  28.745  1.00  0.00     0.057 A 
ENDBRANCH   7   9
BRANCH   1  20
HETATM   20  C2  UNL     1      21.500  42.298  22.962  1.00  0.00     0.123 C 
HETATM   21  C1  UNL     1      23.004  42.492  23.150  1.00  0.00     0.047 C 
HETATM   22  C3  UNL     1      21.309  41.337  21.837  1.00  0.00     0.047 C 
BRANCH  20  23
HETATM   23  C15 UNL     1      20.867  43.644  22.587  1.00  0.00     0.411 C 
HETATM   24  F2  UNL     1      21.421  44.671  23.322  1.00  0.00    -0.168 F 
HETATM   25  F3  UNL     1      19.534  43.560  22.926  1.00  0.00    -0.168 F 
HETATM   26  F4  UNL     1      20.968  43.868  21.230  1.00  0.00    -0.168 F 
ENDBRANCH  20  23
ENDBRANCH   1  20
TORSDOF 3
ENDMDL
