MODEL 1
REMARK VINA RESULT: -6.378973280      0.000      0.000
REMARK  2 active torsions:
REMARK  status: ('A' for Active; 'I' for Inactive)
REMARK    1  A    between atoms: C3_5  and  C4_6 
REMARK    2  A    between atoms: C7_15  and  C8_16 
ROOT
HETATM    1  O1  UNL     1      22.954  41.246  26.223  1.00  0.00    -0.286 OA
HETATM    2  C1  UNL     1      22.488  41.818  27.259  1.00  0.00     0.208 A 
HETATM    3  C2  UNL     1      22.874  41.267  28.461  1.00  0.00     0.107 A 
HETATM    4 CL1  UNL     1      23.948  39.855  28.452  1.00  0.00    -0.079 Cl
HETATM    5  C3  UNL     1      22.509  41.703  29.702  1.00  0.00     0.116 A 
HETATM    6  S1  UNL     1      21.463  43.082  29.684  1.00  0.00    -0.065 SA
HETATM    7  C5  UNL     1      21.092  43.627  28.120  1.00  0.00     0.089 A 
HETATM    8  N1  UNL     1      20.338  44.596  27.585  1.00  0.00    -0.359 N 
ATOM      9  H1  UNL     1      19.801  45.278  28.120  1.00  0.00     0.166 HD
HETATM   10  C6  UNL     1      20.391  44.539  26.241  1.00  0.00     0.097 A 
HETATM   11  C7  UNL     1      21.221  43.485  25.912  1.00  0.00    -0.021 A 
HETATM   12  C13 UNL     1      21.676  42.894  27.079  1.00  0.00     0.058 A 
ENDROOT
BRANCH  11  13
HETATM   13  C8  UNL     1      21.547  43.123  24.521  1.00  0.00     0.021 C 
HETATM   14  C9  UNL     1      20.275  42.792  23.713  1.00  0.00     0.009 C 
HETATM   15  C10 UNL     1      20.940  42.636  22.338  1.00  0.00     0.001 C 
HETATM   16  C11 UNL     1      21.748  43.918  22.286  1.00  0.00     0.001 C 
HETATM   17  C12 UNL     1      21.972  44.356  23.713  1.00  0.00     0.009 C 
ENDBRANCH  11  13
BRANCH   5  18
HETATM   18  C4  UNL     1      22.913  41.055  30.973  1.00  0.00     0.425 C 
HETATM   19  F1  UNL     1      24.254  41.009  31.185  1.00  0.00    -0.165 F 
HETATM   20  F2  UNL     1      22.300  41.769  32.010  1.00  0.00    -0.165 F 
HETATM   21  F3  UNL     1      22.357  39.779  31.049  1.00  0.00    -0.165 F 
ENDBRANCH   5  18
TORSDOF 2
ENDMDL
MODEL 2
REMARK VINA RESULT: -6.377215337      2.942      3.788
REMARK  2 active torsions:
REMARK  status: ('A' for Active; 'I' for Inactive)
REMARK    1  A    between atoms: C3_5  and  C4_6 
REMARK    2  A    between atoms: C7_15  and  C8_16 
ROOT
HETATM    1  O1  UNL     1      20.299  44.517  26.287  1.00  0.00    -0.286 OA
HETATM    2  C1  UNL     1      20.766  43.967  27.335  1.00  0.00     0.208 A 
HETATM    3  C2  UNL     1      20.367  44.531  28.526  1.00  0.00     0.107 A 
HETATM    4 CL1  UNL     1      19.275  45.929  28.490  1.00  0.00    -0.079 Cl
HETATM    5  C3  UNL     1      20.730  44.118  29.776  1.00  0.00     0.116 A 
HETATM    6  S1  UNL     1      21.794  42.753  29.783  1.00  0.00    -0.065 SA
HETATM    7  C5  UNL     1      22.181  42.190  28.229  1.00  0.00     0.089 A 
HETATM    8  N1  UNL     1      22.950  41.223  27.713  1.00  0.00    -0.359 N 
ATOM      9  H1  UNL     1      23.493  40.556  28.261  1.00  0.00     0.166 HD
HETATM   10  C6  UNL     1      22.904  41.258  26.368  1.00  0.00     0.097 A 
HETATM   11  C7  UNL     1      22.062  42.298  26.019  1.00  0.00    -0.021 A 
HETATM   12  C13 UNL     1      21.593  42.899  27.175  1.00  0.00     0.058 A 
ENDROOT
BRANCH  11  13
HETATM   13  C8  UNL     1      21.739  42.634  24.621  1.00  0.00     0.021 C 
HETATM   14  C9  UNL     1      23.014  42.735  23.758  1.00  0.00     0.009 C 
HETATM   15  C10 UNL     1      22.327  42.919  22.397  1.00  0.00     0.001 C 
HETATM   16  C11 UNL     1      21.340  41.768  22.439  1.00  0.00     0.001 C 
HETATM   17  C12 UNL     1      21.110  41.438  23.894  1.00  0.00     0.009 C 
ENDBRANCH  11  13
BRANCH   5  18
HETATM   18  C4  UNL     1      20.311  44.780  31.034  1.00  0.00     0.425 C 
HETATM   19  F1  UNL     1      18.968  44.826  31.231  1.00  0.00    -0.165 F 
HETATM   20  F2  UNL     1      20.914  44.079  32.086  1.00  0.00    -0.165 F 
HETATM   21  F3  UNL     1      20.864  46.058  31.102  1.00  0.00    -0.165 F 
ENDBRANCH   5  18
TORSDOF 2
ENDMDL
MODEL 3
REMARK VINA RESULT: -6.148332664      2.806      3.617
REMARK  2 active torsions:
REMARK  status: ('A' for Active; 'I' for Inactive)
REMARK    1  A    between atoms: C3_5  and  C4_6 
REMARK    2  A    between atoms: C7_15  and  C8_16 
ROOT
HETATM    1  O1  UNL     1      20.228  44.602  28.312  1.00  0.00    -0.286 OA
HETATM    2  C1  UNL     1      20.877  43.805  29.062  1.00  0.00     0.208 A 
HETATM    3  C2  UNL     1      20.750  44.032  30.415  1.00  0.00     0.107 A 
HETATM    4 CL1  UNL     1      19.728  45.373  30.967  1.00  0.00    -0.079 Cl
HETATM    5  C3  UNL     1      21.343  43.313  31.412  1.00  0.00     0.116 A 
HETATM    6  S1  UNL     1      22.333  42.011  30.847  1.00  0.00    -0.065 SA
HETATM    7  C5  UNL     1      22.375  41.879  29.156  1.00  0.00     0.089 A 
HETATM    8  N1  UNL     1      22.986  41.093  28.260  1.00  0.00    -0.359 N 
ATOM      9  H1  UNL     1      23.603  40.315  28.493  1.00  0.00     0.166 HD
HETATM   10  C6  UNL     1      22.668  41.478  27.009  1.00  0.00     0.097 A 
HETATM   11  C7  UNL     1      21.814  42.558  27.122  1.00  0.00    -0.021 A 
HETATM   12  C13 UNL     1      21.613  42.829  28.465  1.00  0.00     0.058 A 
ENDROOT
BRANCH  11  13
HETATM   13  C8  UNL     1      21.227  43.242  25.956  1.00  0.00     0.021 C 
HETATM   14  C9  UNL     1      22.313  43.925  25.099  1.00  0.00     0.009 C 
HETATM   15  C10 UNL     1      21.410  44.369  23.939  1.00  0.00     0.001 C 
HETATM   16  C11 UNL     1      20.696  43.064  23.642  1.00  0.00     0.001 C 
HETATM   17  C12 UNL     1      20.755  42.233  24.901  1.00  0.00     0.009 C 
ENDBRANCH  11  13
BRANCH   5  18
HETATM   18  C4  UNL     1      21.214  43.617  32.858  1.00  0.00     0.425 C 
HETATM   19  F1  UNL     1      19.948  43.538  33.343  1.00  0.00    -0.165 F 
HETATM   20  F2  UNL     1      22.035  42.711  33.541  1.00  0.00    -0.165 F 
HETATM   21  F3  UNL     1      21.769  44.867  33.129  1.00  0.00    -0.165 F 
ENDBRANCH   5  18
TORSDOF 2
ENDMDL
MODEL 4
REMARK VINA RESULT: -6.137189135      1.550      1.775
REMARK  2 active torsions:
REMARK  status: ('A' for Active; 'I' for Inactive)
REMARK    1  A    between atoms: C3_5  and  C4_6 
REMARK    2  A    between atoms: C7_15  and  C8_16 
ROOT
HETATM    1  O1  UNL     1      23.025  41.216  28.150  1.00  0.00    -0.286 OA
HETATM    2  C1  UNL     1      22.371  42.021  28.887  1.00  0.00     0.208 A 
HETATM    3  C2  UNL     1      22.501  41.818  30.243  1.00  0.00     0.107 A 
HETATM    4 CL1  UNL     1      23.533  40.495  30.817  1.00  0.00    -0.079 Cl
HETATM    5  C3  UNL     1      21.903  42.550  31.229  1.00  0.00     0.116 A 
HETATM    6  S1  UNL     1      20.904  43.835  30.642  1.00  0.00    -0.065 SA
HETATM    7  C5  UNL     1      20.860  43.937  28.949  1.00  0.00     0.089 A 
HETATM    8  N1  UNL     1      20.242  44.704  28.040  1.00  0.00    -0.359 N 
ATOM      9  H1  UNL     1      19.620  45.481  28.260  1.00  0.00     0.166 HD
HETATM   10  C6  UNL     1      20.561  44.300  26.796  1.00  0.00     0.097 A 
HETATM   11  C7  UNL     1      21.424  43.228  26.926  1.00  0.00    -0.021 A 
HETATM   12  C13 UNL     1      21.628  42.981  28.274  1.00  0.00     0.058 A 
ENDROOT
BRANCH  11  13
HETATM   13  C8  UNL     1      22.014  42.528  25.772  1.00  0.00     0.021 C 
HETATM   14  C9  UNL     1      20.926  41.882  24.889  1.00  0.00     0.009 C 
HETATM   15  C10 UNL     1      21.841  41.412  23.748  1.00  0.00     0.001 C 
HETATM   16  C11 UNL     1      22.602  42.694  23.470  1.00  0.00     0.001 C 
HETATM   17  C12 UNL     1      22.542  43.523  24.730  1.00  0.00     0.009 C 
ENDBRANCH  11  13
BRANCH   5  18
HETATM   18  C4  UNL     1      22.035  42.272  32.679  1.00  0.00     0.425 C 
HETATM   19  F1  UNL     1      23.302  42.365  33.161  1.00  0.00    -0.165 F 
HETATM   20  F2  UNL     1      21.213  43.186  33.348  1.00  0.00    -0.165 F 
HETATM   21  F3  UNL     1      21.486  41.025  32.973  1.00  0.00    -0.165 F 
ENDBRANCH   5  18
TORSDOF 2
ENDMDL
MODEL 5
REMARK VINA RESULT: -6.093703725      5.272      7.029
REMARK  2 active torsions:
REMARK  status: ('A' for Active; 'I' for Inactive)
REMARK    1  A    between atoms: C3_5  and  C4_6 
REMARK    2  A    between atoms: C7_15  and  C8_16 
ROOT
HETATM    1  O1  UNL     1      22.309  44.579  25.671  1.00  0.00    -0.286 OA
HETATM    2  C1  UNL     1      21.764  43.804  24.822  1.00  0.00     0.208 A 
HETATM    3  C2  UNL     1      21.860  44.205  23.508  1.00  0.00     0.107 A 
HETATM    4 CL1  UNL     1      22.706  45.719  23.134  1.00  0.00    -0.079 Cl
HETATM    5  C3  UNL     1      21.360  43.543  22.424  1.00  0.00     0.116 A 
HETATM    6  S1  UNL     1      20.541  42.070  22.817  1.00  0.00    -0.065 SA
HETATM    7  C5  UNL     1      20.519  41.732  24.480  1.00  0.00     0.089 A 
HETATM    8  N1  UNL     1      20.012  40.774  25.267  1.00  0.00    -0.359 N 
ATOM      9  H1  UNL     1      19.497  39.959  24.935  1.00  0.00     0.166 HD
HETATM   10  C6  UNL     1      20.281  41.042  26.559  1.00  0.00     0.097 A 
HETATM   11  C7  UNL     1      20.994  42.226  26.587  1.00  0.00    -0.021 A 
HETATM   12  C13 UNL     1      21.157  42.680  25.289  1.00  0.00     0.058 A 
ENDROOT
BRANCH  11  13
HETATM   13  C8  UNL     1      21.492  42.833  27.834  1.00  0.00     0.021 C 
HETATM   14  C9  UNL     1      20.340  43.432  28.669  1.00  0.00     0.009 C 
HETATM   15  C10 UNL     1      21.160  43.806  29.912  1.00  0.00     0.001 C 
HETATM   16  C11 UNL     1      21.883  42.495  30.159  1.00  0.00     0.001 C 
HETATM   17  C12 UNL     1      21.920  41.758  28.842  1.00  0.00     0.009 C 
ENDBRANCH  11  13
BRANCH   5  18
HETATM   18  C4  UNL     1      21.447  44.032  21.027  1.00  0.00     0.425 C 
HETATM   19  F1  UNL     1      22.684  44.448  20.648  1.00  0.00    -0.165 F 
HETATM   20  F2  UNL     1      21.034  42.981  20.199  1.00  0.00    -0.165 F 
HETATM   21  F3  UNL     1      20.503  45.036  20.818  1.00  0.00    -0.165 F 
ENDBRANCH   5  18
TORSDOF 2
ENDMDL
