MODEL 1
REMARK VINA RESULT: -5.340046256      0.000      0.000
REMARK  3 active torsions:
REMARK  status: ('A' for Active; 'I' for Inactive)
REMARK    1  A    between atoms: O1_1  and  C1_3 
REMARK    2  A    between atoms: C1_3  and  C2_4 
REMARK    3  A    between atoms: C13_18  and  C14_20 
ROOT
HETATM    1  C1  UNL     1      26.638  40.477  33.200  1.00  0.00     0.180 C 
HETATM    2  C3  UNL     1      26.158  39.849  31.898  1.00  0.00     0.052 C 
HETATM    3  C4  UNL     1      25.936  40.833  30.805  1.00  0.00     0.004 C 
HETATM    4  C5  UNL     1      24.975  40.340  29.754  1.00  0.00     0.000 C 
HETATM    5  C6  UNL     1      23.931  41.388  29.407  1.00  0.00     0.000 C 
HETATM    6  C7  UNL     1      22.630  41.198  30.106  1.00  0.00     0.000 C 
HETATM    7  C8  UNL     1      22.665  41.687  31.562  1.00  0.00     0.000 C 
HETATM    8  C9  UNL     1      22.572  40.533  32.470  1.00  0.00     0.000 C 
HETATM    9  C10 UNL     1      23.203  40.577  33.798  1.00  0.00     0.004 C 
HETATM   10  C11 UNL     1      24.436  41.334  34.018  1.00  0.00     0.039 C 
HETATM   11  C12 UNL     1      25.681  40.455  34.295  1.00  0.00    -0.022 C 
HETATM   12  C13 UNL     1      25.666  39.849  35.455  1.00  0.00     0.009 C 
HETATM   13  S1  UNL     1      27.025  38.791  35.936  1.00  0.00    -0.056 SA
ENDROOT
BRANCH   1  14
HETATM   14  O1  UNL     1      26.724  41.900  32.873  1.00  0.00    -0.376 OA
ATOM     15  H1  UNL     1      25.850  42.101  32.559  1.00  0.00     0.211 HD
ENDBRANCH   1  14
BRANCH   1  16
HETATM   16  C2  UNL     1      28.044  40.090  33.367  1.00  0.00     0.422 C 
HETATM   17  F1  UNL     1      28.729  40.790  32.299  1.00  0.00    -0.167 F 
HETATM   18  F2  UNL     1      28.340  38.770  32.970  1.00  0.00    -0.167 F 
HETATM   19  F3  UNL     1      28.718  40.431  34.466  1.00  0.00    -0.167 F 
ENDBRANCH   1  16
BRANCH  12  20
HETATM   20  C14 UNL     1      24.611  39.966  36.509  1.00  0.00     0.161 C 
HETATM   21 CL1  UNL     1      23.861  38.348  36.804  1.00  0.00    -0.125 Cl
ENDBRANCH  12  20
TORSDOF 3
ENDMDL
MODEL 2
REMARK VINA RESULT: -5.335288308      9.043     10.361
REMARK  3 active torsions:
REMARK  status: ('A' for Active; 'I' for Inactive)
REMARK    1  A    between atoms: O1_1  and  C1_3 
REMARK    2  A    between atoms: C1_3  and  C2_4 
REMARK    3  A    between atoms: C13_18  and  C14_20 
ROOT
HETATM    1  C1  UNL     1      16.569  45.403  33.189  1.00  0.00     0.180 C 
HETATM    2  C3  UNL     1      17.029  45.983  31.858  1.00  0.00     0.052 C 
HETATM    3  C4  UNL     1      17.257  44.957  30.805  1.00  0.00     0.004 C 
HETATM    4  C5  UNL     1      18.201  45.421  29.725  1.00  0.00     0.000 C 
HETATM    5  C6  UNL     1      19.259  44.377  29.413  1.00  0.00     0.000 C 
HETATM    6  C7  UNL     1      20.563  44.616  30.093  1.00  0.00     0.000 C 
HETATM    7  C8  UNL     1      20.547  44.189  31.568  1.00  0.00     0.000 C 
HETATM    8  C9  UNL     1      20.630  45.381  32.426  1.00  0.00     0.000 C 
HETATM    9  C10 UNL     1      20.011  45.383  33.760  1.00  0.00     0.004 C 
HETATM   10  C11 UNL     1      18.792  44.616  34.023  1.00  0.00     0.039 C 
HETATM   11  C12 UNL     1      17.535  45.487  34.273  1.00  0.00    -0.022 C 
HETATM   12  C13 UNL     1      17.550  46.141  35.407  1.00  0.00     0.009 C 
HETATM   13  S1  UNL     1      16.177  47.197  35.855  1.00  0.00    -0.056 SA
ENDROOT
BRANCH   1  14
HETATM   14  O1  UNL     1      16.504  43.966  32.922  1.00  0.00    -0.376 OA
ATOM     15  H1  UNL     1      17.239  43.823  32.338  1.00  0.00     0.211 HD
ENDBRANCH   1  14
BRANCH   1  16
HETATM   16  C2  UNL     1      15.158  45.774  33.352  1.00  0.00     0.422 C 
HETATM   17  F1  UNL     1      14.482  45.051  32.295  1.00  0.00    -0.167 F 
HETATM   18  F2  UNL     1      14.846  47.084  32.938  1.00  0.00    -0.167 F 
HETATM   19  F3  UNL     1      14.490  45.439  34.456  1.00  0.00    -0.167 F 
ENDBRANCH   1  16
BRANCH  12  20
HETATM   20  C14 UNL     1      18.615  46.085  36.455  1.00  0.00     0.161 C 
HETATM   21 CL1  UNL     1      19.215  47.754  36.804  1.00  0.00    -0.125 Cl
ENDBRANCH  12  20
TORSDOF 3
ENDMDL
MODEL 3
REMARK VINA RESULT: -5.241303744      9.220     11.481
REMARK  3 active torsions:
REMARK  status: ('A' for Active; 'I' for Inactive)
REMARK    1  A    between atoms: O1_1  and  C1_3 
REMARK    2  A    between atoms: C1_3  and  C2_4 
REMARK    3  A    between atoms: C13_18  and  C14_20 
ROOT
HETATM    1  C1  UNL     1      21.281  41.933  23.651  1.00  0.00     0.180 C 
HETATM    2  C3  UNL     1      22.284  41.553  24.733  1.00  0.00     0.052 C 
HETATM    3  C4  UNL     1      21.747  41.671  26.115  1.00  0.00     0.004 C 
HETATM    4  C5  UNL     1      22.825  41.842  27.154  1.00  0.00     0.000 C 
HETATM    5  C6  UNL     1      22.505  42.969  28.121  1.00  0.00     0.000 C 
HETATM    6  C7  UNL     1      23.180  44.255  27.793  1.00  0.00     0.000 C 
HETATM    7  C8  UNL     1      22.487  45.012  26.650  1.00  0.00     0.000 C 
HETATM    8  C9  UNL     1      23.356  45.012  25.463  1.00  0.00     0.000 C 
HETATM    9  C10 UNL     1      22.773  45.052  24.114  1.00  0.00     0.004 C 
HETATM   10  C11 UNL     1      21.483  44.419  23.834  1.00  0.00     0.039 C 
HETATM   11  C12 UNL     1      21.574  43.162  22.932  1.00  0.00    -0.022 C 
HETATM   12  C13 UNL     1      21.893  43.414  21.687  1.00  0.00     0.009 C 
HETATM   13  S1  UNL     1      22.044  42.077  20.508  1.00  0.00    -0.056 SA
ENDROOT
BRANCH   1  14
HETATM   14  O1  UNL     1      20.082  42.281  24.415  1.00  0.00    -0.376 OA
ATOM     15  H1  UNL     1      20.038  43.226  24.324  1.00  0.00     0.211 HD
ENDBRANCH   1  14
BRANCH   1  16
HETATM   16  C2  UNL     1      20.892  40.690  22.974  1.00  0.00     0.422 C 
HETATM   17  F1  UNL     1      19.963  40.065  23.894  1.00  0.00    -0.167 F 
HETATM   18  F2  UNL     1      21.885  39.689  22.972  1.00  0.00    -0.167 F 
HETATM   19  F3  UNL     1      20.232  40.724  21.816  1.00  0.00    -0.167 F 
ENDBRANCH   1  16
BRANCH  12  20
HETATM   20  C14 UNL     1      22.122  44.761  21.081  1.00  0.00     0.161 C 
HETATM   21 CL1  UNL     1      20.534  45.563  20.759  1.00  0.00    -0.125 Cl
ENDBRANCH  12  20
TORSDOF 3
ENDMDL
MODEL 4
REMARK VINA RESULT: -5.196718397      9.535     11.493
REMARK  3 active torsions:
REMARK  status: ('A' for Active; 'I' for Inactive)
REMARK    1  A    between atoms: O1_1  and  C1_3 
REMARK    2  A    between atoms: C1_3  and  C2_4 
REMARK    3  A    between atoms: C13_18  and  C14_20 
ROOT
HETATM    1  C1  UNL     1      21.941  43.909  23.552  1.00  0.00     0.180 C 
HETATM    2  C3  UNL     1      20.927  44.291  24.622  1.00  0.00     0.052 C 
HETATM    3  C4  UNL     1      21.468  44.233  26.007  1.00  0.00     0.004 C 
HETATM    4  C5  UNL     1      20.396  44.059  27.052  1.00  0.00     0.000 C 
HETATM    5  C6  UNL     1      20.752  42.974  28.053  1.00  0.00     0.000 C 
HETATM    6  C7  UNL     1      20.118  41.657  27.766  1.00  0.00     0.000 C 
HETATM    7  C8  UNL     1      20.835  40.888  26.646  1.00  0.00     0.000 C 
HETATM    8  C9  UNL     1      19.966  40.823  25.461  1.00  0.00     0.000 C 
HETATM    9  C10 UNL     1      20.550  40.759  24.112  1.00  0.00     0.004 C 
HETATM   10  C11 UNL     1      21.819  41.425  23.812  1.00  0.00     0.039 C 
HETATM   11  C12 UNL     1      21.687  42.650  22.871  1.00  0.00    -0.022 C 
HETATM   12  C13 UNL     1      21.377  42.349  21.635  1.00  0.00     0.009 C 
HETATM   13  S1  UNL     1      21.183  43.643  20.416  1.00  0.00    -0.056 SA
ENDROOT
BRANCH   1  14
HETATM   14  O1  UNL     1      23.150  43.624  24.324  1.00  0.00    -0.376 OA
ATOM     15  H1  UNL     1      22.893  43.841  25.213  1.00  0.00     0.211 HD
ENDBRANCH   1  14
BRANCH   1  16
HETATM   16  C2  UNL     1      22.290  45.142  22.836  1.00  0.00     0.422 C 
HETATM   17  F1  UNL     1      23.176  45.838  23.747  1.00  0.00    -0.167 F 
HETATM   18  F2  UNL     1      21.257  46.100  22.781  1.00  0.00    -0.167 F 
HETATM   19  F3  UNL     1      22.971  45.094  21.691  1.00  0.00    -0.167 F 
ENDBRANCH   1  16
BRANCH  12  20
HETATM   20  C14 UNL     1      21.191  40.977  21.071  1.00  0.00     0.161 C 
HETATM   21 CL1  UNL     1      22.799  40.269  20.647  1.00  0.00    -0.125 Cl
ENDBRANCH  12  20
TORSDOF 3
ENDMDL
MODEL 5
REMARK VINA RESULT: -5.187033465      9.267     11.177
REMARK  3 active torsions:
REMARK  status: ('A' for Active; 'I' for Inactive)
REMARK    1  A    between atoms: O1_1  and  C1_3 
REMARK    2  A    between atoms: C1_3  and  C2_4 
REMARK    3  A    between atoms: C13_18  and  C14_20 
ROOT
HETATM    1  C1  UNL     1      22.544  43.544  24.242  1.00  0.00     0.180 C 
HETATM    2  C3  UNL     1      21.585  43.783  25.401  1.00  0.00     0.052 C 
HETATM    3  C4  UNL     1      21.856  42.929  26.588  1.00  0.00     0.004 C 
HETATM    4  C5  UNL     1      20.650  42.749  27.473  1.00  0.00     0.000 C 
HETATM    5  C6  UNL     1      20.442  41.294  27.856  1.00  0.00     0.000 C 
HETATM    6  C7  UNL     1      19.432  40.588  27.021  1.00  0.00     0.000 C 
HETATM    7  C8  UNL     1      19.986  40.168  25.652  1.00  0.00     0.000 C 
HETATM    8  C9  UNL     1      19.338  40.962  24.596  1.00  0.00     0.000 C 
HETATM    9  C10 UNL     1      20.055  41.269  23.349  1.00  0.00     0.004 C 
HETATM   10  C11 UNL     1      21.508  41.453  23.344  1.00  0.00     0.039 C 
HETATM   11  C12 UNL     1      21.963  42.909  23.071  1.00  0.00    -0.022 C 
HETATM   12  C13 UNL     1      21.754  43.318  21.844  1.00  0.00     0.009 C 
HETATM   13  S1  UNL     1      22.218  44.975  21.356  1.00  0.00    -0.056 SA
ENDROOT
BRANCH   1  14
HETATM   14  O1  UNL     1      23.443  42.512  24.759  1.00  0.00    -0.376 OA
ATOM     15  H1  UNL     1      23.348  41.809  24.127  1.00  0.00     0.211 HD
ENDBRANCH   1  14
BRANCH   1  16
HETATM   16  C2  UNL     1      23.412  44.725  24.156  1.00  0.00     0.422 C 
HETATM   17  F1  UNL     1      23.554  45.157  25.532  1.00  0.00    -0.167 F 
HETATM   18  F2  UNL     1      22.784  45.878  23.643  1.00  0.00    -0.167 F 
HETATM   19  F3  UNL     1      24.666  44.617  23.717  1.00  0.00    -0.167 F 
ENDBRANCH   1  16
BRANCH  12  20
HETATM   20  C14 UNL     1      21.177  42.514  20.723  1.00  0.00     0.161 C 
HETATM   21 CL1  UNL     1      21.916  43.036  19.157  1.00  0.00    -0.125 Cl
ENDBRANCH  12  20
TORSDOF 3
ENDMDL
