MODEL 1
REMARK VINA RESULT: -6.167222150      0.000      0.000
REMARK  7 active torsions:
REMARK  status: ('A' for Active; 'I' for Inactive)
REMARK    1  A    between atoms: C4_6  and  C5_7 
REMARK    2  A    between atoms: C5_7  and  N2_8 
REMARK    3  A    between atoms: N2_8  and  C6_10 
REMARK    4  A    between atoms: C6_10  and  N3_12 
REMARK    5  A    between atoms: N3_12  and  C7_14 
REMARK    6  A    between atoms: N4_15  and  N5_17 
REMARK    7  A    between atoms: N5_17  and  C8_19 
ROOT
HETATM    1  N3  UNL     1      14.328  49.836 -46.534  1.00  0.00    -0.328 N 
ATOM      2  H3  UNL     1      14.131  50.526 -47.260  1.00  0.00     0.169 HD
ENDROOT
BRANCH   1   3
HETATM    3  C6  UNL     1      15.263  48.817 -46.821  1.00  0.00     0.172 C 
HETATM    4  S1  UNL     1      16.512  48.513 -45.823  1.00  0.00    -0.041 SA
BRANCH   3   5
HETATM    5  N2  UNL     1      15.111  48.050 -47.994  1.00  0.00    -0.364 N 
ATOM      6  H2  UNL     1      15.846  47.400 -48.272  1.00  0.00     0.162 HD
BRANCH   5   7
HETATM    7  C5  UNL     1      13.929  48.177 -48.802  1.00  0.00     0.155 C 
BRANCH   7   8
HETATM    8  C4  UNL     1      14.231  48.573 -50.215  1.00  0.00     0.167 C 
HETATM    9  O1  UNL     1      13.234  48.186 -51.106  1.00  0.00    -0.381 OA
HETATM   10  C3  UNL     1      13.758  48.330 -52.387  1.00  0.00     0.198 C 
HETATM   11  C2  UNL     1      14.175  49.754 -52.672  1.00  0.00     0.298 C 
HETATM   12  N1  UNL     1      13.955  50.627 -51.543  1.00  0.00     0.088 N 
HETATM   13  C1  UNL     1      12.613  51.169 -51.521  1.00  0.00     0.310 C 
HETATM   14  C11 UNL     1      14.360  50.072 -50.291  1.00  0.00     0.305 C 
ENDBRANCH   7   8
ENDBRANCH   5   7
ENDBRANCH   3   5
ENDBRANCH   1   3
BRANCH   1  15
HETATM   15  C7  UNL     1      13.651  49.957 -45.301  1.00  0.00     0.199 C 
HETATM   16  N4  UNL     1      12.406  49.664 -45.229  1.00  0.00    -0.293 N 
ATOM     17  H4  UNL     1      11.910  49.749 -44.342  1.00  0.00     0.187 HD
BRANCH  16  18
HETATM   18  N5  UNL     1      11.734  49.232 -46.364  1.00  0.00    -0.271 N 
ATOM     19  H5  UNL     1      11.922  48.305 -46.745  1.00  0.00     0.190 HD
BRANCH  18  20
HETATM   20  C8  UNL     1      10.771  50.091 -47.003  1.00  0.00     0.190 C 
HETATM   21  N6  UNL     1       9.486  49.963 -46.926  1.00  0.00    -0.360 N 
HETATM   22  C9  UNL     1       8.816  50.992 -47.686  1.00  0.00     0.142 C 
ATOM     23  H6  UNL     1       9.008  49.232 -46.398  1.00  0.00     0.162 HD
HETATM   24  C10 UNL     1       9.897  51.940 -48.152  1.00  0.00     0.142 C 
HETATM   25  N7  UNL     1      11.104  51.209 -47.816  1.00  0.00    -0.360 N 
ATOM     26  H7  UNL     1      12.047  51.459 -48.116  1.00  0.00     0.162 HD
ENDBRANCH  18  20
ENDBRANCH  16  18
ENDBRANCH   1  15
TORSDOF 7
ENDMDL
MODEL 2
REMARK VINA RESULT: -6.160212168      1.328      1.548
REMARK  7 active torsions:
REMARK  status: ('A' for Active; 'I' for Inactive)
REMARK    1  A    between atoms: C4_6  and  C5_7 
REMARK    2  A    between atoms: C5_7  and  N2_8 
REMARK    3  A    between atoms: N2_8  and  C6_10 
REMARK    4  A    between atoms: C6_10  and  N3_12 
REMARK    5  A    between atoms: N3_12  and  C7_14 
REMARK    6  A    between atoms: N4_15  and  N5_17 
REMARK    7  A    between atoms: N5_17  and  C8_19 
ROOT
HETATM    1  N3  UNL     1      14.283  49.383 -46.806  1.00  0.00    -0.328 N 
ATOM      2  H3  UNL     1      13.643  49.115 -47.555  1.00  0.00     0.169 HD
ENDROOT
BRANCH   1   3
HETATM    3  C6  UNL     1      15.671  49.339 -47.068  1.00  0.00     0.172 C 
HETATM    4  S1  UNL     1      16.696  48.584 -46.056  1.00  0.00    -0.041 SA
BRANCH   3   5
HETATM    5  N2  UNL     1      16.174  49.961 -48.228  1.00  0.00    -0.364 N 
ATOM      6  H2  UNL     1      17.013  49.592 -48.676  1.00  0.00     0.162 HD
BRANCH   5   7
HETATM    7  C5  UNL     1      15.515  51.111 -48.786  1.00  0.00     0.155 C 
BRANCH   7   8
HETATM    8  C4  UNL     1      14.689  50.780 -49.990  1.00  0.00     0.167 C 
HETATM    9  O1  UNL     1      13.411  50.338 -49.659  1.00  0.00    -0.381 OA
HETATM   10  C3  UNL     1      12.863  49.784 -50.812  1.00  0.00     0.198 C 
HETATM   11  C2  UNL     1      12.783  50.785 -51.940  1.00  0.00     0.298 C 
HETATM   12  N1  UNL     1      13.314  52.076 -51.568  1.00  0.00     0.088 N 
HETATM   13  C1  UNL     1      12.321  52.916 -50.933  1.00  0.00     0.310 C 
HETATM   14  C11 UNL     1      14.544  52.011 -50.844  1.00  0.00     0.305 C 
ENDBRANCH   7   8
ENDBRANCH   5   7
ENDBRANCH   3   5
ENDBRANCH   1   3
BRANCH   1  15
HETATM   15  C7  UNL     1      13.729  49.776 -45.568  1.00  0.00     0.199 C 
HETATM   16  N4  UNL     1      12.464  49.696 -45.385  1.00  0.00    -0.293 N 
ATOM     17  H4  UNL     1      12.057  49.978 -44.493  1.00  0.00     0.187 HD
BRANCH  16  18
HETATM   18  N5  UNL     1      11.649  49.225 -46.404  1.00  0.00    -0.271 N 
ATOM     19  H5  UNL     1      11.714  48.251 -46.699  1.00  0.00     0.190 HD
BRANCH  18  20
HETATM   20  C8  UNL     1      10.711  50.109 -47.046  1.00  0.00     0.190 C 
HETATM   21  N6  UNL     1       9.423  50.013 -46.976  1.00  0.00    -0.360 N 
HETATM   22  C9  UNL     1       8.783  51.061 -47.737  1.00  0.00     0.142 C 
ATOM     23  H6  UNL     1       8.924  49.291 -46.454  1.00  0.00     0.162 HD
HETATM   24  C10 UNL     1       9.889  51.984 -48.192  1.00  0.00     0.142 C 
HETATM   25  N7  UNL     1      11.076  51.222 -47.852  1.00  0.00    -0.360 N 
ATOM     26  H7  UNL     1      12.026  51.450 -48.145  1.00  0.00     0.162 HD
ENDBRANCH  18  20
ENDBRANCH  16  18
ENDBRANCH   1  15
TORSDOF 7
ENDMDL
MODEL 3
REMARK VINA RESULT: -6.125232938      1.009      1.321
REMARK  7 active torsions:
REMARK  status: ('A' for Active; 'I' for Inactive)
REMARK    1  A    between atoms: C4_6  and  C5_7 
REMARK    2  A    between atoms: C5_7  and  N2_8 
REMARK    3  A    between atoms: N2_8  and  C6_10 
REMARK    4  A    between atoms: C6_10  and  N3_12 
REMARK    5  A    between atoms: N3_12  and  C7_14 
REMARK    6  A    between atoms: N4_15  and  N5_17 
REMARK    7  A    between atoms: N5_17  and  C8_19 
ROOT
HETATM    1  N3  UNL     1      14.324  49.834 -46.540  1.00  0.00    -0.328 N 
ATOM      2  H3  UNL     1      14.074  50.483 -47.286  1.00  0.00     0.169 HD
ENDROOT
BRANCH   1   3
HETATM    3  C6  UNL     1      15.343  48.889 -46.793  1.00  0.00     0.172 C 
HETATM    4  S1  UNL     1      16.542  48.636 -45.723  1.00  0.00    -0.041 SA
BRANCH   3   5
HETATM    5  N2  UNL     1      15.320  48.154 -47.995  1.00  0.00    -0.364 N 
ATOM      6  H2  UNL     1      16.188  47.769 -48.369  1.00  0.00     0.162 HD
BRANCH   5   7
HETATM    7  C5  UNL     1      14.085  47.941 -48.698  1.00  0.00     0.155 C 
BRANCH   7   8
HETATM    8  C4  UNL     1      13.927  48.844 -49.882  1.00  0.00     0.167 C 
HETATM    9  O1  UNL     1      13.327  50.057 -49.556  1.00  0.00    -0.381 OA
HETATM   10  C3  UNL     1      12.965  50.665 -50.754  1.00  0.00     0.198 C 
HETATM   11  C2  UNL     1      14.157  50.908 -51.650  1.00  0.00     0.298 C 
HETATM   12  N1  UNL     1      15.389  50.432 -51.066  1.00  0.00     0.088 N 
HETATM   13  C1  UNL     1      16.006  51.420 -50.206  1.00  0.00     0.310 C 
HETATM   14  C11 UNL     1      15.286  49.143 -50.460  1.00  0.00     0.305 C 
ENDBRANCH   7   8
ENDBRANCH   5   7
ENDBRANCH   3   5
ENDBRANCH   1   3
BRANCH   1  15
HETATM   15  C7  UNL     1      13.631  49.934 -45.314  1.00  0.00     0.199 C 
HETATM   16  N4  UNL     1      12.385  49.641 -45.263  1.00  0.00    -0.293 N 
ATOM     17  H4  UNL     1      11.878  49.710 -44.380  1.00  0.00     0.187 HD
BRANCH  16  18
HETATM   18  N5  UNL     1      11.727  49.229 -46.414  1.00  0.00    -0.271 N 
ATOM     19  H5  UNL     1      11.939  48.320 -46.824  1.00  0.00     0.190 HD
BRANCH  18  20
HETATM   20  C8  UNL     1      10.746  50.085 -47.029  1.00  0.00     0.190 C 
HETATM   21  N6  UNL     1       9.464  49.935 -46.947  1.00  0.00    -0.360 N 
HETATM   22  C9  UNL     1       8.773  50.968 -47.682  1.00  0.00     0.142 C 
ATOM     23  H6  UNL     1       9.002  49.184 -46.433  1.00  0.00     0.162 HD
HETATM   24  C10 UNL     1       9.835  51.944 -48.133  1.00  0.00     0.142 C 
HETATM   25  N7  UNL     1      11.057  51.226 -47.820  1.00  0.00    -0.360 N 
ATOM     26  H7  UNL     1      11.993  51.498 -48.119  1.00  0.00     0.162 HD
ENDBRANCH  18  20
ENDBRANCH  16  18
ENDBRANCH   1  15
TORSDOF 7
ENDMDL
MODEL 4
REMARK VINA RESULT: -6.029586221      1.432      1.966
REMARK  7 active torsions:
REMARK  status: ('A' for Active; 'I' for Inactive)
REMARK    1  A    between atoms: C4_6  and  C5_7 
REMARK    2  A    between atoms: C5_7  and  N2_8 
REMARK    3  A    between atoms: N2_8  and  C6_10 
REMARK    4  A    between atoms: C6_10  and  N3_12 
REMARK    5  A    between atoms: N3_12  and  C7_14 
REMARK    6  A    between atoms: N4_15  and  N5_17 
REMARK    7  A    between atoms: N5_17  and  C8_19 
ROOT
HETATM    1  N3  UNL     1      13.741  48.910 -47.682  1.00  0.00    -0.328 N 
ATOM      2  H3  UNL     1      12.859  48.797 -48.181  1.00  0.00     0.169 HD
ENDROOT
BRANCH   1   3
HETATM    3  C6  UNL     1      14.918  48.416 -48.289  1.00  0.00     0.172 C 
HETATM    4  S1  UNL     1      15.988  47.523 -47.450  1.00  0.00    -0.041 SA
BRANCH   3   5
HETATM    5  N2  UNL     1      15.168  48.703 -49.646  1.00  0.00    -0.364 N 
ATOM      6  H2  UNL     1      16.125  48.862 -49.961  1.00  0.00     0.162 HD
BRANCH   5   7
HETATM    7  C5  UNL     1      14.086  48.773 -50.590  1.00  0.00     0.155 C 
BRANCH   7   8
HETATM    8  C4  UNL     1      13.767  50.176 -51.005  1.00  0.00     0.167 C 
HETATM    9  O1  UNL     1      12.686  50.710 -50.309  1.00  0.00    -0.381 OA
HETATM   10  C3  UNL     1      12.305  51.868 -50.980  1.00  0.00     0.198 C 
HETATM   11  C2  UNL     1      13.423  52.881 -51.044  1.00  0.00     0.298 C 
HETATM   12  N1  UNL     1      14.633  52.404 -50.417  1.00  0.00     0.088 N 
HETATM   13  C1  UNL     1      14.656  52.671 -48.994  1.00  0.00     0.310 C 
HETATM   14  C11 UNL     1      14.963  51.053 -50.741  1.00  0.00     0.305 C 
ENDBRANCH   7   8
ENDBRANCH   5   7
ENDBRANCH   3   5
ENDBRANCH   1   3
BRANCH   1  15
HETATM   15  C7  UNL     1      13.716  49.551 -46.424  1.00  0.00     0.199 C 
HETATM   16  N4  UNL     1      12.603  49.690 -45.805  1.00  0.00    -0.293 N 
ATOM     17  H4  UNL     1      12.577  50.152 -44.896  1.00  0.00     0.187 HD
BRANCH  16  18
HETATM   18  N5  UNL     1      11.433  49.211 -46.377  1.00  0.00    -0.271 N 
ATOM     19  H5  UNL     1      11.215  48.215 -46.334  1.00  0.00     0.190 HD
BRANCH  18  20
HETATM   20  C8  UNL     1      10.525  50.118 -47.031  1.00  0.00     0.190 C 
HETATM   21  N6  UNL     1       9.234  50.042 -46.994  1.00  0.00    -0.360 N 
HETATM   22  C9  UNL     1       8.630  51.108 -47.757  1.00  0.00     0.142 C 
ATOM     23  H6  UNL     1       8.712  49.323 -46.492  1.00  0.00     0.162 HD
HETATM   24  C10 UNL     1       9.762  52.018 -48.176  1.00  0.00     0.142 C 
HETATM   25  N7  UNL     1      10.928  51.233 -47.816  1.00  0.00    -0.360 N 
ATOM     26  H7  UNL     1      11.888  51.448 -48.084  1.00  0.00     0.162 HD
ENDBRANCH  18  20
ENDBRANCH  16  18
ENDBRANCH   1  15
TORSDOF 7
ENDMDL
MODEL 5
REMARK VINA RESULT: -6.012007001      0.637      1.062
REMARK  7 active torsions:
REMARK  status: ('A' for Active; 'I' for Inactive)
REMARK    1  A    between atoms: C4_6  and  C5_7 
REMARK    2  A    between atoms: C5_7  and  N2_8 
REMARK    3  A    between atoms: N2_8  and  C6_10 
REMARK    4  A    between atoms: C6_10  and  N3_12 
REMARK    5  A    between atoms: N3_12  and  C7_14 
REMARK    6  A    between atoms: N4_15  and  N5_17 
REMARK    7  A    between atoms: N5_17  and  C8_19 
ROOT
HETATM    1  N3  UNL     1      14.187  50.127 -46.568  1.00  0.00    -0.328 N 
ATOM      2  H3  UNL     1      13.960  50.951 -47.125  1.00  0.00     0.169 HD
ENDROOT
BRANCH   1   3
HETATM    3  C6  UNL     1      15.154  49.228 -47.071  1.00  0.00     0.172 C 
HETATM    4  S1  UNL     1      16.251  48.535 -46.091  1.00  0.00    -0.041 SA
BRANCH   3   5
HETATM    5  N2  UNL     1      15.167  48.928 -48.448  1.00  0.00    -0.364 N 
ATOM      6  H2  UNL     1      16.002  49.122 -49.000  1.00  0.00     0.162 HD
BRANCH   5   7
HETATM    7  C5  UNL     1      14.013  48.349 -49.081  1.00  0.00     0.155 C 
BRANCH   7   8
HETATM    8  C4  UNL     1      14.036  48.492 -50.572  1.00  0.00     0.167 C 
HETATM    9  O1  UNL     1      12.794  48.839 -51.098  1.00  0.00    -0.381 OA
HETATM   10  C3  UNL     1      12.868  48.644 -52.473  1.00  0.00     0.198 C 
HETATM   11  C2  UNL     1      13.948  49.489 -53.109  1.00  0.00     0.298 C 
HETATM   12  N1  UNL     1      14.666  50.283 -52.139  1.00  0.00     0.088 N 
HETATM   13  C1  UNL     1      14.017  51.550 -51.878  1.00  0.00     0.310 C 
HETATM   14  C11 UNL     1      15.014  49.573 -50.950  1.00  0.00     0.305 C 
ENDBRANCH   7   8
ENDBRANCH   5   7
ENDBRANCH   3   5
ENDBRANCH   1   3
BRANCH   1  15
HETATM   15  C7  UNL     1      13.517  49.953 -45.338  1.00  0.00     0.199 C 
HETATM   16  N4  UNL     1      12.308  49.530 -45.328  1.00  0.00    -0.293 N 
ATOM     17  H4  UNL     1      11.817  49.401 -44.443  1.00  0.00     0.187 HD
BRANCH  16  18
HETATM   18  N5  UNL     1      11.667  49.249 -46.526  1.00  0.00    -0.271 N 
ATOM     19  H5  UNL     1      11.858  48.373 -47.012  1.00  0.00     0.190 HD
BRANCH  18  20
HETATM   20  C8  UNL     1      10.733  50.192 -47.084  1.00  0.00     0.190 C 
HETATM   21  N6  UNL     1      11.047  51.227 -47.795  1.00  0.00    -0.360 N 
HETATM   22  C9  UNL     1       9.868  51.959 -48.194  1.00  0.00     0.142 C 
ATOM     23  H6  UNL     1      12.002  51.491 -48.041  1.00  0.00     0.162 HD
HETATM   24  C10 UNL     1       8.687  51.122 -47.758  1.00  0.00     0.142 C 
HETATM   25  N7  UNL     1       9.322  50.115 -46.928  1.00  0.00    -0.360 N 
ATOM     26  H7  UNL     1       8.831  49.453 -46.327  1.00  0.00     0.162 HD
ENDBRANCH  18  20
ENDBRANCH  16  18
ENDBRANCH   1  15
TORSDOF 7
ENDMDL
