MODEL 1
REMARK VINA RESULT: -6.634766365      0.000      0.000
REMARK  5 active torsions:
REMARK  status: ('A' for Active; 'I' for Inactive)
REMARK    1  A    between atoms: C2_2  and  N1_3 
REMARK    2  A    between atoms: C3_10  and  C4_11 
REMARK    3  A    between atoms: C4_11  and  C5_12 
REMARK    4  A    between atoms: C5_12  and  N5_13 
REMARK    5  A    between atoms: N5_13  and  C6_15 
REMARK       I    between atoms: N7_19  and  C8_20 
ROOT
HETATM    1  C4  UNL     1      12.962  50.070 -48.595  1.00  0.00     0.217 C 
HETATM    2  C7  UNL     1      13.339  48.734 -48.063  1.00  0.00     0.174 C 
HETATM    3  N7  UNL     1      14.314  48.866 -46.952  1.00  0.00    -0.348 N 
HETATM    4  C8  UNL     1      15.521  48.149 -46.894  1.00  0.00     0.215 C 
HETATM    5  C9  UNL     1      16.498  48.298 -45.814  1.00  0.00     0.117 C 
HETATM    6  O1  UNL     1      15.820  47.310 -47.814  1.00  0.00    -0.274 OA
HETATM    7  C10 UNL     1      13.955  49.803 -45.919  1.00  0.00     0.153 C 
HETATM    8  C11 UNL     1      13.810  51.147 -46.604  1.00  0.00     0.253 C 
HETATM    9  N8  UNL     1      13.972  51.033 -48.037  1.00  0.00    -0.054 N 
ATOM     10  H81 UNL     1      13.931  51.941 -48.499  1.00  0.00     0.278 HD
ATOM     11  H82 UNL     1      14.926  50.777 -48.294  1.00  0.00     0.278 HD
ENDROOT
BRANCH   1  12
HETATM   12  C3  UNL     1      11.685  50.630 -48.118  1.00  0.00     0.155 A 
HETATM   13  N1  UNL     1      10.715  50.032 -47.427  1.00  0.00    -0.261 N 
HETATM   14  N2  UNL     1       9.755  50.973 -47.281  1.00  0.00    -0.225 N 
HETATM   15  N3  UNL     1      10.133  52.088 -47.854  1.00  0.00    -0.227 N 
ATOM     16  H2  UNL     1       8.868  50.835 -46.797  1.00  0.00     0.210 HD
HETATM   17  N4  UNL     1      11.295  51.912 -48.368  1.00  0.00    -0.270 N 
ATOM     18  H3  UNL     1       9.593  52.952 -47.887  1.00  0.00     0.210 HD
ATOM     19  H4  UNL     1      11.834  52.612 -48.877  1.00  0.00     0.190 HD
BRANCH  13  20
HETATM   20  C2  UNL     1      10.578  48.712 -46.860  1.00  0.00     0.148 C 
HETATM   21  C1  UNL     1      10.633  48.757 -45.328  1.00  0.00     0.028 C 
ENDBRANCH  13  20
ENDBRANCH   1  12
BRANCH   1  22
HETATM   22  C5  UNL     1      13.095  50.112 -50.063  1.00  0.00     0.170 C 
BRANCH  22  23
HETATM   23  N5  UNL     1      13.442  48.921 -50.770  1.00  0.00    -0.367 N 
ATOM     24  H5  UNL     1      13.837  48.213 -50.150  1.00  0.00     0.161 HD
BRANCH  23  25
HETATM   25  C6  UNL     1      13.381  48.485 -52.067  1.00  0.00     0.181 C 
HETATM   26  N6  UNL     1      12.289  48.516 -52.960  1.00  0.00    -0.070 NA
HETATM   27  S1  UNL     1      14.751  47.803 -52.753  1.00  0.00    -0.044 SA
ENDBRANCH  23  25
ENDBRANCH  22  23
ENDBRANCH   1  22
TORSDOF 5
ENDMDL
MODEL 2
REMARK VINA RESULT: -6.578611603      2.011      2.316
REMARK  5 active torsions:
REMARK  status: ('A' for Active; 'I' for Inactive)
REMARK    1  A    between atoms: C2_2  and  N1_3 
REMARK    2  A    between atoms: C3_10  and  C4_11 
REMARK    3  A    between atoms: C4_11  and  C5_12 
REMARK    4  A    between atoms: C5_12  and  N5_13 
REMARK    5  A    between atoms: N5_13  and  C6_15 
REMARK       I    between atoms: N7_19  and  C8_20 
ROOT
HETATM    1  C4  UNL     1      13.341  50.250 -50.190  1.00  0.00     0.217 C 
HETATM    2  C7  UNL     1      14.200  49.156 -49.665  1.00  0.00     0.174 C 
HETATM    3  N7  UNL     1      15.567  49.657 -49.372  1.00  0.00    -0.348 N 
HETATM    4  C8  UNL     1      16.735  49.030 -49.839  1.00  0.00     0.215 C 
HETATM    5  C9  UNL     1      18.083  49.537 -49.575  1.00  0.00     0.117 C 
HETATM    6  O1  UNL     1      16.661  47.958 -50.534  1.00  0.00    -0.274 OA
HETATM    7  C10 UNL     1      15.632  50.855 -48.577  1.00  0.00     0.153 C 
HETATM    8  C11 UNL     1      14.880  51.916 -49.356  1.00  0.00     0.253 C 
HETATM    9  N8  UNL     1      14.277  51.369 -50.552  1.00  0.00    -0.054 N 
ATOM     10  H81 UNL     1      13.816  52.088 -51.110  1.00  0.00     0.278 HD
ATOM     11  H82 UNL     1      14.977  51.076 -51.234  1.00  0.00     0.278 HD
ENDROOT
BRANCH   1  12
HETATM   12  C3  UNL     1      12.431  50.890 -49.224  1.00  0.00     0.155 A 
HETATM   13  N1  UNL     1      12.083  50.482 -48.004  1.00  0.00    -0.261 N 
HETATM   14  N2  UNL     1      11.199  51.406 -47.563  1.00  0.00    -0.225 N 
HETATM   15  N3  UNL     1      11.027  52.329 -48.474  1.00  0.00    -0.227 N 
ATOM     16  H2  UNL     1      10.736  51.385 -46.655  1.00  0.00     0.210 HD
HETATM   17  N4  UNL     1      11.758  52.046 -49.489  1.00  0.00    -0.270 N 
ATOM     18  H3  UNL     1      10.414  53.139 -48.390  1.00  0.00     0.210 HD
ATOM     19  H4  UNL     1      11.824  52.592 -50.348  1.00  0.00     0.190 HD
BRANCH  13  20
HETATM   20  C2  UNL     1      12.488  49.364 -47.186  1.00  0.00     0.148 C 
HETATM   21  C1  UNL     1      13.245  49.835 -45.939  1.00  0.00     0.028 C 
ENDBRANCH  13  20
ENDBRANCH   1  12
BRANCH   1  22
HETATM   22  C5  UNL     1      12.663  49.839 -51.434  1.00  0.00     0.170 C 
BRANCH  22  23
HETATM   23  N5  UNL     1      12.795  48.493 -51.893  1.00  0.00    -0.367 N 
ATOM     24  H5  UNL     1      12.161  47.861 -51.403  1.00  0.00     0.161 HD
BRANCH  23  25
HETATM   25  C6  UNL     1      13.554  47.833 -52.823  1.00  0.00     0.181 C 
HETATM   26  N6  UNL     1      13.462  46.491 -53.247  1.00  0.00    -0.070 NA
HETATM   27  S1  UNL     1      14.783  48.669 -53.598  1.00  0.00    -0.044 SA
ENDBRANCH  23  25
ENDBRANCH  22  23
ENDBRANCH   1  22
TORSDOF 5
ENDMDL
MODEL 3
REMARK VINA RESULT: -6.469254945      2.436      4.431
REMARK  5 active torsions:
REMARK  status: ('A' for Active; 'I' for Inactive)
REMARK    1  A    between atoms: C2_2  and  N1_3 
REMARK    2  A    between atoms: C3_10  and  C4_11 
REMARK    3  A    between atoms: C4_11  and  C5_12 
REMARK    4  A    between atoms: C5_12  and  N5_13 
REMARK    5  A    between atoms: N5_13  and  C6_15 
REMARK       I    between atoms: N7_19  and  C8_20 
ROOT
HETATM    1  C4  UNL     1      13.662  49.708 -49.443  1.00  0.00     0.217 C 
HETATM    2  C7  UNL     1      12.625  50.436 -48.665  1.00  0.00     0.174 C 
HETATM    3  N7  UNL     1      12.362  49.755 -47.373  1.00  0.00    -0.348 N 
HETATM    4  C8  UNL     1      11.072  49.423 -46.924  1.00  0.00     0.215 C 
HETATM    5  C9  UNL     1      10.812  48.725 -45.663  1.00  0.00     0.117 C 
HETATM    6  O1  UNL     1      10.045  49.728 -47.623  1.00  0.00    -0.274 OA
HETATM    7  C10 UNL     1      13.528  49.431 -46.593  1.00  0.00     0.153 C 
HETATM    8  C11 UNL     1      14.374  48.522 -47.461  1.00  0.00     0.253 C 
HETATM    9  N8  UNL     1      13.803  48.366 -48.781  1.00  0.00    -0.054 N 
ATOM     10  H81 UNL     1      14.337  47.711 -49.352  1.00  0.00     0.278 HD
ATOM     11  H82 UNL     1      12.919  47.857 -48.757  1.00  0.00     0.278 HD
ENDROOT
BRANCH   1  12
HETATM   12  C3  UNL     1      15.032  50.246 -49.375  1.00  0.00     0.155 A 
HETATM   13  N1  UNL     1      15.429  51.502 -49.169  1.00  0.00    -0.261 N 
HETATM   14  N2  UNL     1      16.778  51.460 -49.240  1.00  0.00    -0.225 N 
HETATM   15  N3  UNL     1      17.175  50.235 -49.474  1.00  0.00    -0.227 N 
ATOM     16  H2  UNL     1      17.396  52.264 -49.128  1.00  0.00     0.210 HD
HETATM   17  N4  UNL     1      16.143  49.478 -49.561  1.00  0.00    -0.270 N 
ATOM     18  H3  UNL     1      18.144  49.932 -49.571  1.00  0.00     0.210 HD
ATOM     19  H4  UNL     1      16.152  48.474 -49.738  1.00  0.00     0.190 HD
BRANCH  13  20
HETATM   20  C2  UNL     1      14.719  52.725 -48.885  1.00  0.00     0.148 C 
HETATM   21  C1  UNL     1      15.605  53.952 -49.137  1.00  0.00     0.028 C 
ENDBRANCH  13  20
ENDBRANCH   1  12
BRANCH   1  22
HETATM   22  C5  UNL     1      13.209  49.459 -50.824  1.00  0.00     0.170 C 
BRANCH  22  23
HETATM   23  N5  UNL     1      13.407  48.170 -51.407  1.00  0.00    -0.367 N 
ATOM     24  H5  UNL     1      13.048  47.425 -50.809  1.00  0.00     0.161 HD
BRANCH  23  25
HETATM   25  C6  UNL     1      13.956  47.678 -52.561  1.00  0.00     0.181 C 
HETATM   26  N6  UNL     1      13.462  46.669 -53.414  1.00  0.00    -0.070 NA
HETATM   27  S1  UNL     1      15.416  48.308 -53.091  1.00  0.00    -0.044 SA
ENDBRANCH  23  25
ENDBRANCH  22  23
ENDBRANCH   1  22
TORSDOF 5
ENDMDL
MODEL 4
REMARK VINA RESULT: -6.446854833      2.450      3.173
REMARK  5 active torsions:
REMARK  status: ('A' for Active; 'I' for Inactive)
REMARK    1  A    between atoms: C2_2  and  N1_3 
REMARK    2  A    between atoms: C3_10  and  C4_11 
REMARK    3  A    between atoms: C4_11  and  C5_12 
REMARK    4  A    between atoms: C5_12  and  N5_13 
REMARK    5  A    between atoms: N5_13  and  C6_15 
REMARK       I    between atoms: N7_19  and  C8_20 
ROOT
HETATM    1  C4  UNL     1      13.537  50.378 -50.189  1.00  0.00     0.217 C 
HETATM    2  C7  UNL     1      14.933  49.898 -50.006  1.00  0.00     0.174 C 
HETATM    3  N7  UNL     1      15.888  51.034 -50.044  1.00  0.00    -0.348 N 
HETATM    4  C8  UNL     1      17.036  51.050 -50.854  1.00  0.00     0.215 C 
HETATM    5  C9  UNL     1      17.965  52.180 -50.915  1.00  0.00     0.117 C 
HETATM    6  O1  UNL     1      17.321  50.044 -51.593  1.00  0.00    -0.274 OA
HETATM    7  C10 UNL     1      15.559  52.150 -49.196  1.00  0.00     0.153 C 
HETATM    8  C11 UNL     1      14.201  52.640 -49.655  1.00  0.00     0.253 C 
HETATM    9  N8  UNL     1      13.653  51.790 -50.690  1.00  0.00    -0.054 N 
ATOM     10  H81 UNL     1      12.764  52.145 -51.043  1.00  0.00     0.278 HD
ATOM     11  H82 UNL     1      14.190  51.846 -51.555  1.00  0.00     0.278 HD
ENDROOT
BRANCH   1  12
HETATM   12  C3  UNL     1      12.731  50.534 -48.967  1.00  0.00     0.155 A 
HETATM   13  N1  UNL     1      12.867  49.923 -47.790  1.00  0.00    -0.261 N 
HETATM   14  N2  UNL     1      11.853  50.394 -47.030  1.00  0.00    -0.225 N 
HETATM   15  N3  UNL     1      11.141  51.251 -47.716  1.00  0.00    -0.227 N 
ATOM     16  H2  UNL     1      11.669  50.120 -46.065  1.00  0.00     0.210 HD
HETATM   17  N4  UNL     1      11.647  51.358 -48.890  1.00  0.00    -0.270 N 
ATOM     18  H3  UNL     1      10.321  51.751 -47.374  1.00  0.00     0.210 HD
ATOM     19  H4  UNL     1      11.298  51.956 -49.638  1.00  0.00     0.190 HD
BRANCH  13  20
HETATM   20  C2  UNL     1      13.834  48.985 -47.273  1.00  0.00     0.148 C 
HETATM   21  C1  UNL     1      14.535  49.541 -46.027  1.00  0.00     0.028 C 
ENDBRANCH  13  20
ENDBRANCH   1  12
BRANCH   1  22
HETATM   22  C5  UNL     1      12.847  49.606 -51.239  1.00  0.00     0.170 C 
BRANCH  22  23
HETATM   23  N5  UNL     1      13.323  48.303 -51.580  1.00  0.00    -0.367 N 
ATOM     24  H5  UNL     1      13.369  47.691 -50.764  1.00  0.00     0.161 HD
BRANCH  23  25
HETATM   25  C6  UNL     1      13.732  47.664 -52.720  1.00  0.00     0.181 C 
HETATM   26  N6  UNL     1      13.375  46.384 -53.193  1.00  0.00    -0.070 NA
HETATM   27  S1  UNL     1      14.811  48.445 -53.738  1.00  0.00    -0.044 SA
ENDBRANCH  23  25
ENDBRANCH  22  23
ENDBRANCH   1  22
TORSDOF 5
ENDMDL
MODEL 5
REMARK VINA RESULT: -6.420729504      3.053      4.818
REMARK  5 active torsions:
REMARK  status: ('A' for Active; 'I' for Inactive)
REMARK    1  A    between atoms: C2_2  and  N1_3 
REMARK    2  A    between atoms: C3_10  and  C4_11 
REMARK    3  A    between atoms: C4_11  and  C5_12 
REMARK    4  A    between atoms: C5_12  and  N5_13 
REMARK    5  A    between atoms: N5_13  and  C6_15 
REMARK       I    between atoms: N7_19  and  C8_20 
ROOT
HETATM    1  C4  UNL     1      12.191  51.633 -49.138  1.00  0.00     0.217 C 
HETATM    2  C7  UNL     1      13.260  51.660 -48.106  1.00  0.00     0.174 C 
HETATM    3  N7  UNL     1      14.089  50.431 -48.175  1.00  0.00    -0.348 N 
HETATM    4  C8  UNL     1      14.380  49.631 -47.057  1.00  0.00     0.215 C 
HETATM    5  C9  UNL     1      15.174  48.403 -47.127  1.00  0.00     0.117 C 
HETATM    6  O1  UNL     1      13.948  49.958 -45.897  1.00  0.00    -0.274 OA
HETATM    7  C10 UNL     1      14.578  50.085 -49.485  1.00  0.00     0.153 C 
HETATM    8  C11 UNL     1      13.352  49.897 -50.354  1.00  0.00     0.253 C 
HETATM    9  N8  UNL     1      12.137  50.216 -49.636  1.00  0.00    -0.054 N 
ATOM     10  H81 UNL     1      11.304  50.039 -50.196  1.00  0.00     0.278 HD
ATOM     11  H82 UNL     1      11.954  49.553 -48.882  1.00  0.00     0.278 HD
ENDROOT
BRANCH   1  12
HETATM   12  C3  UNL     1      12.449  52.398 -50.370  1.00  0.00     0.155 A 
HETATM   13  N1  UNL     1      13.489  53.176 -50.671  1.00  0.00    -0.261 N 
HETATM   14  N2  UNL     1      13.217  53.668 -51.900  1.00  0.00    -0.225 N 
HETATM   15  N3  UNL     1      12.068  53.205 -52.322  1.00  0.00    -0.227 N 
ATOM     16  H2  UNL     1      13.817  54.307 -52.422  1.00  0.00     0.210 HD
HETATM   17  N4  UNL     1      11.580  52.434 -51.420  1.00  0.00    -0.270 N 
ATOM     18  H3  UNL     1      11.633  53.420 -53.219  1.00  0.00     0.210 HD
ATOM     19  H4  UNL     1      10.693  51.934 -51.478  1.00  0.00     0.190 HD
BRANCH  13  20
HETATM   20  C2  UNL     1      14.714  53.495 -49.977  1.00  0.00     0.148 C 
HETATM   21  C1  UNL     1      15.932  53.312 -50.891  1.00  0.00     0.028 C 
ENDBRANCH  13  20
ENDBRANCH   1  12
BRANCH   1  22
HETATM   22  C5  UNL     1      10.874  51.929 -48.543  1.00  0.00     0.170 C 
BRANCH  22  23
HETATM   23  N5  UNL     1      10.410  51.147 -47.442  1.00  0.00    -0.367 N 
ATOM     24  H5  UNL     1      10.510  51.644 -46.556  1.00  0.00     0.161 HD
BRANCH  23  25
HETATM   25  C6  UNL     1       9.866  49.902 -47.270  1.00  0.00     0.181 C 
HETATM   26  N6  UNL     1       8.698  49.361 -47.845  1.00  0.00    -0.070 NA
HETATM   27  S1  UNL     1      10.635  48.822 -46.243  1.00  0.00    -0.044 SA
ENDBRANCH  23  25
ENDBRANCH  22  23
ENDBRANCH   1  22
TORSDOF 5
ENDMDL
