MODEL 1
REMARK VINA RESULT: -6.690711039      0.000      0.000
REMARK  7 active torsions:
REMARK  status: ('A' for Active; 'I' for Inactive)
REMARK    1  A    between atoms: C3_3  and  C4_4 
REMARK    2  A    between atoms: C4_4  and  C5_5 
REMARK    3  A    between atoms: C6_9  and  C7_10 
REMARK       I    between atoms: C7_10  and  N2_12 
REMARK    4  A    between atoms: N2_12  and  C8_14 
REMARK    5  A    between atoms: C8_14  and  C9_15 
REMARK    6  A    between atoms: C9_15  and  N3_16 
REMARK    7  A    between atoms: C11_22  and  O3_23 
ROOT
HETATM    1  C5  UNL     1      16.548  49.941 -59.839  1.00  0.00     0.126 A 
HETATM    2  O1  UNL     1      15.476  50.700 -59.648  1.00  0.00    -0.235 OA
HETATM    3  N1  UNL     1      15.104  50.679 -58.421  1.00  0.00    -0.253 N 
ATOM      4  H1  UNL     1      14.304  51.188 -58.046  1.00  0.00     0.195 HD
HETATM    5  C6  UNL     1      15.922  49.888 -57.697  1.00  0.00     0.149 A 
HETATM    6  C10 UNL     1      16.845  49.408 -58.577  1.00  0.00     0.116 A 
HETATM    7  N4  UNL     1      17.927  48.536 -58.329  1.00  0.00    -0.097 NA
ENDROOT
BRANCH   1   8
HETATM    8  C4  UNL     1      17.271  49.689 -61.044  1.00  0.00     0.058 C 
BRANCH   8   9
HETATM    9  C3  UNL     1      17.077  48.822 -62.009  1.00  0.00     0.028 A 
HETATM   10  C2  UNL     1      16.421  48.997 -63.202  1.00  0.00     0.038 A 
HETATM   11  C1  UNL     1      15.811  50.036 -63.730  1.00  0.00     0.044 C 
HETATM   12  N5  UNL     1      16.505  47.782 -63.844  1.00  0.00    -0.352 N 
HETATM   13  C12 UNL     1      17.160  46.898 -63.121  1.00  0.00     0.042 A 
HETATM   14  C14 UNL     1      15.934  47.519 -65.161  1.00  0.00     0.156 C 
HETATM   15  C11 UNL     1      17.547  47.494 -61.952  1.00  0.00     0.100 A 
HETATM   16  C13 UNL     1      17.455  45.475 -63.479  1.00  0.00     0.071 C 
BRANCH  15  17
HETATM   17  O3  UNL     1      18.259  46.900 -60.925  1.00  0.00    -0.358 OA
ATOM     18  H3  UNL     1      19.071  46.412 -60.995  1.00  0.00     0.217 HD
ENDBRANCH  15  17
ENDBRANCH   8   9
ENDBRANCH   1   8
BRANCH   5  19
HETATM   19  C7  UNL     1      15.847  49.595 -56.276  1.00  0.00     0.272 C 
HETATM   20  O2  UNL     1      16.439  50.340 -55.461  1.00  0.00    -0.266 OA
HETATM   21  N2  UNL     1      15.108  48.474 -55.823  1.00  0.00    -0.354 N 
ATOM     22  H2  UNL     1      14.630  47.872 -56.494  1.00  0.00     0.162 HD
BRANCH  21  23
HETATM   23  C8  UNL     1      15.035  48.184 -54.416  1.00  0.00     0.150 C 
BRANCH  23  24
HETATM   24  C9  UNL     1      13.624  47.987 -53.938  1.00  0.00     0.249 C 
BRANCH  24  25
HETATM   25  N3  UNL     1      13.525  47.010 -52.881  1.00  0.00    -0.078 N 
ATOM     26  H33 UNL     1      13.348  46.079 -53.258  1.00  0.00     0.274 HD
ATOM     27  H32 UNL     1      14.434  46.844 -52.451  1.00  0.00     0.274 HD
ATOM     28  H31 UNL     1      12.828  47.259 -52.179  1.00  0.00     0.274 HD
ENDBRANCH  24  25
ENDBRANCH  23  24
ENDBRANCH  21  23
ENDBRANCH   5  19
TORSDOF 7
ENDMDL
MODEL 2
REMARK VINA RESULT: -6.581152994      5.418     11.842
REMARK  7 active torsions:
REMARK  status: ('A' for Active; 'I' for Inactive)
REMARK    1  A    between atoms: C3_3  and  C4_4 
REMARK    2  A    between atoms: C4_4  and  C5_5 
REMARK    3  A    between atoms: C6_9  and  C7_10 
REMARK       I    between atoms: C7_10  and  N2_12 
REMARK    4  A    between atoms: N2_12  and  C8_14 
REMARK    5  A    between atoms: C8_14  and  C9_15 
REMARK    6  A    between atoms: C9_15  and  N3_16 
REMARK    7  A    between atoms: C11_22  and  O3_23 
ROOT
HETATM    1  C5  UNL     1      13.635  49.572 -50.821  1.00  0.00     0.126 A 
HETATM    2  O1  UNL     1      12.688  48.709 -51.166  1.00  0.00    -0.235 OA
HETATM    3  N1  UNL     1      12.943  48.168 -52.300  1.00  0.00    -0.253 N 
ATOM      4  H1  UNL     1      12.352  47.475 -52.761  1.00  0.00     0.195 HD
HETATM    5  C6  UNL     1      14.103  48.644 -52.797  1.00  0.00     0.149 A 
HETATM    6  C10 UNL     1      14.559  49.537 -51.876  1.00  0.00     0.116 A 
HETATM    7  N4  UNL     1      15.736  50.315 -51.912  1.00  0.00    -0.097 NA
ENDROOT
BRANCH   1   8
HETATM    8  C4  UNL     1      13.734  50.382 -49.650  1.00  0.00     0.058 C 
BRANCH   8   9
HETATM    9  C3  UNL     1      14.069  50.090 -48.416  1.00  0.00     0.028 A 
HETATM   10  C2  UNL     1      15.235  49.534 -47.951  1.00  0.00     0.038 A 
HETATM   11  C1  UNL     1      16.330  49.139 -48.564  1.00  0.00     0.044 C 
HETATM   12  N5  UNL     1      15.073  49.438 -46.587  1.00  0.00    -0.352 N 
HETATM   13  C12 UNL     1      13.898  49.895 -46.207  1.00  0.00     0.042 A 
HETATM   14  C14 UNL     1      16.085  48.896 -45.687  1.00  0.00     0.156 C 
HETATM   15  C11 UNL     1      13.218  50.321 -47.316  1.00  0.00     0.100 A 
HETATM   16  C13 UNL     1      13.359  49.957 -44.813  1.00  0.00     0.071 C 
BRANCH  15  17
HETATM   17  O3  UNL     1      11.948  50.868 -47.338  1.00  0.00    -0.358 OA
ATOM     18  H3  UNL     1      11.683  51.691 -47.730  1.00  0.00     0.217 HD
ENDBRANCH  15  17
ENDBRANCH   8   9
ENDBRANCH   1   8
BRANCH   5  19
HETATM   19  C7  UNL     1      14.745  48.290 -54.052  1.00  0.00     0.272 C 
HETATM   20  O2  UNL     1      14.069  47.757 -54.962  1.00  0.00    -0.266 OA
HETATM   21  N2  UNL     1      16.126  48.550 -54.236  1.00  0.00    -0.354 N 
ATOM     22  H2  UNL     1      16.668  48.984 -53.489  1.00  0.00     0.162 HD
BRANCH  21  23
HETATM   23  C8  UNL     1      16.761  48.200 -55.478  1.00  0.00     0.150 C 
BRANCH  23  24
HETATM   24  C9  UNL     1      16.734  49.321 -56.478  1.00  0.00     0.249 C 
BRANCH  24  25
HETATM   25  N3  UNL     1      15.592  49.256 -57.358  1.00  0.00    -0.078 N 
ATOM     26  H33 UNL     1      14.795  48.823 -56.891  1.00  0.00     0.274 HD
ATOM     27  H32 UNL     1      15.203  50.184 -57.521  1.00  0.00     0.274 HD
ATOM     28  H31 UNL     1      15.799  48.786 -58.239  1.00  0.00     0.274 HD
ENDBRANCH  24  25
ENDBRANCH  23  24
ENDBRANCH  21  23
ENDBRANCH   5  19
TORSDOF 7
ENDMDL
MODEL 3
REMARK VINA RESULT: -6.558482004      4.063     10.700
REMARK  7 active torsions:
REMARK  status: ('A' for Active; 'I' for Inactive)
REMARK    1  A    between atoms: C3_3  and  C4_4 
REMARK    2  A    between atoms: C4_4  and  C5_5 
REMARK    3  A    between atoms: C6_9  and  C7_10 
REMARK       I    between atoms: C7_10  and  N2_12 
REMARK    4  A    between atoms: N2_12  and  C8_14 
REMARK    5  A    between atoms: C8_14  and  C9_15 
REMARK    6  A    between atoms: C9_15  and  N3_16 
REMARK    7  A    between atoms: C11_22  and  O3_23 
ROOT
HETATM    1  C5  UNL     1      14.217  48.286 -52.394  1.00  0.00     0.126 A 
HETATM    2  O1  UNL     1      13.077  48.008 -53.015  1.00  0.00    -0.235 OA
HETATM    3  N1  UNL     1      13.232  47.998 -54.288  1.00  0.00    -0.253 N 
ATOM      4  H1  UNL     1      12.492  47.808 -54.963  1.00  0.00     0.195 HD
HETATM    5  C6  UNL     1      14.513  48.274 -54.607  1.00  0.00     0.149 A 
HETATM    6  C10 UNL     1      15.157  48.461 -53.420  1.00  0.00     0.116 A 
HETATM    7  N4  UNL     1      16.514  48.773 -53.195  1.00  0.00    -0.097 NA
ENDROOT
BRANCH   1   8
HETATM    8  C4  UNL     1      14.477  48.396 -50.995  1.00  0.00     0.058 C 
BRANCH   8   9
HETATM    9  C3  UNL     1      13.846  49.040 -50.041  1.00  0.00     0.028 A 
HETATM   10  C2  UNL     1      13.870  48.811 -48.688  1.00  0.00     0.038 A 
HETATM   11  C1  UNL     1      14.501  47.918 -47.955  1.00  0.00     0.044 C 
HETATM   12  N5  UNL     1      13.038  49.763 -48.144  1.00  0.00    -0.352 N 
HETATM   13  C12 UNL     1      12.521  50.541 -49.071  1.00  0.00     0.042 A 
HETATM   14  C14 UNL     1      12.771  49.884 -46.714  1.00  0.00     0.156 C 
HETATM   15  C11 UNL     1      12.993  50.135 -50.290  1.00  0.00     0.100 A 
HETATM   16  C13 UNL     1      11.577  51.684 -48.871  1.00  0.00     0.071 C 
BRANCH  15  17
HETATM   17  O3  UNL     1      12.686  50.697 -51.516  1.00  0.00    -0.358 OA
ATOM     18  H3  UNL     1      12.665  50.261 -52.360  1.00  0.00     0.217 HD
ENDBRANCH  15  17
ENDBRANCH   8   9
ENDBRANCH   1   8
BRANCH   5  19
HETATM   19  C7  UNL     1      15.102  48.359 -55.932  1.00  0.00     0.272 C 
HETATM   20  O2  UNL     1      14.916  47.430 -56.751  1.00  0.00    -0.266 OA
HETATM   21  N2  UNL     1      15.878  49.491 -56.288  1.00  0.00    -0.354 N 
ATOM     22  H2  UNL     1      16.025  50.243 -55.615  1.00  0.00     0.162 HD
BRANCH  21  23
HETATM   23  C8  UNL     1      16.460  49.575 -57.601  1.00  0.00     0.150 C 
BRANCH  23  24
HETATM   24  C9  UNL     1      15.915  50.722 -58.404  1.00  0.00     0.249 C 
BRANCH  24  25
HETATM   25  N3  UNL     1      15.652  50.366 -59.778  1.00  0.00    -0.078 N 
ATOM     26  H33 UNL     1      15.125  49.494 -59.835  1.00  0.00     0.274 HD
ATOM     27  H32 UNL     1      14.970  50.999 -60.195  1.00  0.00     0.274 HD
ATOM     28  H31 UNL     1      16.501  50.319 -60.341  1.00  0.00     0.274 HD
ENDBRANCH  24  25
ENDBRANCH  23  24
ENDBRANCH  21  23
ENDBRANCH   5  19
TORSDOF 7
ENDMDL
MODEL 4
REMARK VINA RESULT: -6.549999011      1.852      7.517
REMARK  7 active torsions:
REMARK  status: ('A' for Active; 'I' for Inactive)
REMARK    1  A    between atoms: C3_3  and  C4_4 
REMARK    2  A    between atoms: C4_4  and  C5_5 
REMARK    3  A    between atoms: C6_9  and  C7_10 
REMARK       I    between atoms: C7_10  and  N2_12 
REMARK    4  A    between atoms: N2_12  and  C8_14 
REMARK    5  A    between atoms: C8_14  and  C9_15 
REMARK    6  A    between atoms: C9_15  and  N3_16 
REMARK    7  A    between atoms: C11_22  and  O3_23 
ROOT
HETATM    1  C5  UNL     1      16.485  49.853 -58.052  1.00  0.00     0.126 A 
HETATM    2  O1  UNL     1      15.553  50.541 -58.699  1.00  0.00    -0.235 OA
HETATM    3  N1  UNL     1      15.543  50.250 -59.948  1.00  0.00    -0.253 N 
ATOM      4  H1  UNL     1      14.911  50.658 -60.637  1.00  0.00     0.195 HD
HETATM    5  C6  UNL     1      16.489  49.328 -60.222  1.00  0.00     0.149 A 
HETATM    6  C10 UNL     1      17.100  49.062 -59.033  1.00  0.00     0.116 A 
HETATM    7  N4  UNL     1      18.158  48.167 -58.768  1.00  0.00    -0.097 NA
ENDROOT
BRANCH   1   8
HETATM    8  C4  UNL     1      16.826  49.881 -56.666  1.00  0.00     0.058 C 
BRANCH   8   9
HETATM    9  C3  UNL     1      16.110  49.661 -55.589  1.00  0.00     0.028 A 
HETATM   10  C2  UNL     1      15.961  50.453 -54.479  1.00  0.00     0.038 A 
HETATM   11  C1  UNL     1      16.463  51.627 -54.159  1.00  0.00     0.044 C 
HETATM   12  N5  UNL     1      15.108  49.761 -53.650  1.00  0.00    -0.352 N 
HETATM   13  C12 UNL     1      14.739  48.615 -54.184  1.00  0.00     0.042 A 
HETATM   14  C14 UNL     1      14.674  50.246 -52.344  1.00  0.00     0.156 C 
HETATM   15  C11 UNL     1      15.338  48.494 -55.408  1.00  0.00     0.100 A 
HETATM   16  C13 UNL     1      13.823  47.592 -53.589  1.00  0.00     0.071 C 
BRANCH  15  17
HETATM   17  O3  UNL     1      15.205  47.433 -56.285  1.00  0.00    -0.358 OA
ATOM     18  H3  UNL     1      15.901  46.952 -56.718  1.00  0.00     0.217 HD
ENDBRANCH  15  17
ENDBRANCH   8   9
ENDBRANCH   1   8
BRANCH   5  19
HETATM   19  C7  UNL     1      16.805  48.733 -61.509  1.00  0.00     0.272 C 
HETATM   20  O2  UNL     1      17.255  49.455 -62.428  1.00  0.00    -0.266 OA
HETATM   21  N2  UNL     1      16.603  47.345 -61.714  1.00  0.00    -0.354 N 
ATOM     22  H2  UNL     1      16.236  46.765 -60.959  1.00  0.00     0.162 HD
BRANCH  21  23
HETATM   23  C8  UNL     1      16.917  46.756 -62.988  1.00  0.00     0.150 C 
BRANCH  23  24
HETATM   24  C9  UNL     1      17.694  45.476 -62.860  1.00  0.00     0.249 C 
BRANCH  24  25
HETATM   25  N3  UNL     1      16.944  44.322 -63.293  1.00  0.00    -0.078 N 
ATOM     26  H33 UNL     1      15.989  44.351 -62.934  1.00  0.00     0.274 HD
ATOM     27  H32 UNL     1      16.746  44.369 -64.292  1.00  0.00     0.274 HD
ATOM     28  H31 UNL     1      17.399  43.443 -63.050  1.00  0.00     0.274 HD
ENDBRANCH  24  25
ENDBRANCH  23  24
ENDBRANCH  21  23
ENDBRANCH   5  19
TORSDOF 7
ENDMDL
MODEL 5
REMARK VINA RESULT: -6.511692195      1.971      7.656
REMARK  7 active torsions:
REMARK  status: ('A' for Active; 'I' for Inactive)
REMARK    1  A    between atoms: C3_3  and  C4_4 
REMARK    2  A    between atoms: C4_4  and  C5_5 
REMARK    3  A    between atoms: C6_9  and  C7_10 
REMARK       I    between atoms: C7_10  and  N2_12 
REMARK    4  A    between atoms: N2_12  and  C8_14 
REMARK    5  A    between atoms: C8_14  and  C9_15 
REMARK    6  A    between atoms: C9_15  and  N3_16 
REMARK    7  A    between atoms: C11_22  and  O3_23 
ROOT
HETATM    1  C5  UNL     1      16.958  49.357 -58.417  1.00  0.00     0.126 A 
HETATM    2  O1  UNL     1      18.042  48.600 -58.301  1.00  0.00    -0.235 OA
HETATM    3  N1  UNL     1      18.400  48.124 -59.437  1.00  0.00    -0.253 N 
ATOM      4  H1  UNL     1      19.205  47.516 -59.586  1.00  0.00     0.195 HD
HETATM    5  C6  UNL     1      17.559  48.541 -60.406  1.00  0.00     0.149 A 
HETATM    6  C10 UNL     1      16.635  49.324 -59.781  1.00  0.00     0.116 A 
HETATM    7  N4  UNL     1      15.535  50.006 -60.344  1.00  0.00    -0.097 NA
ENDROOT
BRANCH   1   8
HETATM    8  C4  UNL     1      16.240  50.064 -57.406  1.00  0.00     0.058 C 
BRANCH   8   9
HETATM    9  C3  UNL     1      16.040  49.801 -56.136  1.00  0.00     0.028 A 
HETATM   10  C2  UNL     1      16.499  50.479 -55.035  1.00  0.00     0.038 A 
HETATM   11  C1  UNL     1      17.247  51.555 -54.910  1.00  0.00     0.044 C 
HETATM   12  N5  UNL     1      16.005  49.790 -53.951  1.00  0.00    -0.352 N 
HETATM   13  C12 UNL     1      15.287  48.752 -54.325  1.00  0.00     0.042 A 
HETATM   14  C14 UNL     1      16.253  50.172 -52.565  1.00  0.00     0.156 C 
HETATM   15  C11 UNL     1      15.272  48.705 -55.692  1.00  0.00     0.100 A 
HETATM   16  C13 UNL     1      14.590  47.767 -53.440  1.00  0.00     0.071 C 
BRANCH  15  17
HETATM   17  O3  UNL     1      14.626  47.763 -56.473  1.00  0.00    -0.358 OA
ATOM     18  H3  UNL     1      13.743  47.812 -56.822  1.00  0.00     0.217 HD
ENDBRANCH  15  17
ENDBRANCH   8   9
ENDBRANCH   1   8
BRANCH   5  19
HETATM   19  C7  UNL     1      17.612  48.228 -61.824  1.00  0.00     0.272 C 
HETATM   20  O2  UNL     1      18.187  49.017 -62.608  1.00  0.00    -0.266 OA
HETATM   21  N2  UNL     1      17.013  47.038 -62.307  1.00  0.00    -0.354 N 
ATOM     22  H2  UNL     1      16.546  46.402 -61.661  1.00  0.00     0.162 HD
BRANCH  21  23
HETATM   23  C8  UNL     1      17.065  46.729 -63.711  1.00  0.00     0.150 C 
BRANCH  23  24
HETATM   24  C9  UNL     1      17.646  45.370 -63.984  1.00  0.00     0.249 C 
BRANCH  24  25
HETATM   25  N3  UNL     1      16.996  44.324 -63.231  1.00  0.00    -0.078 N 
ATOM     26  H33 UNL     1      17.663  43.603 -62.955  1.00  0.00     0.274 HD
ATOM     27  H32 UNL     1      16.720  44.656 -62.307  1.00  0.00     0.274 HD
ATOM     28  H31 UNL     1      16.202  43.918 -63.727  1.00  0.00     0.274 HD
ENDBRANCH  24  25
ENDBRANCH  23  24
ENDBRANCH  21  23
ENDBRANCH   5  19
TORSDOF 7
ENDMDL
