MODEL 1
REMARK VINA RESULT: -3.598324147      0.000      0.000
REMARK  3 active torsions:
REMARK  status: ('A' for Active; 'I' for Inactive)
REMARK    1  A    between atoms: N1_2  and  C3_4 
REMARK    2  A    between atoms: C5_11  and  N4_12 
REMARK    3  A    between atoms: C6_15  and  N5_16 
ROOT
HETATM    1  C3  UNL     1      38.859  30.591  49.292  1.00  0.00     0.685 C 
HETATM    2  N2  UNL     1      39.291  30.411  50.581  1.00  0.00    -0.141 N 
ATOM      3  H2  UNL     1      40.178  30.860  50.810  1.00  0.00     0.189 HD
HETATM    4  C4  UNL     1      38.708  29.721  51.605  1.00  0.00     0.340 C 
HETATM    5  O1  UNL     1      39.435  29.073  52.395  1.00  0.00    -0.246 OA
HETATM    6  N3  UNL     1      37.379  29.692  51.817  1.00  0.00    -0.291 N 
ATOM      7  H3  UNL     1      37.080  29.456  52.763  1.00  0.00     0.172 HD
HETATM    8  C5  UNL     1      36.390  29.941  50.920  1.00  0.00     0.147 C 
HETATM    9  C6  UNL     1      36.535  29.904  49.528  1.00  0.00     0.159 C 
HETATM   10  N6  UNL     1      37.642  30.192  48.813  1.00  0.00    -0.173 N 
ATOM     11  H6  UNL     1      37.562  30.102  47.800  1.00  0.00     0.186 HD
ENDROOT
BRANCH   1  12
HETATM   12  N1  UNL     1      39.686  31.241  48.375  1.00  0.00    -0.226 N 
HETATM   13  C1  UNL     1      39.998  32.646  48.486  1.00  0.00     0.168 C 
HETATM   14  C2  UNL     1      40.290  30.487  47.258  1.00  0.00     0.168 C 
ENDBRANCH   1  12
BRANCH   9  15
HETATM   15  N5  UNL     1      35.499  29.553  48.862  1.00  0.00    -0.382 N 
ATOM     16  H52 UNL     1      34.639  29.419  49.394  1.00  0.00     0.157 HD
ATOM     17  H51 UNL     1      35.628  29.440  47.857  1.00  0.00     0.157 HD
ENDBRANCH   9  15
BRANCH   8  18
HETATM   18  N4  UNL     1      35.217  30.233  51.326  1.00  0.00    -0.382 N 
ATOM     19  H42 UNL     1      35.145  30.410  52.328  1.00  0.00     0.157 HD
ATOM     20  H41 UNL     1      34.443  30.279  50.664  1.00  0.00     0.157 HD
ENDBRANCH   8  18
TORSDOF 3
ENDMDL
MODEL 2
REMARK VINA RESULT: -3.526736307      1.722      3.564
REMARK  3 active torsions:
REMARK  status: ('A' for Active; 'I' for Inactive)
REMARK    1  A    between atoms: N1_2  and  C3_4 
REMARK    2  A    between atoms: C5_11  and  N4_12 
REMARK    3  A    between atoms: C6_15  and  N5_16 
ROOT
HETATM    1  C3  UNL     1      38.716  29.785  51.562  1.00  0.00     0.685 C 
HETATM    2  N2  UNL     1      39.401  30.359  50.521  1.00  0.00    -0.141 N 
ATOM      3  H2  UNL     1      40.404  30.174  50.506  1.00  0.00     0.189 HD
HETATM    4  C4  UNL     1      38.937  31.141  49.502  1.00  0.00     0.340 C 
HETATM    5  O1  UNL     1      39.641  32.099  49.101  1.00  0.00    -0.246 OA
HETATM    6  N3  UNL     1      37.752  30.943  48.897  1.00  0.00    -0.291 N 
ATOM      7  H3  UNL     1      37.655  31.336  47.960  1.00  0.00     0.172 HD
HETATM    8  C5  UNL     1      36.671  30.283  49.385  1.00  0.00     0.147 C 
HETATM    9  C6  UNL     1      36.436  30.009  50.738  1.00  0.00     0.159 C 
HETATM   10  N6  UNL     1      37.356  29.792  51.700  1.00  0.00    -0.173 N 
ATOM     11  H6  UNL     1      36.996  29.614  52.638  1.00  0.00     0.186 HD
ENDROOT
BRANCH   1  12
HETATM   12  N1  UNL     1      39.422  29.117  52.564  1.00  0.00    -0.226 N 
HETATM   13  C1  UNL     1      40.714  29.570  53.023  1.00  0.00     0.168 C 
HETATM   14  C2  UNL     1      38.842  27.921  53.206  1.00  0.00     0.168 C 
ENDBRANCH   1  12
BRANCH   9  15
HETATM   15  N5  UNL     1      35.208  29.964  51.099  1.00  0.00    -0.382 N 
ATOM     16  H52 UNL     1      34.531  30.396  50.470  1.00  0.00     0.157 HD
ATOM     17  H51 UNL     1      35.017  29.496  51.985  1.00  0.00     0.157 HD
ENDBRANCH   9  15
BRANCH   8  18
HETATM   18  N4  UNL     1      35.767  29.861  48.591  1.00  0.00    -0.382 N 
ATOM     19  H42 UNL     1      35.901  30.124  47.615  1.00  0.00     0.157 HD
ATOM     20  H41 UNL     1      34.991  29.305  48.948  1.00  0.00     0.157 HD
ENDBRANCH   8  18
TORSDOF 3
ENDMDL
MODEL 3
REMARK VINA RESULT: -3.393674795      1.767      3.570
REMARK  3 active torsions:
REMARK  status: ('A' for Active; 'I' for Inactive)
REMARK    1  A    between atoms: N1_2  and  C3_4 
REMARK    2  A    between atoms: C5_11  and  N4_12 
REMARK    3  A    between atoms: C6_15  and  N5_16 
ROOT
HETATM    1  C3  UNL     1      38.678  29.962  51.415  1.00  0.00     0.685 C 
HETATM    2  N2  UNL     1      39.313  30.564  50.359  1.00  0.00    -0.141 N 
ATOM      3  H2  UNL     1      40.323  30.428  50.324  1.00  0.00     0.189 HD
HETATM    4  C4  UNL     1      38.792  31.318  49.347  1.00  0.00     0.340 C 
HETATM    5  O1  UNL     1      39.440  32.306  48.927  1.00  0.00    -0.246 OA
HETATM    6  N3  UNL     1      37.606  31.060  48.766  1.00  0.00    -0.291 N 
ATOM      7  H3  UNL     1      37.471  31.443  47.830  1.00  0.00     0.172 HD
HETATM    8  C5  UNL     1      36.568  30.350  49.278  1.00  0.00     0.147 C 
HETATM    9  C6  UNL     1      36.373  30.072  50.636  1.00  0.00     0.159 C 
HETATM   10  N6  UNL     1      37.322  29.904  51.581  1.00  0.00    -0.173 N 
ATOM     11  H6  UNL     1      36.989  29.713  52.526  1.00  0.00     0.186 HD
ENDROOT
BRANCH   1  12
HETATM   12  N1  UNL     1      39.434  29.334  52.405  1.00  0.00    -0.226 N 
HETATM   13  C1  UNL     1      39.034  28.080  52.996  1.00  0.00     0.168 C 
HETATM   14  C2  UNL     1      40.700  29.940  52.866  1.00  0.00     0.168 C 
ENDBRANCH   1  12
BRANCH   9  15
HETATM   15  N5  UNL     1      35.156  29.968  51.023  1.00  0.00    -0.382 N 
ATOM     16  H52 UNL     1      34.612  29.207  50.617  1.00  0.00     0.157 HD
ATOM     17  H51 UNL     1      34.841  30.657  51.705  1.00  0.00     0.157 HD
ENDBRANCH   9  15
BRANCH   8  18
HETATM   18  N4  UNL     1      35.670  29.881  48.504  1.00  0.00    -0.382 N 
ATOM     19  H42 UNL     1      35.541  28.871  48.563  1.00  0.00     0.157 HD
ATOM     20  H41 UNL     1      35.144  30.505  47.892  1.00  0.00     0.157 HD
ENDBRANCH   8  18
TORSDOF 3
ENDMDL
MODEL 4
REMARK VINA RESULT: -3.206301445      1.963      4.037
REMARK  3 active torsions:
REMARK  status: ('A' for Active; 'I' for Inactive)
REMARK    1  A    between atoms: N1_2  and  C3_4 
REMARK    2  A    between atoms: C5_11  and  N4_12 
REMARK    3  A    between atoms: C6_15  and  N5_16 
ROOT
HETATM    1  C3  UNL     1      38.427  29.449  51.464  1.00  0.00     0.685 C 
HETATM    2  N2  UNL     1      37.116  29.829  51.598  1.00  0.00    -0.141 N 
ATOM      3  H2  UNL     1      36.754  29.812  52.551  1.00  0.00     0.189 HD
HETATM    4  C4  UNL     1      36.225  30.227  50.643  1.00  0.00     0.340 C 
HETATM    5  O1  UNL     1      35.026  29.872  50.742  1.00  0.00    -0.246 OA
HETATM    6  N3  UNL     1      36.563  30.988  49.586  1.00  0.00    -0.291 N 
ATOM      7  H3  UNL     1      35.803  31.505  49.143  1.00  0.00     0.172 HD
HETATM    8  C5  UNL     1      37.796  31.150  49.040  1.00  0.00     0.147 C 
HETATM    9  C6  UNL     1      38.879  30.281  49.221  1.00  0.00     0.159 C 
HETATM   10  N6  UNL     1      39.148  29.525  50.305  1.00  0.00    -0.173 N 
ATOM     11  H6  UNL     1      39.984  28.943  50.253  1.00  0.00     0.186 HD
ENDROOT
BRANCH   1  12
HETATM   12  N1  UNL     1      39.118  28.961  52.574  1.00  0.00    -0.226 N 
HETATM   13  C1  UNL     1      38.620  27.859  53.364  1.00  0.00     0.168 C 
HETATM   14  C2  UNL     1      40.412  29.558  52.962  1.00  0.00     0.168 C 
ENDBRANCH   1  12
BRANCH   9  15
HETATM   15  N5  UNL     1      39.702  30.194  48.243  1.00  0.00    -0.382 N 
ATOM     16  H52 UNL     1      40.341  30.979  48.115  1.00  0.00     0.157 HD
ATOM     17  H51 UNL     1      39.645  29.345  47.682  1.00  0.00     0.157 HD
ENDBRANCH   9  15
BRANCH   8  18
HETATM   18  N4  UNL     1      38.038  32.155  48.293  1.00  0.00    -0.382 N 
ATOM     19  H42 UNL     1      38.128  31.936  47.301  1.00  0.00     0.157 HD
ATOM     20  H41 UNL     1      38.123  33.086  48.700  1.00  0.00     0.157 HD
ENDBRANCH   8  18
TORSDOF 3
ENDMDL
MODEL 5
REMARK VINA RESULT: -2.880724374      1.950      3.900
REMARK  3 active torsions:
REMARK  status: ('A' for Active; 'I' for Inactive)
REMARK    1  A    between atoms: N1_2  and  C3_4 
REMARK    2  A    between atoms: C5_11  and  N4_12 
REMARK    3  A    between atoms: C6_15  and  N5_16 
ROOT
HETATM    1  C3  UNL     1      38.568  29.569  51.375  1.00  0.00     0.685 C 
HETATM    2  N2  UNL     1      37.275  29.989  51.555  1.00  0.00    -0.141 N 
ATOM      3  H2  UNL     1      36.976  30.073  52.526  1.00  0.00     0.189 HD
HETATM    4  C4  UNL     1      36.329  30.312  50.625  1.00  0.00     0.340 C 
HETATM    5  O1  UNL     1      35.134  29.994  50.835  1.00  0.00    -0.246 OA
HETATM    6  N3  UNL     1      36.608  30.959  49.478  1.00  0.00    -0.291 N 
ATOM      7  H3  UNL     1      35.829  31.446  49.036  1.00  0.00     0.172 HD
HETATM    8  C5  UNL     1      37.805  31.039  48.841  1.00  0.00     0.147 C 
HETATM    9  C6  UNL     1      38.883  30.169  49.036  1.00  0.00     0.159 C 
HETATM   10  N6  UNL     1      39.212  29.515  50.170  1.00  0.00    -0.173 N 
ATOM     11  H6  UNL     1      40.034  28.913  50.122  1.00  0.00     0.186 HD
ENDROOT
BRANCH   1  12
HETATM   12  N1  UNL     1      39.323  29.177  52.481  1.00  0.00    -0.226 N 
HETATM   13  C1  UNL     1      40.461  29.938  52.942  1.00  0.00     0.168 C 
HETATM   14  C2  UNL     1      38.957  27.961  53.235  1.00  0.00     0.168 C 
ENDBRANCH   1  12
BRANCH   9  15
HETATM   15  N5  UNL     1      39.639  29.969  48.021  1.00  0.00    -0.382 N 
ATOM     16  H52 UNL     1      40.617  29.755  48.216  1.00  0.00     0.157 HD
ATOM     17  H51 UNL     1      39.192  30.039  47.108  1.00  0.00     0.157 HD
ENDBRANCH   9  15
BRANCH   8  18
HETATM   18  N4  UNL     1      38.012  31.961  47.984  1.00  0.00    -0.382 N 
ATOM     19  H42 UNL     1      37.219  32.164  47.377  1.00  0.00     0.157 HD
ATOM     20  H41 UNL     1      38.915  32.433  47.949  1.00  0.00     0.157 HD
ENDBRANCH   8  18
TORSDOF 3
ENDMDL
