MODEL 1
REMARK VINA RESULT: -5.032845270      0.000      0.000
REMARK  4 active torsions:
REMARK  status: ('A' for Active; 'I' for Inactive)
REMARK    1  A    between atoms: N1_1  and  N2_4 
REMARK    2  A    between atoms: N2_4  and  C1_6 
REMARK    3  A    between atoms: C3_12  and  C4_13 
REMARK       I    between atoms: C4_13  and  N5_15 
REMARK    4  A    between atoms: N5_15  and  N6_17 
ROOT
HETATM    1  C1  UNL     1      37.068  31.352  49.313  1.00  0.00     0.147 A 
HETATM    2  N3  UNL     1      38.003  31.878  48.473  1.00  0.00    -0.336 N 
ATOM      3  H3  UNL     1      37.740  32.383  47.627  1.00  0.00     0.168 HD
HETATM    4  C2  UNL     1      39.290  31.696  48.817  1.00  0.00     0.182 A 
HETATM    5  N4  UNL     1      39.650  31.038  49.920  1.00  0.00    -0.346 N 
ATOM      6  H4  UNL     1      40.644  30.936  50.123  1.00  0.00     0.167 HD
HETATM    7  C3  UNL     1      38.753  30.500  50.783  1.00  0.00     0.131 A 
HETATM    8  C5  UNL     1      37.426  30.670  50.454  1.00  0.00     0.124 A 
HETATM    9  N7  UNL     1      36.390  30.142  51.295  1.00  0.00    -0.096 NA
ENDROOT
BRANCH   7  10
HETATM   10  C4  UNL     1      39.136  29.788  51.973  1.00  0.00     0.288 C 
HETATM   11  O1  UNL     1      40.048  30.267  52.698  1.00  0.00    -0.264 OA
HETATM   12  N5  UNL     1      38.555  28.572  52.396  1.00  0.00    -0.271 N 
ATOM     13  H5  UNL     1      37.815  28.166  51.824  1.00  0.00     0.189 HD
BRANCH  12  14
HETATM   14  N6  UNL     1      38.941  27.896  53.553  1.00  0.00    -0.342 N 
ATOM     15  H62 UNL     1      38.882  28.408  54.434  1.00  0.00     0.176 HD
ATOM     16  H61 UNL     1      39.272  26.931  53.558  1.00  0.00     0.176 HD
ENDBRANCH  12  14
ENDBRANCH   7  10
BRANCH   1  17
HETATM   17  N2  UNL     1      35.845  31.529  48.977  1.00  0.00    -0.290 N 
ATOM     18  H2  UNL     1      35.484  32.483  48.994  1.00  0.00     0.188 HD
BRANCH  17  19
HETATM   19  N1  UNL     1      34.976  30.515  48.592  1.00  0.00    -0.344 N 
ATOM     20  H12 UNL     1      34.285  30.219  49.281  1.00  0.00     0.176 HD
ATOM     21  H11 UNL     1      34.988  30.058  47.680  1.00  0.00     0.176 HD
ENDBRANCH  17  19
ENDBRANCH   1  17
TORSDOF 4
ENDMDL
MODEL 2
REMARK VINA RESULT: -4.837737081      2.266      4.453
REMARK  4 active torsions:
REMARK  status: ('A' for Active; 'I' for Inactive)
REMARK    1  A    between atoms: N1_1  and  N2_4 
REMARK    2  A    between atoms: N2_4  and  C1_6 
REMARK    3  A    between atoms: C3_12  and  C4_13 
REMARK       I    between atoms: C4_13  and  N5_15 
REMARK    4  A    between atoms: N5_15  and  N6_17 
ROOT
HETATM    1  C1  UNL     1      39.085  31.253  49.611  1.00  0.00     0.147 A 
HETATM    2  N3  UNL     1      39.452  30.732  50.814  1.00  0.00    -0.336 N 
ATOM      3  H3  UNL     1      40.376  30.899  51.212  1.00  0.00     0.168 HD
HETATM    4  C2  UNL     1      38.532  29.986  51.452  1.00  0.00     0.182 A 
HETATM    5  N4  UNL     1      37.320  29.758  50.946  1.00  0.00    -0.346 N 
ATOM      6  H4  UNL     1      36.669  29.183  51.480  1.00  0.00     0.167 HD
HETATM    7  C3  UNL     1      36.914  30.257  49.752  1.00  0.00     0.131 A 
HETATM    8  C5  UNL     1      37.836  31.026  49.077  1.00  0.00     0.124 A 
HETATM    9  N7  UNL     1      37.516  31.605  47.804  1.00  0.00    -0.096 NA
ENDROOT
BRANCH   7  10
HETATM   10  C4  UNL     1      35.607  30.014  49.200  1.00  0.00     0.288 C 
HETATM   11  O1  UNL     1      34.637  29.856  49.989  1.00  0.00    -0.264 OA
HETATM   12  N5  UNL     1      35.327  29.939  47.819  1.00  0.00    -0.271 N 
ATOM     13  H5  UNL     1      36.097  30.064  47.163  1.00  0.00     0.189 HD
BRANCH  12  14
HETATM   14  N6  UNL     1      34.053  29.702  47.303  1.00  0.00    -0.342 N 
ATOM     15  H62 UNL     1      33.284  29.636  47.970  1.00  0.00     0.176 HD
ATOM     16  H61 UNL     1      33.860  29.593  46.307  1.00  0.00     0.176 HD
ENDBRANCH  12  14
ENDBRANCH   7  10
BRANCH   1  17
HETATM   17  N2  UNL     1      39.967  31.962  49.011  1.00  0.00    -0.290 N 
ATOM     18  H2  UNL     1      40.541  32.584  49.580  1.00  0.00     0.188 HD
BRANCH  17  19
HETATM   19  N1  UNL     1      40.196  31.944  47.640  1.00  0.00    -0.344 N 
ATOM     20  H12 UNL     1      39.623  31.305  47.089  1.00  0.00     0.176 HD
ATOM     21  H11 UNL     1      40.888  32.520  47.161  1.00  0.00     0.176 HD
ENDBRANCH  17  19
ENDBRANCH   1  17
TORSDOF 4
ENDMDL
MODEL 3
REMARK VINA RESULT: -4.435054460      1.113      1.113
REMARK  4 active torsions:
REMARK  status: ('A' for Active; 'I' for Inactive)
REMARK    1  A    between atoms: N1_1  and  N2_4 
REMARK    2  A    between atoms: N2_4  and  C1_6 
REMARK    3  A    between atoms: C3_12  and  C4_13 
REMARK       I    between atoms: C4_13  and  N5_15 
REMARK    4  A    between atoms: N5_15  and  N6_17 
ROOT
HETATM    1  C1  UNL     1      37.069  31.352  49.507  1.00  0.00     0.147 A 
HETATM    2  N3  UNL     1      37.960  31.923  48.650  1.00  0.00    -0.336 N 
ATOM      3  H3  UNL     1      37.655  32.453  47.834  1.00  0.00     0.168 HD
HETATM    4  C2  UNL     1      39.263  31.753  48.936  1.00  0.00     0.182 A 
HETATM    5  N4  UNL     1      39.678  31.064  50.000  1.00  0.00    -0.346 N 
ATOM      6  H4  UNL     1      40.681  30.973  50.159  1.00  0.00     0.167 HD
HETATM    7  C3  UNL     1      38.826  30.480  50.878  1.00  0.00     0.131 A 
HETATM    8  C5  UNL     1      37.484  30.638  50.608  1.00  0.00     0.124 A 
HETATM    9  N7  UNL     1      36.491  30.061  51.470  1.00  0.00    -0.096 NA
ENDROOT
BRANCH   7  10
HETATM   10  C4  UNL     1      39.268  29.734  52.027  1.00  0.00     0.288 C 
HETATM   11  O1  UNL     1      38.511  28.844  52.498  1.00  0.00    -0.264 OA
HETATM   12  N5  UNL     1      40.507  29.930  52.674  1.00  0.00    -0.271 N 
ATOM     13  H5  UNL     1      41.135  30.645  52.309  1.00  0.00     0.189 HD
BRANCH  12  14
HETATM   14  N6  UNL     1      40.918  29.197  53.788  1.00  0.00    -0.342 N 
ATOM     15  H62 UNL     1      40.399  29.336  54.655  1.00  0.00     0.176 HD
ATOM     16  H61 UNL     1      41.699  28.541  53.773  1.00  0.00     0.176 HD
ENDBRANCH  12  14
ENDBRANCH   7  10
BRANCH   1  17
HETATM   17  N2  UNL     1      35.830  31.519  49.227  1.00  0.00    -0.290 N 
ATOM     18  H2  UNL     1      35.428  32.441  49.393  1.00  0.00     0.188 HD
BRANCH  17  19
HETATM   19  N1  UNL     1      34.996  30.532  48.713  1.00  0.00    -0.344 N 
ATOM     20  H12 UNL     1      35.009  30.404  47.701  1.00  0.00     0.176 HD
ATOM     21  H11 UNL     1      34.385  29.939  49.275  1.00  0.00     0.176 HD
ENDBRANCH  17  19
ENDBRANCH   1  17
TORSDOF 4
ENDMDL
MODEL 4
REMARK VINA RESULT: -4.207030302      2.057      4.381
REMARK  4 active torsions:
REMARK  status: ('A' for Active; 'I' for Inactive)
REMARK    1  A    between atoms: N1_1  and  N2_4 
REMARK    2  A    between atoms: N2_4  and  C1_6 
REMARK    3  A    between atoms: C3_12  and  C4_13 
REMARK       I    between atoms: C4_13  and  N5_15 
REMARK    4  A    between atoms: N5_15  and  N6_17 
ROOT
HETATM    1  C1  UNL     1      38.882  30.734  50.516  1.00  0.00     0.147 A 
HETATM    2  N3  UNL     1      39.681  31.399  49.637  1.00  0.00    -0.336 N 
ATOM      3  H3  UNL     1      40.639  31.658  49.873  1.00  0.00     0.168 HD
HETATM    4  C2  UNL     1      39.143  31.697  48.441  1.00  0.00     0.182 A 
HETATM    5  N4  UNL     1      37.893  31.365  48.116  1.00  0.00    -0.346 N 
ATOM      6  H4  UNL     1      37.545  31.621  47.192  1.00  0.00     0.167 HD
HETATM    7  C3  UNL     1      37.063  30.703  48.960  1.00  0.00     0.131 A 
HETATM    8  C5  UNL     1      37.589  30.385  50.193  1.00  0.00     0.124 A 
HETATM    9  N7  UNL     1      36.801  29.685  51.167  1.00  0.00    -0.096 NA
ENDROOT
BRANCH   7  10
HETATM   10  C4  UNL     1      35.713  30.344  48.616  1.00  0.00     0.288 C 
HETATM   11  O1  UNL     1      34.839  30.333  49.524  1.00  0.00    -0.264 OA
HETATM   12  N5  UNL     1      35.289  29.995  47.316  1.00  0.00    -0.271 N 
ATOM     13  H5  UNL     1      35.980  29.997  46.566  1.00  0.00     0.189 HD
BRANCH  12  14
HETATM   14  N6  UNL     1      33.974  29.649  47.001  1.00  0.00    -0.342 N 
ATOM     15  H62 UNL     1      33.814  29.199  46.100  1.00  0.00     0.176 HD
ATOM     16  H61 UNL     1      33.183  29.821  47.621  1.00  0.00     0.176 HD
ENDBRANCH  12  14
ENDBRANCH   7  10
BRANCH   1  17
HETATM   17  N2  UNL     1      39.403  30.454  51.652  1.00  0.00    -0.290 N 
ATOM     18  H2  UNL     1      39.667  31.232  52.256  1.00  0.00     0.188 HD
BRANCH  17  19
HETATM   19  N1  UNL     1      39.633  29.165  52.119  1.00  0.00    -0.344 N 
ATOM     20  H12 UNL     1      39.877  29.073  53.105  1.00  0.00     0.176 HD
ATOM     21  H11 UNL     1      39.573  28.322  51.548  1.00  0.00     0.176 HD
ENDBRANCH  17  19
ENDBRANCH   1  17
TORSDOF 4
ENDMDL
MODEL 5
REMARK VINA RESULT: -3.965344088      1.469      2.684
REMARK  4 active torsions:
REMARK  status: ('A' for Active; 'I' for Inactive)
REMARK    1  A    between atoms: N1_1  and  N2_4 
REMARK    2  A    between atoms: N2_4  and  C1_6 
REMARK    3  A    between atoms: C3_12  and  C4_13 
REMARK       I    between atoms: C4_13  and  N5_15 
REMARK    4  A    between atoms: N5_15  and  N6_17 
ROOT
HETATM    1  C1  UNL     1      37.614  31.279  49.557  1.00  0.00     0.147 A 
HETATM    2  N3  UNL     1      36.295  30.985  49.723  1.00  0.00    -0.336 N 
ATOM      3  H3  UNL     1      35.578  31.367  49.107  1.00  0.00     0.168 HD
HETATM    4  C2  UNL     1      35.986  30.164  50.743  1.00  0.00     0.182 A 
HETATM    5  N4  UNL     1      36.911  29.655  51.557  1.00  0.00    -0.346 N 
ATOM      6  H4  UNL     1      36.609  29.039  52.312  1.00  0.00     0.167 HD
HETATM    7  C3  UNL     1      38.234  29.921  51.427  1.00  0.00     0.131 A 
HETATM    8  C5  UNL     1      38.579  30.760  50.391  1.00  0.00     0.124 A 
HETATM    9  N7  UNL     1      39.951  31.111  50.158  1.00  0.00    -0.096 NA
ENDROOT
BRANCH   7  10
HETATM   10  C4  UNL     1      39.237  29.376  52.304  1.00  0.00     0.288 C 
HETATM   11  O1  UNL     1      39.070  28.216  52.767  1.00  0.00    -0.264 OA
HETATM   12  N5  UNL     1      40.412  30.056  52.690  1.00  0.00    -0.271 N 
ATOM     13  H5  UNL     1      40.568  30.996  52.326  1.00  0.00     0.189 HD
BRANCH  12  14
HETATM   14  N6  UNL     1      41.373  29.511  53.542  1.00  0.00    -0.342 N 
ATOM     15  H62 UNL     1      41.241  29.651  54.543  1.00  0.00     0.176 HD
ATOM     16  H61 UNL     1      42.185  28.988  53.214  1.00  0.00     0.176 HD
ENDBRANCH  12  14
ENDBRANCH   7  10
BRANCH   1  17
HETATM   17  N2  UNL     1      37.899  32.061  48.584  1.00  0.00    -0.290 N 
ATOM     18  H2  UNL     1      37.427  32.964  48.548  1.00  0.00     0.188 HD
BRANCH  17  19
HETATM   19  N1  UNL     1      38.806  31.765  47.572  1.00  0.00    -0.344 N 
ATOM     20  H12 UNL     1      39.790  31.720  47.839  1.00  0.00     0.176 HD
ATOM     21  H11 UNL     1      38.553  31.595  46.599  1.00  0.00     0.176 HD
ENDBRANCH  17  19
ENDBRANCH   1  17
TORSDOF 4
ENDMDL
