MODEL 1
REMARK VINA RESULT: -4.527936262      0.000      0.000
REMARK  5 active torsions:
REMARK  status: ('A' for Active; 'I' for Inactive)
REMARK    1  A    between atoms: N1_1  and  N2_4 
REMARK    2  A    between atoms: N2_4  and  C1_6 
REMARK    3  A    between atoms: C1_6  and  N3_8 
REMARK    4  A    between atoms: N3_8  and  N4_10 
REMARK    5  A    between atoms: N4_10  and  C2_12 
ROOT
HETATM    1  N3  UNL     1      39.274  29.244  51.670  1.00  0.00    -0.272 N 
ATOM      2  H3  UNL     1      38.784  28.501  51.171  1.00  0.00     0.189 HD
ENDROOT
BRANCH   1   3
HETATM    3  C1  UNL     1      39.976  28.954  52.872  1.00  0.00     0.205 C 
HETATM    4  S1  UNL     1      39.358  27.841  53.889  1.00  0.00    -0.038 SA
BRANCH   3   5
HETATM    5  N2  UNL     1      41.177  29.593  53.210  1.00  0.00    -0.282 N 
ATOM      6  H2  UNL     1      41.407  30.448  52.703  1.00  0.00     0.189 HD
BRANCH   5   7
HETATM    7  N1  UNL     1      42.075  29.170  54.164  1.00  0.00    -0.343 N 
ATOM      8  H12 UNL     1      42.293  29.842  54.901  1.00  0.00     0.176 HD
ATOM      9  H11 UNL     1      42.529  28.257  54.194  1.00  0.00     0.176 HD
ENDBRANCH   5   7
ENDBRANCH   3   5
ENDBRANCH   1   3
BRANCH   1  10
HETATM   10  N4  UNL     1      39.257  30.569  51.169  1.00  0.00    -0.269 N 
ATOM     11  H4  UNL     1      40.030  31.208  51.357  1.00  0.00     0.190 HD
BRANCH  10  12
HETATM   12  C2  UNL     1      38.136  30.988  50.399  1.00  0.00     0.190 C 
HETATM   13  N5  UNL     1      36.901  30.846  50.737  1.00  0.00    -0.360 N 
HETATM   14  C3  UNL     1      36.024  31.384  49.722  1.00  0.00     0.142 C 
ATOM     15  H5  UNL     1      36.586  30.411  51.604  1.00  0.00     0.162 HD
HETATM   16  C4  UNL     1      36.916  31.382  48.502  1.00  0.00     0.142 C 
HETATM   17  N6  UNL     1      38.213  31.634  49.121  1.00  0.00    -0.360 N 
ATOM     18  H6  UNL     1      38.999  32.154  48.732  1.00  0.00     0.162 HD
ENDBRANCH  10  12
ENDBRANCH   1  10
TORSDOF 5
ENDMDL
MODEL 2
REMARK VINA RESULT: -4.340517514      0.912      1.393
REMARK  5 active torsions:
REMARK  status: ('A' for Active; 'I' for Inactive)
REMARK    1  A    between atoms: N1_1  and  N2_4 
REMARK    2  A    between atoms: N2_4  and  C1_6 
REMARK    3  A    between atoms: C1_6  and  N3_8 
REMARK    4  A    between atoms: N3_8  and  N4_10 
REMARK    5  A    between atoms: N4_10  and  C2_12 
ROOT
HETATM    1  N3  UNL     1      39.577  29.285  52.129  1.00  0.00    -0.272 N 
ATOM      2  H3  UNL     1      40.237  29.757  51.510  1.00  0.00     0.189 HD
ENDROOT
BRANCH   1   3
HETATM    3  C1  UNL     1      40.039  28.638  53.307  1.00  0.00     0.205 C 
HETATM    4  S1  UNL     1      39.077  27.532  54.019  1.00  0.00    -0.038 SA
BRANCH   3   5
HETATM    5  N2  UNL     1      41.289  28.920  53.875  1.00  0.00    -0.282 N 
ATOM      6  H2  UNL     1      41.559  28.378  54.696  1.00  0.00     0.189 HD
BRANCH   5   7
HETATM    7  N1  UNL     1      42.186  29.862  53.424  1.00  0.00    -0.343 N 
ATOM      8  H12 UNL     1      42.757  30.314  54.139  1.00  0.00     0.176 HD
ATOM      9  H11 UNL     1      42.323  30.139  52.451  1.00  0.00     0.176 HD
ENDBRANCH   5   7
ENDBRANCH   3   5
ENDBRANCH   1   3
BRANCH   1  10
HETATM   10  N4  UNL     1      38.195  29.272  51.817  1.00  0.00    -0.269 N 
ATOM     11  H4  UNL     1      37.547  28.685  52.342  1.00  0.00     0.190 HD
BRANCH  10  12
HETATM   12  C2  UNL     1      37.733  30.096  50.753  1.00  0.00     0.190 C 
HETATM   13  N5  UNL     1      38.431  30.988  50.140  1.00  0.00    -0.360 N 
HETATM   14  C3  UNL     1      37.650  31.639  49.113  1.00  0.00     0.142 C 
ATOM     15  H5  UNL     1      39.404  31.207  50.353  1.00  0.00     0.162 HD
HETATM   16  C4  UNL     1      36.235  31.363  49.571  1.00  0.00     0.142 C 
HETATM   17  N6  UNL     1      36.411  30.058  50.200  1.00  0.00    -0.360 N 
ATOM     18  H6  UNL     1      35.741  29.290  50.237  1.00  0.00     0.162 HD
ENDBRANCH  10  12
ENDBRANCH   1  10
TORSDOF 5
ENDMDL
MODEL 3
REMARK VINA RESULT: -4.163074341      6.599      9.595
REMARK  5 active torsions:
REMARK  status: ('A' for Active; 'I' for Inactive)
REMARK    1  A    between atoms: N1_1  and  N2_4 
REMARK    2  A    between atoms: N2_4  and  C1_6 
REMARK    3  A    between atoms: C1_6  and  N3_8 
REMARK    4  A    between atoms: N3_8  and  N4_10 
REMARK    5  A    between atoms: N4_10  and  C2_12 
ROOT
HETATM    1  N3  UNL     1      44.239  29.286  56.241  1.00  0.00    -0.272 N 
ATOM      2  H3  UNL     1      43.289  29.227  56.607  1.00  0.00     0.189 HD
ENDROOT
BRANCH   1   3
HETATM    3  C1  UNL     1      44.462  29.696  54.898  1.00  0.00     0.205 C 
HETATM    4  S1  UNL     1      45.996  29.812  54.361  1.00  0.00    -0.038 SA
BRANCH   3   5
HETATM    5  N2  UNL     1      43.410  30.002  54.024  1.00  0.00    -0.282 N 
ATOM      6  H2  UNL     1      42.614  29.364  54.014  1.00  0.00     0.189 HD
BRANCH   5   7
HETATM    7  N1  UNL     1      43.355  31.085  53.176  1.00  0.00    -0.343 N 
ATOM      8  H12 UNL     1      43.814  31.935  53.506  1.00  0.00     0.176 HD
ATOM      9  H11 UNL     1      42.902  31.107  52.262  1.00  0.00     0.176 HD
ENDBRANCH   5   7
ENDBRANCH   3   5
ENDBRANCH   1   3
BRANCH   1  10
HETATM   10  N4  UNL     1      45.342  28.960  57.067  1.00  0.00    -0.269 N 
ATOM     11  H4  UNL     1      45.960  29.688  57.425  1.00  0.00     0.190 HD
BRANCH  10  12
HETATM   12  C2  UNL     1      45.568  27.592  57.387  1.00  0.00     0.190 C 
HETATM   13  N5  UNL     1      45.890  26.671  56.546  1.00  0.00    -0.360 N 
HETATM   14  C3  UNL     1      46.042  25.395  57.210  1.00  0.00     0.142 C 
ATOM     15  H5  UNL     1      46.021  26.821  55.546  1.00  0.00     0.162 HD
HETATM   16  C4  UNL     1      45.242  25.604  58.477  1.00  0.00     0.142 C 
HETATM   17  N6  UNL     1      45.468  27.028  58.701  1.00  0.00    -0.360 N 
ATOM     18  H6  UNL     1      45.538  27.514  59.595  1.00  0.00     0.162 HD
ENDBRANCH  10  12
ENDBRANCH   1  10
TORSDOF 5
ENDMDL
MODEL 4
REMARK VINA RESULT: -4.017776442      1.733      1.945
REMARK  5 active torsions:
REMARK  status: ('A' for Active; 'I' for Inactive)
REMARK    1  A    between atoms: N1_1  and  N2_4 
REMARK    2  A    between atoms: N2_4  and  C1_6 
REMARK    3  A    between atoms: C1_6  and  N3_8 
REMARK    4  A    between atoms: N3_8  and  N4_10 
REMARK    5  A    between atoms: N4_10  and  C2_12 
ROOT
HETATM    1  N3  UNL     1      38.966  28.955  52.005  1.00  0.00    -0.272 N 
ATOM      2  H3  UNL     1      38.282  28.434  51.456  1.00  0.00     0.189 HD
ENDROOT
BRANCH   1   3
HETATM    3  C1  UNL     1      39.552  28.367  53.159  1.00  0.00     0.205 C 
HETATM    4  S1  UNL     1      40.997  28.921  53.670  1.00  0.00    -0.038 SA
BRANCH   3   5
HETATM    5  N2  UNL     1      38.931  27.330  53.869  1.00  0.00    -0.282 N 
ATOM      6  H2  UNL     1      39.237  26.379  53.665  1.00  0.00     0.189 HD
BRANCH   5   7
HETATM    7  N1  UNL     1      37.943  27.481  54.816  1.00  0.00    -0.343 N 
ATOM      8  H12 UNL     1      37.996  28.325  55.386  1.00  0.00     0.176 HD
ATOM      9  H11 UNL     1      37.178  26.829  54.990  1.00  0.00     0.176 HD
ENDBRANCH   5   7
ENDBRANCH   3   5
ENDBRANCH   1   3
BRANCH   1  10
HETATM   10  N4  UNL     1      39.335  30.268  51.622  1.00  0.00    -0.269 N 
ATOM     11  H4  UNL     1      40.057  30.777  52.132  1.00  0.00     0.190 HD
BRANCH  10  12
HETATM   12  C2  UNL     1      38.674  30.861  50.510  1.00  0.00     0.190 C 
HETATM   13  N5  UNL     1      37.400  31.000  50.384  1.00  0.00    -0.360 N 
HETATM   14  C3  UNL     1      37.072  31.642  49.131  1.00  0.00     0.142 C 
ATOM     15  H5  UNL     1      36.714  30.696  51.076  1.00  0.00     0.162 HD
HETATM   16  C4  UNL     1      38.313  31.378  48.308  1.00  0.00     0.142 C 
HETATM   17  N6  UNL     1      39.331  31.394  49.353  1.00  0.00    -0.360 N 
ATOM     18  H6  UNL     1      40.297  31.714  49.276  1.00  0.00     0.162 HD
ENDBRANCH  10  12
ENDBRANCH   1  10
TORSDOF 5
ENDMDL
MODEL 5
REMARK VINA RESULT: -3.735083782      1.701      2.136
REMARK  5 active torsions:
REMARK  status: ('A' for Active; 'I' for Inactive)
REMARK    1  A    between atoms: N1_1  and  N2_4 
REMARK    2  A    between atoms: N2_4  and  C1_6 
REMARK    3  A    between atoms: C1_6  and  N3_8 
REMARK    4  A    between atoms: N3_8  and  N4_10 
REMARK    5  A    between atoms: N4_10  and  C2_12 
ROOT
HETATM    1  N3  UNL     1      39.270  29.330  51.935  1.00  0.00    -0.272 N 
ATOM      2  H3  UNL     1      39.903  29.796  51.284  1.00  0.00     0.189 HD
ENDROOT
BRANCH   1   3
HETATM    3  C1  UNL     1      39.791  28.598  53.036  1.00  0.00     0.205 C 
HETATM    4  S1  UNL     1      41.214  29.061  53.680  1.00  0.00    -0.038 SA
BRANCH   3   5
HETATM    5  N2  UNL     1      39.123  27.494  53.585  1.00  0.00    -0.282 N 
ATOM      6  H2  UNL     1      39.266  26.592  53.130  1.00  0.00     0.189 HD
BRANCH   5   7
HETATM    7  N1  UNL     1      38.291  27.518  54.681  1.00  0.00    -0.343 N 
ATOM      8  H12 UNL     1      37.473  28.125  54.608  1.00  0.00     0.176 HD
ATOM      9  H11 UNL     1      38.423  26.988  55.543  1.00  0.00     0.176 HD
ENDBRANCH   5   7
ENDBRANCH   3   5
ENDBRANCH   1   3
BRANCH   1  10
HETATM   10  N4  UNL     1      37.869  29.408  51.744  1.00  0.00    -0.269 N 
ATOM     11  H4  UNL     1      37.228  28.927  52.376  1.00  0.00     0.190 HD
BRANCH  10  12
HETATM   12  C2  UNL     1      37.375  30.173  50.651  1.00  0.00     0.190 C 
HETATM   13  N5  UNL     1      38.020  31.104  50.037  1.00  0.00    -0.360 N 
HETATM   14  C3  UNL     1      37.221  31.673  48.976  1.00  0.00     0.142 C 
ATOM     15  H5  UNL     1      38.969  31.400  50.270  1.00  0.00     0.162 HD
HETATM   16  C4  UNL     1      35.820  31.300  49.403  1.00  0.00     0.142 C 
HETATM   17  N6  UNL     1      36.075  30.025  50.064  1.00  0.00    -0.360 N 
ATOM     18  H6  UNL     1      35.465  29.209  50.101  1.00  0.00     0.162 HD
ENDBRANCH  10  12
ENDBRANCH   1  10
TORSDOF 5
ENDMDL
