MODEL 1
REMARK VINA RESULT: -7.068962816      0.000      0.000
REMARK  9 active torsions:
REMARK  status: ('A' for Active; 'I' for Inactive)
REMARK    1  A    between atoms: N1_1  and  C1_4 
REMARK    2  A    between atoms: C2_7  and  N3_8 
REMARK    3  A    between atoms: N3_8  and  C3_10 
REMARK    4  A    between atoms: C3_10  and  C4_11 
REMARK    5  A    between atoms: C4_11  and  C5_12 
REMARK    6  A    between atoms: C5_12  and  C6_13 
REMARK    7  A    between atoms: C6_13  and  C7_14 
REMARK    8  A    between atoms: C7_14  and  O1_15 
REMARK    9  A    between atoms: C8_19  and  N5_20 
REMARK       I    between atoms: N5_20  and  C9_22 
REMARK       I    between atoms: C9_22  and  N6_23 
REMARK       I    between atoms: C9_22  and  N7_27 
ROOT
HETATM    1  C1  UNL     1       4.753 -14.844   5.332  1.00  0.00     0.705 A 
HETATM    2  N2  UNL     1       5.175 -15.269   4.106  1.00  0.00    -0.022 N 
ATOM      3  H2  UNL     1       5.750 -16.108   4.028  1.00  0.00     0.203 HD
HETATM    4  C2  UNL     1       4.835 -14.585   3.002  1.00  0.00     0.707 A 
HETATM    5  N4  UNL     1       4.078 -13.479   3.113  1.00  0.00    -0.021 N 
ATOM      6  H4  UNL     1       3.824 -12.965   2.269  1.00  0.00     0.203 HD
HETATM    7  C8  UNL     1       3.643 -13.030   4.310  1.00  0.00     0.710 A 
HETATM    8  N8  UNL     1       4.001 -13.740   5.392  1.00  0.00    -0.022 N 
ATOM      9  H8  UNL     1       3.683 -13.421   6.307  1.00  0.00     0.203 HD
ENDROOT
BRANCH   7  10
HETATM   10  N5  UNL     1       2.929 -11.992   4.415  1.00  0.00    -0.172 N 
HETATM   11  C9  UNL     1       3.374 -10.639   4.326  1.00  0.00     0.494 C 
HETATM   12  N6  UNL     1       2.182  -9.798   4.140  1.00  0.00    -0.032 N 
HETATM   13  N7  UNL     1       4.032 -10.166   5.509  1.00  0.00    -0.032 N 
ATOM     14  H63 UNL     1       1.612 -10.085   3.343  1.00  0.00     0.278 HD
ATOM     15  H62 UNL     1       1.478  -9.939   4.864  1.00  0.00     0.278 HD
ATOM     16  H61 UNL     1       2.500  -8.832   4.076  1.00  0.00     0.278 HD
ATOM     17  H73 UNL     1       3.436 -10.294   6.327  1.00  0.00     0.278 HD
ATOM     18  H72 UNL     1       4.805 -10.782   5.761  1.00  0.00     0.278 HD
ATOM     19  H71 UNL     1       4.350  -9.199   5.445  1.00  0.00     0.278 HD
ATOM     20  H5  UNL     1       1.933 -12.135   4.582  1.00  0.00     0.181 HD
ENDBRANCH   7  10
BRANCH   4  21
HETATM   21  N3  UNL     1       5.253 -15.016   1.866  1.00  0.00    -0.225 N 
ATOM     22  H3  UNL     1       6.098 -15.582   1.801  1.00  0.00     0.177 HD
BRANCH  21  23
HETATM   23  C3  UNL     1       4.498 -14.679   0.684  1.00  0.00     0.138 C 
BRANCH  23  24
HETATM   24  C4  UNL     1       5.336 -13.866  -0.300  1.00  0.00     0.020 C 
BRANCH  24  25
HETATM   25  C5  UNL     1       4.486 -12.643  -0.647  1.00  0.00     0.004 C 
BRANCH  25  26
HETATM   26  C6  UNL     1       3.035 -12.882  -0.260  1.00  0.00     0.026 C 
BRANCH  26  27
HETATM   27  C7  UNL     1       2.538 -11.655   0.469  1.00  0.00     0.164 C 
BRANCH  27  28
HETATM   28  O1  UNL     1       1.949 -12.079   1.664  1.00  0.00    -0.401 OA
ATOM     29  H1  UNL     1       1.196 -11.523   1.828  1.00  0.00     0.209 HD
ENDBRANCH  27  28
ENDBRANCH  26  27
ENDBRANCH  25  26
ENDBRANCH  24  25
ENDBRANCH  23  24
ENDBRANCH  21  23
ENDBRANCH   4  21
BRANCH   1  30
HETATM   30  N1  UNL     1       5.090 -15.515   6.377  1.00  0.00    -0.234 N 
ATOM     31  H12 UNL     1       5.703 -16.330   6.337  1.00  0.00     0.174 HD
ATOM     32  H11 UNL     1       4.735 -15.227   7.288  1.00  0.00     0.174 HD
ENDBRANCH   1  30
TORSDOF 9
ENDMDL
MODEL 2
REMARK VINA RESULT: -7.016453666      1.460      4.009
REMARK  9 active torsions:
REMARK  status: ('A' for Active; 'I' for Inactive)
REMARK    1  A    between atoms: N1_1  and  C1_4 
REMARK    2  A    between atoms: C2_7  and  N3_8 
REMARK    3  A    between atoms: N3_8  and  C3_10 
REMARK    4  A    between atoms: C3_10  and  C4_11 
REMARK    5  A    between atoms: C4_11  and  C5_12 
REMARK    6  A    between atoms: C5_12  and  C6_13 
REMARK    7  A    between atoms: C6_13  and  C7_14 
REMARK    8  A    between atoms: C7_14  and  O1_15 
REMARK    9  A    between atoms: C8_19  and  N5_20 
REMARK       I    between atoms: N5_20  and  C9_22 
REMARK       I    between atoms: C9_22  and  N6_23 
REMARK       I    between atoms: C9_22  and  N7_27 
ROOT
HETATM    1  C1  UNL     1       3.455 -10.710   4.417  1.00  0.00     0.705 A 
HETATM    2  N2  UNL     1       2.902 -10.949   3.193  1.00  0.00    -0.022 N 
ATOM      3  H2  UNL     1       2.639 -10.167   2.593  1.00  0.00     0.203 HD
HETATM    4  C2  UNL     1       2.702 -12.210   2.777  1.00  0.00     0.707 A 
HETATM    5  N4  UNL     1       3.050 -13.235   3.575  1.00  0.00    -0.021 N 
ATOM      6  H4  UNL     1       2.895 -14.189   3.252  1.00  0.00     0.203 HD
HETATM    7  C8  UNL     1       3.601 -13.035   4.792  1.00  0.00     0.710 A 
HETATM    8  N8  UNL     1       3.786 -11.762   5.174  1.00  0.00    -0.022 N 
ATOM      9  H8  UNL     1       4.201 -11.587   6.090  1.00  0.00     0.203 HD
ENDROOT
BRANCH   7  10
HETATM   10  N5  UNL     1       3.930 -13.998   5.543  1.00  0.00    -0.172 N 
HETATM   11  C9  UNL     1       4.897 -15.008   5.260  1.00  0.00     0.494 C 
HETATM   12  N6  UNL     1       5.212 -15.681   6.529  1.00  0.00    -0.032 N 
HETATM   13  N7  UNL     1       4.430 -16.022   4.359  1.00  0.00    -0.032 N 
ATOM     14  H63 UNL     1       5.511 -15.035   7.259  1.00  0.00     0.278 HD
ATOM     15  H62 UNL     1       4.384 -16.044   7.003  1.00  0.00     0.278 HD
ATOM     16  H61 UNL     1       5.903 -16.402   6.326  1.00  0.00     0.278 HD
ATOM     17  H73 UNL     1       3.566 -16.440   4.706  1.00  0.00     0.278 HD
ATOM     18  H72 UNL     1       4.083 -15.604   3.496  1.00  0.00     0.278 HD
ATOM     19  H71 UNL     1       5.121 -16.743   4.156  1.00  0.00     0.278 HD
ATOM     20  H5  UNL     1       3.455 -14.060   6.443  1.00  0.00     0.181 HD
ENDBRANCH   7  10
BRANCH   4  21
HETATM   21  N3  UNL     1       2.178 -12.393   1.619  1.00  0.00    -0.225 N 
ATOM     22  H3  UNL     1       1.311 -12.922   1.516  1.00  0.00     0.177 HD
BRANCH  21  23
HETATM   23  C3  UNL     1       2.843 -11.835   0.468  1.00  0.00     0.138 C 
BRANCH  23  24
HETATM   24  C4  UNL     1       3.309 -12.929  -0.491  1.00  0.00     0.020 C 
BRANCH  24  25
HETATM   25  C5  UNL     1       4.831 -12.970  -0.356  1.00  0.00     0.004 C 
BRANCH  25  26
HETATM   26  C6  UNL     1       5.315 -14.410  -0.283  1.00  0.00     0.026 C 
BRANCH  26  27
HETATM   27  C7  UNL     1       4.979 -14.946   1.090  1.00  0.00     0.164 C 
BRANCH  27  28
HETATM   28  O1  UNL     1       5.561 -14.093   2.033  1.00  0.00    -0.401 OA
ATOM     29  H1  UNL     1       5.096 -13.265   1.999  1.00  0.00     0.209 HD
ENDBRANCH  27  28
ENDBRANCH  26  27
ENDBRANCH  25  26
ENDBRANCH  24  25
ENDBRANCH  23  24
ENDBRANCH  21  23
ENDBRANCH   4  21
BRANCH   1  30
HETATM   30  N1  UNL     1       3.638  -9.494   4.795  1.00  0.00    -0.234 N 
ATOM     31  H12 UNL     1       4.429  -8.931   4.482  1.00  0.00     0.174 HD
ATOM     32  H11 UNL     1       2.968  -9.067   5.435  1.00  0.00     0.174 HD
ENDBRANCH   1  30
TORSDOF 9
ENDMDL
MODEL 3
REMARK VINA RESULT: -6.957458918      1.127      1.254
REMARK  9 active torsions:
REMARK  status: ('A' for Active; 'I' for Inactive)
REMARK    1  A    between atoms: N1_1  and  C1_4 
REMARK    2  A    between atoms: C2_7  and  N3_8 
REMARK    3  A    between atoms: N3_8  and  C3_10 
REMARK    4  A    between atoms: C3_10  and  C4_11 
REMARK    5  A    between atoms: C4_11  and  C5_12 
REMARK    6  A    between atoms: C5_12  and  C6_13 
REMARK    7  A    between atoms: C6_13  and  C7_14 
REMARK    8  A    between atoms: C7_14  and  O1_15 
REMARK    9  A    between atoms: C8_19  and  N5_20 
REMARK       I    between atoms: N5_20  and  C9_22 
REMARK       I    between atoms: C9_22  and  N6_23 
REMARK       I    between atoms: C9_22  and  N7_27 
ROOT
HETATM    1  C1  UNL     1       4.749 -14.869   5.317  1.00  0.00     0.705 A 
HETATM    2  N2  UNL     1       5.191 -15.287   4.096  1.00  0.00    -0.022 N 
ATOM      3  H2  UNL     1       5.781 -16.116   4.026  1.00  0.00     0.203 HD
HETATM    4  C2  UNL     1       4.853 -14.610   2.988  1.00  0.00     0.707 A 
HETATM    5  N4  UNL     1       4.076 -13.517   3.089  1.00  0.00    -0.021 N 
ATOM      6  H4  UNL     1       3.823 -13.009   2.242  1.00  0.00     0.203 HD
HETATM    7  C8  UNL     1       3.620 -13.075   4.281  1.00  0.00     0.710 A 
HETATM    8  N8  UNL     1       3.978 -13.777   5.367  1.00  0.00    -0.022 N 
ATOM      9  H8  UNL     1       3.644 -13.462   6.279  1.00  0.00     0.203 HD
ENDROOT
BRANCH   7  10
HETATM   10  N5  UNL     1       2.888 -12.048   4.377  1.00  0.00    -0.172 N 
HETATM   11  C9  UNL     1       3.303 -10.689   4.246  1.00  0.00     0.494 C 
HETATM   12  N6  UNL     1       2.091  -9.876   4.066  1.00  0.00    -0.032 N 
HETATM   13  N7  UNL     1       3.977 -10.175   5.404  1.00  0.00    -0.032 N 
ATOM     14  H63 UNL     1       1.511 -10.193   3.289  1.00  0.00     0.278 HD
ATOM     15  H62 UNL     1       1.405 -10.014   4.808  1.00  0.00     0.278 HD
ATOM     16  H61 UNL     1       2.388  -8.906   3.973  1.00  0.00     0.278 HD
ATOM     17  H73 UNL     1       3.401 -10.296   6.237  1.00  0.00     0.278 HD
ATOM     18  H72 UNL     1       4.766 -10.770   5.654  1.00  0.00     0.278 HD
ATOM     19  H71 UNL     1       4.274  -9.204   5.311  1.00  0.00     0.278 HD
ATOM     20  H5  UNL     1       1.899 -12.207   4.568  1.00  0.00     0.181 HD
ENDBRANCH   7  10
BRANCH   4  21
HETATM   21  N3  UNL     1       5.290 -15.035   1.857  1.00  0.00    -0.225 N 
ATOM     22  H3  UNL     1       6.198 -15.495   1.787  1.00  0.00     0.177 HD
BRANCH  21  23
HETATM   23  C3  UNL     1       4.467 -14.847   0.688  1.00  0.00     0.138 C 
BRANCH  23  24
HETATM   24  C4  UNL     1       5.142 -13.927  -0.327  1.00  0.00     0.020 C 
BRANCH  24  25
HETATM   25  C5  UNL     1       4.063 -12.936  -0.762  1.00  0.00     0.004 C 
BRANCH  25  26
HETATM   26  C6  UNL     1       4.031 -11.743   0.182  1.00  0.00     0.026 C 
BRANCH  26  27
HETATM   27  C7  UNL     1       5.457 -11.399   0.546  1.00  0.00     0.164 C 
BRANCH  27  28
HETATM   28  O1  UNL     1       5.470 -10.081   1.013  1.00  0.00    -0.401 OA
ATOM     29  H1  UNL     1       4.829  -9.590   0.511  1.00  0.00     0.209 HD
ENDBRANCH  27  28
ENDBRANCH  26  27
ENDBRANCH  25  26
ENDBRANCH  24  25
ENDBRANCH  23  24
ENDBRANCH  21  23
ENDBRANCH   4  21
BRANCH   1  30
HETATM   30  N1  UNL     1       5.086 -15.533   6.367  1.00  0.00    -0.234 N 
ATOM     31  H12 UNL     1       5.054 -16.551   6.410  1.00  0.00     0.174 HD
ATOM     32  H11 UNL     1       5.399 -15.027   7.195  1.00  0.00     0.174 HD
ENDBRANCH   1  30
TORSDOF 9
ENDMDL
MODEL 4
REMARK VINA RESULT: -6.815258463      2.294      4.274
REMARK  9 active torsions:
REMARK  status: ('A' for Active; 'I' for Inactive)
REMARK    1  A    between atoms: N1_1  and  C1_4 
REMARK    2  A    between atoms: C2_7  and  N3_8 
REMARK    3  A    between atoms: N3_8  and  C3_10 
REMARK    4  A    between atoms: C3_10  and  C4_11 
REMARK    5  A    between atoms: C4_11  and  C5_12 
REMARK    6  A    between atoms: C5_12  and  C6_13 
REMARK    7  A    between atoms: C6_13  and  C7_14 
REMARK    8  A    between atoms: C7_14  and  O1_15 
REMARK    9  A    between atoms: C8_19  and  N5_20 
REMARK       I    between atoms: N5_20  and  C9_22 
REMARK       I    between atoms: C9_22  and  N6_23 
REMARK       I    between atoms: C9_22  and  N7_27 
ROOT
HETATM    1  C1  UNL     1       2.695 -12.781   0.088  1.00  0.00     0.705 A 
HETATM    2  N2  UNL     1       3.533 -13.859   0.080  1.00  0.00    -0.022 N 
ATOM      3  H2  UNL     1       3.442 -14.567  -0.648  1.00  0.00     0.203 HD
HETATM    4  C2  UNL     1       4.474 -13.988   1.028  1.00  0.00     0.707 A 
HETATM    5  N4  UNL     1       4.586 -13.050   1.985  1.00  0.00    -0.021 N 
ATOM      6  H4  UNL     1       5.304 -13.156   2.701  1.00  0.00     0.203 HD
HETATM    7  C8  UNL     1       3.775 -11.971   2.023  1.00  0.00     0.710 A 
HETATM    8  N8  UNL     1       2.846 -11.875   1.059  1.00  0.00    -0.022 N 
ATOM      9  H8  UNL     1       2.222 -11.067   1.068  1.00  0.00     0.203 HD
ENDROOT
BRANCH   7  10
HETATM   10  N5  UNL     1       3.880 -11.087   2.922  1.00  0.00    -0.172 N 
HETATM   11  C9  UNL     1       3.045 -10.935   4.069  1.00  0.00     0.494 C 
HETATM   12  N6  UNL     1       3.743 -10.037   5.001  1.00  0.00    -0.032 N 
HETATM   13  N7  UNL     1       1.775 -10.329   3.785  1.00  0.00    -0.032 N 
ATOM     14  H63 UNL     1       4.684 -10.356   5.232  1.00  0.00     0.278 HD
ATOM     15  H62 UNL     1       4.004  -9.146   4.577  1.00  0.00     0.278 HD
ATOM     16  H61 UNL     1       3.146  -9.928   5.821  1.00  0.00     0.278 HD
ATOM     17  H73 UNL     1       1.902  -9.435   3.312  1.00  0.00     0.278 HD
ATOM     18  H72 UNL     1       1.288 -10.844   3.052  1.00  0.00     0.278 HD
ATOM     19  H71 UNL     1       1.179 -10.220   4.605  1.00  0.00     0.278 HD
ATOM     20  H5  UNL     1       4.638 -10.415   2.816  1.00  0.00     0.181 HD
ENDBRANCH   7  10
BRANCH   4  21
HETATM   21  N3  UNL     1       5.243 -15.016   0.986  1.00  0.00    -0.225 N 
ATOM     22  H3  UNL     1       5.453 -15.476   0.101  1.00  0.00     0.177 HD
BRANCH  21  23
HETATM   23  C3  UNL     1       5.801 -15.506   2.222  1.00  0.00     0.138 C 
BRANCH  23  24
HETATM   24  C4  UNL     1       4.969 -16.652   2.795  1.00  0.00     0.020 C 
BRANCH  24  25
HETATM   25  C5  UNL     1       4.803 -16.333   4.281  1.00  0.00     0.004 C 
BRANCH  25  26
HETATM   26  C6  UNL     1       3.959 -15.081   4.461  1.00  0.00     0.026 C 
BRANCH  26  27
HETATM   27  C7  UNL     1       4.610 -14.228   5.525  1.00  0.00     0.164 C 
BRANCH  27  28
HETATM   28  O1  UNL     1       5.438 -13.303   4.881  1.00  0.00    -0.401 OA
ATOM     29  H1  UNL     1       5.863 -12.780   5.551  1.00  0.00     0.209 HD
ENDBRANCH  27  28
ENDBRANCH  26  27
ENDBRANCH  25  26
ENDBRANCH  24  25
ENDBRANCH  23  24
ENDBRANCH  21  23
ENDBRANCH   4  21
BRANCH   1  30
HETATM   30  N1  UNL     1       1.800 -12.677  -0.830  1.00  0.00    -0.234 N 
ATOM     31  H12 UNL     1       1.622 -11.808  -1.333  1.00  0.00     0.174 HD
ATOM     32  H11 UNL     1       1.239 -13.494  -1.072  1.00  0.00     0.174 HD
ENDBRANCH   1  30
TORSDOF 9
ENDMDL
MODEL 5
REMARK VINA RESULT: -6.682835415      2.379      4.520
REMARK  9 active torsions:
REMARK  status: ('A' for Active; 'I' for Inactive)
REMARK    1  A    between atoms: N1_1  and  C1_4 
REMARK    2  A    between atoms: C2_7  and  N3_8 
REMARK    3  A    between atoms: N3_8  and  C3_10 
REMARK    4  A    between atoms: C3_10  and  C4_11 
REMARK    5  A    between atoms: C4_11  and  C5_12 
REMARK    6  A    between atoms: C5_12  and  C6_13 
REMARK    7  A    between atoms: C6_13  and  C7_14 
REMARK    8  A    between atoms: C7_14  and  O1_15 
REMARK    9  A    between atoms: C8_19  and  N5_20 
REMARK       I    between atoms: N5_20  and  C9_22 
REMARK       I    between atoms: C9_22  and  N6_23 
REMARK       I    between atoms: C9_22  and  N7_27 
ROOT
HETATM    1  C1  UNL     1       3.606 -11.168   4.312  1.00  0.00     0.705 A 
HETATM    2  N2  UNL     1       4.231 -12.291   4.770  1.00  0.00    -0.022 N 
ATOM      3  H2  UNL     1       4.658 -12.292   5.697  1.00  0.00     0.203 HD
HETATM    4  C2  UNL     1       4.286 -13.392   4.005  1.00  0.00     0.707 A 
HETATM    5  N4  UNL     1       3.722 -13.381   2.784  1.00  0.00    -0.021 N 
ATOM      6  H4  UNL     1       3.768 -14.222   2.209  1.00  0.00     0.203 HD
HETATM    7  C8  UNL     1       3.095 -12.288   2.299  1.00  0.00     0.710 A 
HETATM    8  N8  UNL     1       3.059 -11.206   3.092  1.00  0.00    -0.022 N 
ATOM      9  H8  UNL     1       2.590 -10.368   2.747  1.00  0.00     0.203 HD
ENDROOT
BRANCH   7  10
HETATM   10  N5  UNL     1       2.563 -12.277   1.152  1.00  0.00    -0.172 N 
HETATM   11  C9  UNL     1       2.907 -13.107   0.044  1.00  0.00     0.494 C 
HETATM   12  N6  UNL     1       1.812 -13.010  -0.933  1.00  0.00    -0.032 N 
HETATM   13  N7  UNL     1       4.104 -12.701  -0.635  1.00  0.00    -0.032 N 
ATOM     14  H63 UNL     1       0.901 -13.235  -0.534  1.00  0.00     0.278 HD
ATOM     15  H62 UNL     1       1.605 -12.048  -1.205  1.00  0.00     0.278 HD
ATOM     16  H61 UNL     1       2.059 -13.603  -1.724  1.00  0.00     0.278 HD
ATOM     17  H73 UNL     1       4.038 -11.725  -0.925  1.00  0.00     0.278 HD
ATOM     18  H72 UNL     1       4.883 -12.633   0.019  1.00  0.00     0.278 HD
ATOM     19  H71 UNL     1       4.350 -13.294  -1.427  1.00  0.00     0.278 HD
ATOM     20  H5  UNL     1       1.810 -11.605   1.003  1.00  0.00     0.181 HD
ENDBRANCH   7  10
BRANCH   4  21
HETATM   21  N3  UNL     1       4.885 -14.429   4.471  1.00  0.00    -0.225 N 
ATOM     22  H3  UNL     1       5.807 -14.350   4.901  1.00  0.00     0.177 HD
BRANCH  21  23
HETATM   23  C3  UNL     1       4.223 -15.706   4.373  1.00  0.00     0.138 C 
BRANCH  23  24
HETATM   24  C4  UNL     1       5.229 -16.853   4.319  1.00  0.00     0.020 C 
BRANCH  24  25
HETATM   25  C5  UNL     1       5.194 -17.359   2.877  1.00  0.00     0.004 C 
BRANCH  25  26
HETATM   26  C6  UNL     1       6.395 -16.834   2.105  1.00  0.00     0.026 C 
BRANCH  26  27
HETATM   27  C7  UNL     1       5.882 -16.098   0.888  1.00  0.00     0.164 C 
BRANCH  27  28
HETATM   28  O1  UNL     1       5.671 -14.766   1.255  1.00  0.00    -0.401 OA
ATOM     29  H1  UNL     1       4.915 -14.741   1.830  1.00  0.00     0.209 HD
ENDBRANCH  27  28
ENDBRANCH  26  27
ENDBRANCH  25  26
ENDBRANCH  24  25
ENDBRANCH  23  24
ENDBRANCH  21  23
ENDBRANCH   4  21
BRANCH   1  30
HETATM   30  N1  UNL     1       3.565 -10.123   5.062  1.00  0.00    -0.234 N 
ATOM     31  H12 UNL     1       2.877 -10.004   5.806  1.00  0.00     0.174 HD
ATOM     32  H11 UNL     1       4.245  -9.378   4.914  1.00  0.00     0.174 HD
ENDBRANCH   1  30
TORSDOF 9
ENDMDL
