MODEL 1
REMARK VINA RESULT: -6.784532249      0.000      0.000
REMARK  9 active torsions:
REMARK  status: ('A' for Active; 'I' for Inactive)
REMARK    1  A    between atoms: N1_1  and  C1_4 
REMARK    2  A    between atoms: N5_14  and  C5_16 
REMARK    3  A    between atoms: C5_16  and  C6_17 
REMARK    4  A    between atoms: C6_17  and  N6_18 
REMARK    5  A    between atoms: N6_18  and  C7_19 
REMARK    6  A    between atoms: N6_18  and  C8_22 
REMARK    7  A    between atoms: C7_19  and  O1_20 
REMARK    8  A    between atoms: C8_22  and  C9_23 
REMARK    9  A    between atoms: C9_23  and  O2_24 
ROOT
HETATM    1  C1  UNL     1       4.643 -14.322   5.656  1.00  0.00     0.678 A 
HETATM    2  N2  UNL     1       4.682 -13.177   6.337  1.00  0.00    -0.174 N 
ATOM      3  H2  UNL     1       4.979 -13.076   7.307  1.00  0.00     0.186 HD
HETATM    4  C2  UNL     1       4.260 -12.162   5.529  1.00  0.00     0.153 A 
HETATM    5  N3  UNL     1       4.104 -10.844   5.700  1.00  0.00    -0.336 N 
ATOM      6  H3  UNL     1       4.324 -10.410   6.596  1.00  0.00     0.168 HD
HETATM    7  C3  UNL     1       3.655 -10.101   4.677  1.00  0.00     0.183 A 
HETATM    8  N4  UNL     1       3.346 -10.620   3.457  1.00  0.00    -0.337 N 
ATOM      9  H4  UNL     1       3.009 -10.006   2.714  1.00  0.00     0.168 HD
HETATM   10  C4  UNL     1       3.479 -11.927   3.230  1.00  0.00     0.137 A 
HETATM   11  N5  UNL     1       3.232 -12.495   2.184  1.00  0.00    -0.349 N 
ATOM     12  H5  UNL     1       3.435 -13.485   2.320  1.00  0.00     0.167 HD
HETATM   13  C10 UNL     1       3.951 -12.703   4.307  1.00  0.00     0.137 A 
HETATM   14  N7  UNL     1       4.197 -14.025   4.418  1.00  0.00    -0.184 N 
ATOM     15  H7  UNL     1       4.063 -14.705   3.670  1.00  0.00     0.184 HD
ENDROOT
BRANCH  11  16
HETATM   16  C5  UNL     1       2.788 -12.342   0.890  1.00  0.00     0.107 C 
BRANCH  16  17
HETATM   17  C6  UNL     1       3.229 -13.316  -0.166  1.00  0.00     0.114 C 
BRANCH  17  18
HETATM   18  N6  UNL     1       4.632 -13.418  -0.170  1.00  0.00    -0.324 N 
BRANCH  18  19
HETATM   19  C7  UNL     1       5.371 -12.236  -0.383  1.00  0.00     0.229 C 
BRANCH  19  20
HETATM   20  O1  UNL     1       6.118 -11.869   0.749  1.00  0.00    -0.356 OA
ATOM     21  H1  UNL     1       5.582 -11.441   1.408  1.00  0.00     0.218 HD
ENDBRANCH  19  20
ENDBRANCH  18  19
BRANCH  18  22
HETATM   22  C8  UNL     1       5.266 -14.655  -0.175  1.00  0.00     0.096 C 
BRANCH  22  23
HETATM   23  C9  UNL     1       5.337 -15.393   1.132  1.00  0.00     0.209 C 
BRANCH  23  24
HETATM   24  O2  UNL     1       5.777 -14.567   2.165  1.00  0.00    -0.396 OA
ATOM     25  H2  UNL     1       6.525 -14.044   1.901  1.00  0.00     0.209 HD
ENDBRANCH  23  24
ENDBRANCH  22  23
ENDBRANCH  18  22
ENDBRANCH  17  18
ENDBRANCH  16  17
ENDBRANCH  11  16
BRANCH   1  26
HETATM   26  N1  UNL     1       4.979 -15.473   6.130  1.00  0.00    -0.234 N 
ATOM     27  H12 UNL     1       5.304 -16.296   5.623  1.00  0.00     0.174 HD
ATOM     28  H11 UNL     1       4.964 -15.723   7.119  1.00  0.00     0.174 HD
ENDBRANCH   1  26
TORSDOF 9
ENDMDL
MODEL 2
REMARK VINA RESULT: -6.729279682      0.587      1.725
REMARK  9 active torsions:
REMARK  status: ('A' for Active; 'I' for Inactive)
REMARK    1  A    between atoms: N1_1  and  C1_4 
REMARK    2  A    between atoms: N5_14  and  C5_16 
REMARK    3  A    between atoms: C5_16  and  C6_17 
REMARK    4  A    between atoms: C6_17  and  N6_18 
REMARK    5  A    between atoms: N6_18  and  C7_19 
REMARK    6  A    between atoms: N6_18  and  C8_22 
REMARK    7  A    between atoms: C7_19  and  O1_20 
REMARK    8  A    between atoms: C8_22  and  C9_23 
REMARK    9  A    between atoms: C9_23  and  O2_24 
ROOT
HETATM    1  C1  UNL     1       4.642 -14.504   5.537  1.00  0.00     0.678 A 
HETATM    2  N2  UNL     1       4.694 -13.365   6.228  1.00  0.00    -0.174 N 
ATOM      3  H2  UNL     1       5.019 -13.273   7.191  1.00  0.00     0.186 HD
HETATM    4  C2  UNL     1       4.244 -12.344   5.444  1.00  0.00     0.153 A 
HETATM    5  N3  UNL     1       4.087 -11.029   5.633  1.00  0.00    -0.336 N 
ATOM      6  H3  UNL     1       4.330 -10.603   6.527  1.00  0.00     0.168 HD
HETATM    7  C3  UNL     1       3.606 -10.278   4.631  1.00  0.00     0.183 A 
HETATM    8  N4  UNL     1       3.263 -10.785   3.415  1.00  0.00    -0.337 N 
ATOM      9  H4  UNL     1       2.903 -10.166   2.689  1.00  0.00     0.168 HD
HETATM   10  C4  UNL     1       3.397 -12.089   3.171  1.00  0.00     0.137 A 
HETATM   11  N5  UNL     1       3.122 -12.647   2.126  1.00  0.00    -0.349 N 
ATOM     12  H5  UNL     1       3.334 -13.638   2.245  1.00  0.00     0.167 HD
HETATM   13  C10 UNL     1       3.903 -12.875   4.225  1.00  0.00     0.137 A 
HETATM   14  N7  UNL     1       4.158 -14.196   4.315  1.00  0.00    -0.184 N 
ATOM     15  H7  UNL     1       4.007 -14.869   3.564  1.00  0.00     0.184 HD
ENDROOT
BRANCH  11  16
HETATM   16  C5  UNL     1       2.641 -12.483   0.847  1.00  0.00     0.107 C 
BRANCH  16  17
HETATM   17  C6  UNL     1       3.112 -13.400  -0.246  1.00  0.00     0.114 C 
BRANCH  17  18
HETATM   18  N6  UNL     1       4.508 -13.303  -0.387  1.00  0.00    -0.324 N 
BRANCH  18  19
HETATM   19  C7  UNL     1       5.278 -14.431  -0.039  1.00  0.00     0.229 C 
BRANCH  19  20
HETATM   20  O1  UNL     1       5.322 -14.632   1.351  1.00  0.00    -0.356 OA
ATOM     21  H1  UNL     1       5.736 -15.456   1.581  1.00  0.00     0.218 HD
ENDBRANCH  19  20
ENDBRANCH  18  19
BRANCH  18  22
HETATM   22  C8  UNL     1       5.124 -12.086  -0.656  1.00  0.00     0.096 C 
BRANCH  22  23
HETATM   23  C9  UNL     1       5.991 -11.505   0.426  1.00  0.00     0.209 C 
BRANCH  23  24
HETATM   24  O2  UNL     1       7.209 -11.053  -0.079  1.00  0.00    -0.396 OA
ATOM     25  H2  UNL     1       7.504 -10.269   0.369  1.00  0.00     0.209 HD
ENDBRANCH  23  24
ENDBRANCH  22  23
ENDBRANCH  18  22
ENDBRANCH  17  18
ENDBRANCH  16  17
ENDBRANCH  11  16
BRANCH   1  26
HETATM   26  N1  UNL     1       4.996 -15.658   5.989  1.00  0.00    -0.234 N 
ATOM     27  H12 UNL     1       5.659 -16.319   5.585  1.00  0.00     0.174 HD
ATOM     28  H11 UNL     1       4.646 -16.080   6.849  1.00  0.00     0.174 HD
ENDBRANCH   1  26
TORSDOF 9
ENDMDL
MODEL 3
REMARK VINA RESULT: -6.636767866      1.410      2.094
REMARK  9 active torsions:
REMARK  status: ('A' for Active; 'I' for Inactive)
REMARK    1  A    between atoms: N1_1  and  C1_4 
REMARK    2  A    between atoms: N5_14  and  C5_16 
REMARK    3  A    between atoms: C5_16  and  C6_17 
REMARK    4  A    between atoms: C6_17  and  N6_18 
REMARK    5  A    between atoms: N6_18  and  C7_19 
REMARK    6  A    between atoms: N6_18  and  C8_22 
REMARK    7  A    between atoms: C7_19  and  O1_20 
REMARK    8  A    between atoms: C8_22  and  C9_23 
REMARK    9  A    between atoms: C9_23  and  O2_24 
ROOT
HETATM    1  C1  UNL     1       4.661 -16.759   4.469  1.00  0.00     0.678 A 
HETATM    2  N2  UNL     1       4.978 -16.235   5.653  1.00  0.00    -0.174 N 
ATOM      3  H2  UNL     1       5.353 -16.754   6.447  1.00  0.00     0.186 HD
HETATM    4  C2  UNL     1       4.722 -14.895   5.633  1.00  0.00     0.153 A 
HETATM    5  N3  UNL     1       4.852 -13.913   6.531  1.00  0.00    -0.336 N 
ATOM      6  H3  UNL     1       5.214 -14.110   7.464  1.00  0.00     0.168 HD
HETATM    7  C3  UNL     1       4.500 -12.664   6.189  1.00  0.00     0.183 A 
HETATM    8  N4  UNL     1       4.012 -12.336   4.961  1.00  0.00    -0.337 N 
ATOM      9  H4  UNL     1       3.761 -11.368   4.755  1.00  0.00     0.168 HD
HETATM   10  C4  UNL     1       3.859 -13.275   4.027  1.00  0.00     0.137 A 
HETATM   11  N5  UNL     1       3.432 -13.095   2.902  1.00  0.00    -0.349 N 
ATOM     12  H5  UNL     1       3.436 -13.998   2.428  1.00  0.00     0.167 HD
HETATM   13  C10 UNL     1       4.230 -14.585   4.390  1.00  0.00     0.137 A 
HETATM   14  N7  UNL     1       4.205 -15.745   3.704  1.00  0.00    -0.184 N 
ATOM     15  H7  UNL     1       3.887 -15.843   2.739  1.00  0.00     0.184 HD
ENDROOT
BRANCH  11  16
HETATM   16  C5  UNL     1       2.947 -12.166   2.011  1.00  0.00     0.107 C 
BRANCH  16  17
HETATM   17  C6  UNL     1       3.208 -12.339   0.542  1.00  0.00     0.114 C 
BRANCH  17  18
HETATM   18  N6  UNL     1       4.593 -12.338   0.296  1.00  0.00    -0.324 N 
BRANCH  18  19
HETATM   19  C7  UNL     1       5.321 -11.193   0.678  1.00  0.00     0.229 C 
BRANCH  19  20
HETATM   20  O1  UNL     1       6.650 -11.236   0.224  1.00  0.00    -0.356 OA
ATOM     21  H1  UNL     1       7.234 -10.728   0.777  1.00  0.00     0.218 HD
ENDBRANCH  19  20
ENDBRANCH  18  19
BRANCH  18  22
HETATM   22  C8  UNL     1       5.190 -13.325  -0.478  1.00  0.00     0.096 C 
BRANCH  22  23
HETATM   23  C9  UNL     1       5.173 -14.726   0.068  1.00  0.00     0.209 C 
BRANCH  23  24
HETATM   24  O2  UNL     1       5.689 -14.780   1.362  1.00  0.00    -0.396 OA
ATOM     25  H2  UNL     1       6.313 -15.489   1.461  1.00  0.00     0.209 HD
ENDBRANCH  23  24
ENDBRANCH  22  23
ENDBRANCH  18  22
ENDBRANCH  17  18
ENDBRANCH  16  17
ENDBRANCH  11  16
BRANCH   1  26
HETATM   26  N1  UNL     1       4.783 -18.004   4.157  1.00  0.00    -0.234 N 
ATOM     27  H12 UNL     1       5.366 -18.713   4.601  1.00  0.00     0.174 HD
ATOM     28  H11 UNL     1       4.291 -18.464   3.391  1.00  0.00     0.174 HD
ENDBRANCH   1  26
TORSDOF 9
ENDMDL
MODEL 4
REMARK VINA RESULT: -6.597677175      1.553      3.338
REMARK  9 active torsions:
REMARK  status: ('A' for Active; 'I' for Inactive)
REMARK    1  A    between atoms: N1_1  and  C1_4 
REMARK    2  A    between atoms: N5_14  and  C5_16 
REMARK    3  A    between atoms: C5_16  and  C6_17 
REMARK    4  A    between atoms: C6_17  and  N6_18 
REMARK    5  A    between atoms: N6_18  and  C7_19 
REMARK    6  A    between atoms: N6_18  and  C8_22 
REMARK    7  A    between atoms: C7_19  and  O1_20 
REMARK    8  A    between atoms: C8_22  and  C9_23 
REMARK    9  A    between atoms: C9_23  and  O2_24 
ROOT
HETATM    1  C1  UNL     1       4.200 -11.894   5.273  1.00  0.00     0.678 A 
HETATM    2  N2  UNL     1       4.361 -12.846   6.192  1.00  0.00    -0.174 N 
ATOM      3  H2  UNL     1       4.311 -12.707   7.201  1.00  0.00     0.186 HD
HETATM    4  C2  UNL     1       4.603 -14.035   5.569  1.00  0.00     0.153 A 
HETATM    5  N3  UNL     1       4.834 -15.279   6.002  1.00  0.00    -0.336 N 
ATOM      6  H3  UNL     1       4.850 -15.483   7.001  1.00  0.00     0.168 HD
HETATM    7  C3  UNL     1       5.041 -16.255   5.106  1.00  0.00     0.183 A 
HETATM    8  N4  UNL     1       5.031 -16.048   3.760  1.00  0.00    -0.337 N 
ATOM      9  H4  UNL     1       5.194 -16.829   3.124  1.00  0.00     0.168 HD
HETATM   10  C4  UNL     1       4.808 -14.828   3.271  1.00  0.00     0.137 A 
HETATM   11  N5  UNL     1       4.778 -14.529   2.092  1.00  0.00    -0.349 N 
ATOM     12  H5  UNL     1       4.586 -13.529   2.036  1.00  0.00     0.167 HD
HETATM   13  C10 UNL     1       4.590 -13.805   4.216  1.00  0.00     0.137 A 
HETATM   14  N7  UNL     1       4.341 -12.488   4.069  1.00  0.00    -0.184 N 
ATOM     15  H7  UNL     1       4.269 -12.007   3.172  1.00  0.00     0.184 HD
ENDROOT
BRANCH  11  16
HETATM   16  C5  UNL     1       4.899 -14.996   0.804  1.00  0.00     0.107 C 
BRANCH  16  17
HETATM   17  C6  UNL     1       5.373 -14.069  -0.280  1.00  0.00     0.114 C 
BRANCH  17  18
HETATM   18  N6  UNL     1       4.733 -12.822  -0.160  1.00  0.00    -0.324 N 
BRANCH  18  19
HETATM   19  C7  UNL     1       5.495 -11.743   0.331  1.00  0.00     0.229 C 
BRANCH  19  20
HETATM   20  O1  UNL     1       6.738 -11.636  -0.316  1.00  0.00    -0.356 OA
ATOM     21  H1  UNL     1       7.329 -12.340  -0.073  1.00  0.00     0.218 HD
ENDBRANCH  19  20
ENDBRANCH  18  19
BRANCH  18  22
HETATM   22  C8  UNL     1       3.358 -12.699  -0.317  1.00  0.00     0.096 C 
BRANCH  22  23
HETATM   23  C9  UNL     1       2.631 -11.831   0.673  1.00  0.00     0.209 C 
BRANCH  23  24
HETATM   24  O2  UNL     1       2.300 -12.537   1.828  1.00  0.00    -0.396 OA
ATOM     25  H2  UNL     1       1.566 -13.123   1.682  1.00  0.00     0.209 HD
ENDBRANCH  23  24
ENDBRANCH  22  23
ENDBRANCH  18  22
ENDBRANCH  17  18
ENDBRANCH  16  17
ENDBRANCH  11  16
BRANCH   1  26
HETATM   26  N1  UNL     1       3.957 -10.655   5.529  1.00  0.00    -0.234 N 
ATOM     27  H12 UNL     1       3.198 -10.261   6.085  1.00  0.00     0.174 HD
ATOM     28  H11 UNL     1       4.516  -9.869   5.196  1.00  0.00     0.174 HD
ENDBRANCH   1  26
TORSDOF 9
ENDMDL
MODEL 5
REMARK VINA RESULT: -6.590388512      1.381      3.381
REMARK  9 active torsions:
REMARK  status: ('A' for Active; 'I' for Inactive)
REMARK    1  A    between atoms: N1_1  and  C1_4 
REMARK    2  A    between atoms: N5_14  and  C5_16 
REMARK    3  A    between atoms: C5_16  and  C6_17 
REMARK    4  A    between atoms: C6_17  and  N6_18 
REMARK    5  A    between atoms: N6_18  and  C7_19 
REMARK    6  A    between atoms: N6_18  and  C8_22 
REMARK    7  A    between atoms: C7_19  and  O1_20 
REMARK    8  A    between atoms: C8_22  and  C9_23 
REMARK    9  A    between atoms: C9_23  and  O2_24 
ROOT
HETATM    1  C1  UNL     1       3.678 -10.932   4.530  1.00  0.00     0.678 A 
HETATM    2  N2  UNL     1       3.845 -11.561   5.694  1.00  0.00    -0.174 N 
ATOM      3  H2  UNL     1       3.704 -11.147   6.615  1.00  0.00     0.186 HD
HETATM    4  C2  UNL     1       4.234 -12.846   5.455  1.00  0.00     0.153 A 
HETATM    5  N3  UNL     1       4.533 -13.886   6.243  1.00  0.00    -0.336 N 
ATOM      6  H3  UNL     1       4.489 -13.795   7.258  1.00  0.00     0.168 HD
HETATM    7  C3  UNL     1       4.892 -15.050   5.680  1.00  0.00     0.183 A 
HETATM    8  N4  UNL     1       4.970 -15.235   4.334  1.00  0.00    -0.337 N 
ATOM      9  H4  UNL     1       5.247 -16.144   3.961  1.00  0.00     0.168 HD
HETATM   10  C4  UNL     1       4.685 -14.234   3.501  1.00  0.00     0.137 A 
HETATM   11  N5  UNL     1       4.723 -14.288   2.286  1.00  0.00    -0.349 N 
ATOM     12  H5  UNL     1       4.452 -13.370   1.933  1.00  0.00     0.167 HD
HETATM   13  C10 UNL     1       4.309 -13.014   4.095  1.00  0.00     0.137 A 
HETATM   14  N7  UNL     1       3.963 -11.825   3.560  1.00  0.00    -0.184 N 
ATOM     15  H7  UNL     1       3.921 -11.629   2.559  1.00  0.00     0.184 HD
ENDROOT
BRANCH  11  16
HETATM   16  C5  UNL     1       4.983 -15.086   1.197  1.00  0.00     0.107 C 
BRANCH  16  17
HETATM   17  C6  UNL     1       5.055 -14.472  -0.173  1.00  0.00     0.114 C 
BRANCH  17  18
HETATM   18  N6  UNL     1       4.338 -13.262  -0.196  1.00  0.00    -0.324 N 
BRANCH  18  19
HETATM   19  C7  UNL     1       2.934 -13.334  -0.090  1.00  0.00     0.229 C 
BRANCH  19  20
HETATM   20  O1  UNL     1       2.449 -12.606   1.010  1.00  0.00    -0.356 OA
ATOM     21  H1  UNL     1       1.656 -12.125   0.800  1.00  0.00     0.218 HD
ENDBRANCH  19  20
ENDBRANCH  18  19
BRANCH  18  22
HETATM   22  C8  UNL     1       4.958 -12.061  -0.520  1.00  0.00     0.096 C 
BRANCH  22  23
HETATM   23  C9  UNL     1       5.817 -11.427   0.539  1.00  0.00     0.209 C 
BRANCH  23  24
HETATM   24  O2  UNL     1       7.047 -11.019   0.027  1.00  0.00    -0.396 OA
ATOM     25  H2  UNL     1       7.009 -10.131  -0.309  1.00  0.00     0.209 HD
ENDBRANCH  23  24
ENDBRANCH  22  23
ENDBRANCH  18  22
ENDBRANCH  17  18
ENDBRANCH  16  17
ENDBRANCH  11  16
BRANCH   1  26
HETATM   26  N1  UNL     1       3.312  -9.702   4.403  1.00  0.00    -0.234 N 
ATOM     27  H12 UNL     1       2.728  -9.147   5.029  1.00  0.00     0.174 HD
ATOM     28  H11 UNL     1       3.570  -9.095   3.625  1.00  0.00     0.174 HD
ENDBRANCH   1  26
TORSDOF 9
ENDMDL
