MODEL 1
REMARK VINA RESULT: -6.074588650      0.000      0.000
REMARK  11 active torsions:
REMARK  status: ('A' for Active; 'I' for Inactive)
REMARK    1  A    between atoms: N1_1  and  C1_5 
REMARK    2  A    between atoms: C1_5  and  C2_6 
REMARK    3  A    between atoms: C2_6  and  N2_7 
REMARK    4  A    between atoms: N2_7  and  C3_9 
REMARK    5  A    between atoms: C3_9  and  C4_10 
REMARK    6  A    between atoms: C4_10  and  S1_11 
REMARK    7  A    between atoms: S1_11  and  C5_12 
REMARK    8  A    between atoms: C6_13  and  N3_14 
REMARK    9  A    between atoms: C8_19  and  N4_20 
REMARK   10  A    between atoms: C9_24  and  O1_25 
REMARK   11  A    between atoms: C10_27  and  N5_28 
ROOT
HETATM    1  C5  UNL     1       3.837 -12.424   2.773  1.00  0.00     0.110 C 
HETATM    2  C6  UNL     1       3.624 -11.385   3.851  1.00  0.00     0.201 C 
HETATM    3  C7  UNL     1       3.910 -12.003   5.188  1.00  0.00     0.069 C 
HETATM    4  C8  UNL     1       4.598 -13.358   5.090  1.00  0.00     0.216 C 
HETATM    5  C9  UNL     1       3.677 -14.319   4.381  1.00  0.00     0.180 C 
HETATM    6  C10 UNL     1       3.073 -13.702   3.136  1.00  0.00     0.229 C 
ENDROOT
BRANCH   1   7
HETATM    7  S1  UNL     1       3.419 -11.863   1.118  1.00  0.00    -0.158 SA
BRANCH   7   8
HETATM    8  C4  UNL     1       3.564 -13.126  -0.129  1.00  0.00     0.094 C 
BRANCH   8   9
HETATM    9  C3  UNL     1       5.049 -13.304  -0.478  1.00  0.00     0.129 C 
BRANCH   9  10
HETATM   10  N2  UNL     1       5.404 -14.684  -0.519  1.00  0.00    -0.400 N 
ATOM     11  H2  UNL     1       5.614 -15.149  -1.402  1.00  0.00     0.158 HD
BRANCH  10  12
HETATM   12  C2  UNL     1       5.456 -15.381   0.699  1.00  0.00     0.082 C 
BRANCH  12  13
HETATM   13  C1  UNL     1       6.215 -16.694   0.685  1.00  0.00     0.273 C 
BRANCH  13  14
HETATM   14  N1  UNL     1       6.907 -16.899  -0.558  1.00  0.00    -0.075 N 
ATOM     15  H13 UNL     1       7.445 -17.766  -0.544  1.00  0.00     0.274 HD
ATOM     16  H12 UNL     1       6.257 -17.126  -1.311  1.00  0.00     0.274 HD
ATOM     17  H11 UNL     1       7.495 -16.102  -0.802  1.00  0.00     0.274 HD
ENDBRANCH  13  14
ENDBRANCH  12  13
ENDBRANCH  10  12
ENDBRANCH   9  10
ENDBRANCH   8   9
ENDBRANCH   7   8
ENDBRANCH   1   7
BRANCH   2  18
HETATM   18  N3  UNL     1       2.322 -10.801   3.869  1.00  0.00    -0.074 N 
ATOM     19  H33 UNL     1       2.004 -10.619   2.917  1.00  0.00     0.274 HD
ATOM     20  H32 UNL     1       1.629 -11.491   4.158  1.00  0.00     0.274 HD
ATOM     21  H31 UNL     1       2.241  -9.958   4.437  1.00  0.00     0.274 HD
ENDBRANCH   2  18
BRANCH   6  22
HETATM   22  N5  UNL     1       1.654 -13.436   3.334  1.00  0.00    -0.071 N 
ATOM     23  H53 UNL     1       1.339 -13.750   4.252  1.00  0.00     0.274 HD
ATOM     24  H52 UNL     1       1.472 -12.438   3.436  1.00  0.00     0.274 HD
ATOM     25  H51 UNL     1       1.091 -13.844   2.587  1.00  0.00     0.274 HD
ENDBRANCH   6  22
BRANCH   5  26
HETATM   26  O1  UNL     1       4.332 -15.508   4.070  1.00  0.00    -0.391 OA
ATOM     27  H1  UNL     1       3.714 -16.185   3.818  1.00  0.00     0.210 HD
ENDBRANCH   5  26
BRANCH   4  28
HETATM   28  N4  UNL     1       4.790 -13.810   6.467  1.00  0.00    -0.072 N 
ATOM     29  H43 UNL     1       4.412 -13.168   7.164  1.00  0.00     0.274 HD
ATOM     30  H42 UNL     1       4.213 -14.614   6.716  1.00  0.00     0.274 HD
ATOM     31  H41 UNL     1       5.791 -13.980   6.569  1.00  0.00     0.274 HD
ENDBRANCH   4  28
TORSDOF 11
ENDMDL
MODEL 2
REMARK VINA RESULT: -6.023762043      2.184      3.642
REMARK  11 active torsions:
REMARK  status: ('A' for Active; 'I' for Inactive)
REMARK    1  A    between atoms: N1_1  and  C1_5 
REMARK    2  A    between atoms: C1_5  and  C2_6 
REMARK    3  A    between atoms: C2_6  and  N2_7 
REMARK    4  A    between atoms: N2_7  and  C3_9 
REMARK    5  A    between atoms: C3_9  and  C4_10 
REMARK    6  A    between atoms: C4_10  and  S1_11 
REMARK    7  A    between atoms: S1_11  and  C5_12 
REMARK    8  A    between atoms: C6_13  and  N3_14 
REMARK    9  A    between atoms: C8_19  and  N4_20 
REMARK   10  A    between atoms: C9_24  and  O1_25 
REMARK   11  A    between atoms: C10_27  and  N5_28 
ROOT
HETATM    1  C5  UNL     1       4.281 -12.930   3.424  1.00  0.00     0.110 C 
HETATM    2  C6  UNL     1       2.860 -12.963   2.909  1.00  0.00     0.201 C 
HETATM    3  C7  UNL     1       2.144 -11.729   3.373  1.00  0.00     0.069 C 
HETATM    4  C8  UNL     1       3.077 -10.675   3.956  1.00  0.00     0.216 C 
HETATM    5  C9  UNL     1       3.748 -11.246   5.180  1.00  0.00     0.180 C 
HETATM    6  C10 UNL     1       4.272 -12.646   4.930  1.00  0.00     0.229 C 
ENDROOT
BRANCH   1   7
HETATM    7  S1  UNL     1       5.234 -14.406   3.045  1.00  0.00    -0.158 SA
BRANCH   7   8
HETATM    8  C4  UNL     1       4.735 -15.218   1.541  1.00  0.00     0.094 C 
BRANCH   8   9
HETATM    9  C3  UNL     1       5.322 -14.446   0.349  1.00  0.00     0.129 C 
BRANCH   9  10
HETATM   10  N2  UNL     1       4.297 -13.780  -0.384  1.00  0.00    -0.400 N 
ATOM     11  H2  UNL     1       3.528 -14.299  -0.807  1.00  0.00     0.158 HD
BRANCH  10  12
HETATM   12  C2  UNL     1       4.382 -12.384  -0.503  1.00  0.00     0.082 C 
BRANCH  12  13
HETATM   13  C1  UNL     1       5.518 -11.718   0.250  1.00  0.00     0.273 C 
BRANCH  13  14
HETATM   14  N1  UNL     1       5.123 -10.451   0.804  1.00  0.00    -0.075 N 
ATOM     15  H13 UNL     1       4.438 -10.571   1.551  1.00  0.00     0.274 HD
ATOM     16  H12 UNL     1       5.879 -10.031   1.344  1.00  0.00     0.274 HD
ATOM     17  H11 UNL     1       4.780  -9.812   0.086  1.00  0.00     0.274 HD
ENDBRANCH  13  14
ENDBRANCH  12  13
ENDBRANCH  10  12
ENDBRANCH   9  10
ENDBRANCH   8   9
ENDBRANCH   7   8
ENDBRANCH   1   7
BRANCH   2  18
HETATM   18  N3  UNL     1       2.111 -14.115   3.291  1.00  0.00    -0.074 N 
ATOM     19  H33 UNL     1       2.250 -14.867   2.615  1.00  0.00     0.274 HD
ATOM     20  H32 UNL     1       2.522 -14.545   4.120  1.00  0.00     0.274 HD
ATOM     21  H31 UNL     1       1.115 -13.949   3.436  1.00  0.00     0.274 HD
ENDBRANCH   2  18
BRANCH   6  22
HETATM   22  N5  UNL     1       3.475 -13.628   5.653  1.00  0.00    -0.071 N 
ATOM     23  H53 UNL     1       4.039 -14.141   6.332  1.00  0.00     0.274 HD
ATOM     24  H52 UNL     1       2.823 -13.180   6.296  1.00  0.00     0.274 HD
ATOM     25  H51 UNL     1       2.994 -14.262   5.014  1.00  0.00     0.274 HD
ENDBRANCH   6  22
BRANCH   5  26
HETATM   26  O1  UNL     1       4.768 -10.414   5.630  1.00  0.00    -0.391 OA
ATOM     27  H1  UNL     1       4.637 -10.170   6.539  1.00  0.00     0.210 HD
ENDBRANCH   5  26
BRANCH   4  28
HETATM   28  N4  UNL     1       2.220  -9.561   4.359  1.00  0.00    -0.072 N 
ATOM     29  H43 UNL     1       1.817  -9.051   3.573  1.00  0.00     0.274 HD
ATOM     30  H42 UNL     1       1.338  -9.856   4.779  1.00  0.00     0.274 HD
ATOM     31  H41 UNL     1       2.789  -8.979   4.974  1.00  0.00     0.274 HD
ENDBRANCH   4  28
TORSDOF 11
ENDMDL
MODEL 3
REMARK VINA RESULT: -5.620411102      2.643      4.712
REMARK  11 active torsions:
REMARK  status: ('A' for Active; 'I' for Inactive)
REMARK    1  A    between atoms: N1_1  and  C1_5 
REMARK    2  A    between atoms: C1_5  and  C2_6 
REMARK    3  A    between atoms: C2_6  and  N2_7 
REMARK    4  A    between atoms: N2_7  and  C3_9 
REMARK    5  A    between atoms: C3_9  and  C4_10 
REMARK    6  A    between atoms: C4_10  and  S1_11 
REMARK    7  A    between atoms: S1_11  and  C5_12 
REMARK    8  A    between atoms: C6_13  and  N3_14 
REMARK    9  A    between atoms: C8_19  and  N4_20 
REMARK   10  A    between atoms: C9_24  and  O1_25 
REMARK   11  A    between atoms: C10_27  and  N5_28 
ROOT
HETATM    1  C5  UNL     1       4.073 -12.685   3.315  1.00  0.00     0.110 C 
HETATM    2  C6  UNL     1       3.270 -13.874   2.839  1.00  0.00     0.201 C 
HETATM    3  C7  UNL     1       3.378 -13.971   1.346  1.00  0.00     0.069 C 
HETATM    4  C8  UNL     1       4.461 -13.073   0.762  1.00  0.00     0.216 C 
HETATM    5  C9  UNL     1       4.110 -11.636   1.056  1.00  0.00     0.180 C 
HETATM    6  C10 UNL     1       3.686 -11.447   2.499  1.00  0.00     0.229 C 
ENDROOT
BRANCH   1   7
HETATM    7  S1  UNL     1       3.945 -12.370   5.079  1.00  0.00    -0.158 SA
BRANCH   7   8
HETATM    8  C4  UNL     1       4.747 -13.596   6.091  1.00  0.00     0.094 C 
BRANCH   8   9
HETATM    9  C3  UNL     1       4.748 -14.933   5.334  1.00  0.00     0.129 C 
BRANCH   9  10
HETATM   10  N2  UNL     1       5.157 -16.002   6.183  1.00  0.00    -0.400 N 
ATOM     11  H2  UNL     1       5.268 -15.865   7.188  1.00  0.00     0.158 HD
BRANCH  10  12
HETATM   12  C2  UNL     1       5.400 -17.250   5.590  1.00  0.00     0.082 C 
BRANCH  12  13
HETATM   13  C1  UNL     1       4.441 -17.666   4.491  1.00  0.00     0.273 C 
BRANCH  13  14
HETATM   14  N1  UNL     1       5.131 -18.232   3.364  1.00  0.00    -0.075 N 
ATOM     15  H13 UNL     1       4.476 -18.620   2.684  1.00  0.00     0.274 HD
ATOM     16  H12 UNL     1       5.553 -17.507   2.784  1.00  0.00     0.274 HD
ATOM     17  H11 UNL     1       5.822 -18.927   3.651  1.00  0.00     0.274 HD
ENDBRANCH  13  14
ENDBRANCH  12  13
ENDBRANCH  10  12
ENDBRANCH   9  10
ENDBRANCH   8   9
ENDBRANCH   7   8
ENDBRANCH   1   7
BRANCH   2  18
HETATM   18  N3  UNL     1       1.893 -13.853   3.212  1.00  0.00    -0.074 N 
ATOM     19  H33 UNL     1       1.702 -14.581   3.901  1.00  0.00     0.274 HD
ATOM     20  H32 UNL     1       1.690 -13.024   3.771  1.00  0.00     0.274 HD
ATOM     21  H31 UNL     1       1.238 -13.923   2.433  1.00  0.00     0.274 HD
ENDBRANCH   2  18
BRANCH   6  22
HETATM   22  N5  UNL     1       2.257 -11.179   2.582  1.00  0.00    -0.071 N 
ATOM     23  H53 UNL     1       1.777 -11.882   3.146  1.00  0.00     0.274 HD
ATOM     24  H52 UNL     1       2.063 -10.358   3.155  1.00  0.00     0.274 HD
ATOM     25  H51 UNL     1       1.838 -11.095   1.656  1.00  0.00     0.274 HD
ENDBRANCH   6  22
BRANCH   5  26
HETATM   26  O1  UNL     1       5.164 -10.784   0.740  1.00  0.00    -0.391 OA
ATOM     27  H1  UNL     1       4.899  -9.874   0.798  1.00  0.00     0.210 HD
ENDBRANCH   5  26
BRANCH   4  28
HETATM   28  N4  UNL     1       4.421 -13.286  -0.684  1.00  0.00    -0.072 N 
ATOM     29  H43 UNL     1       4.017 -14.184  -0.953  1.00  0.00     0.274 HD
ATOM     30  H42 UNL     1       3.741 -12.697  -1.164  1.00  0.00     0.274 HD
ATOM     31  H41 UNL     1       5.378 -13.155  -1.012  1.00  0.00     0.274 HD
ENDBRANCH   4  28
TORSDOF 11
ENDMDL
MODEL 4
REMARK VINA RESULT: -5.601430830      2.412      4.062
REMARK  11 active torsions:
REMARK  status: ('A' for Active; 'I' for Inactive)
REMARK    1  A    between atoms: N1_1  and  C1_5 
REMARK    2  A    between atoms: C1_5  and  C2_6 
REMARK    3  A    between atoms: C2_6  and  N2_7 
REMARK    4  A    between atoms: N2_7  and  C3_9 
REMARK    5  A    between atoms: C3_9  and  C4_10 
REMARK    6  A    between atoms: C4_10  and  S1_11 
REMARK    7  A    between atoms: S1_11  and  C5_12 
REMARK    8  A    between atoms: C6_13  and  N3_14 
REMARK    9  A    between atoms: C8_19  and  N4_20 
REMARK   10  A    between atoms: C9_24  and  O1_25 
REMARK   11  A    between atoms: C10_27  and  N5_28 
ROOT
HETATM    1  C5  UNL     1       4.711 -13.767   1.095  1.00  0.00     0.110 C 
HETATM    2  C6  UNL     1       5.138 -12.361   0.739  1.00  0.00     0.201 C 
HETATM    3  C7  UNL     1       4.414 -11.392   1.627  1.00  0.00     0.069 C 
HETATM    4  C8  UNL     1       3.706 -12.061   2.797  1.00  0.00     0.216 C 
HETATM    5  C9  UNL     1       2.649 -12.991   2.256  1.00  0.00     0.180 C 
HETATM    6  C10 UNL     1       3.181 -13.845   1.123  1.00  0.00     0.229 C 
ENDROOT
BRANCH   1   7
HETATM    7  S1  UNL     1       5.410 -15.037   0.034  1.00  0.00    -0.158 SA
BRANCH   7   8
HETATM    8  C4  UNL     1       5.983 -16.475   0.914  1.00  0.00     0.094 C 
BRANCH   8   9
HETATM    9  C3  UNL     1       5.492 -16.390   2.367  1.00  0.00     0.129 C 
BRANCH   9  10
HETATM   10  N2  UNL     1       5.153 -17.680   2.870  1.00  0.00    -0.400 N 
ATOM     11  H2  UNL     1       5.128 -18.496   2.257  1.00  0.00     0.158 HD
BRANCH  10  12
HETATM   12  C2  UNL     1       4.854 -17.790   4.237  1.00  0.00     0.082 C 
BRANCH  12  13
HETATM   13  C1  UNL     1       4.628 -16.487   4.978  1.00  0.00     0.273 C 
BRANCH  13  14
HETATM   14  N1  UNL     1       5.326 -16.457   6.234  1.00  0.00    -0.075 N 
ATOM     15  H13 UNL     1       6.152 -17.056   6.214  1.00  0.00     0.274 HD
ATOM     16  H12 UNL     1       5.784 -15.558   6.382  1.00  0.00     0.274 HD
ATOM     17  H11 UNL     1       4.714 -16.696   7.015  1.00  0.00     0.274 HD
ENDBRANCH  13  14
ENDBRANCH  12  13
ENDBRANCH  10  12
ENDBRANCH   9  10
ENDBRANCH   8   9
ENDBRANCH   7   8
ENDBRANCH   1   7
BRANCH   2  18
HETATM   18  N3  UNL     1       4.928 -12.000  -0.625  1.00  0.00    -0.074 N 
ATOM     19  H33 UNL     1       5.230 -12.754  -1.241  1.00  0.00     0.274 HD
ATOM     20  H32 UNL     1       3.930 -11.986  -0.838  1.00  0.00     0.274 HD
ATOM     21  H31 UNL     1       5.360 -11.119  -0.905  1.00  0.00     0.274 HD
ENDBRANCH   2  18
BRANCH   6  22
HETATM   22  N5  UNL     1       2.603 -13.429  -0.147  1.00  0.00    -0.071 N 
ATOM     23  H53 UNL     1       3.209 -13.673  -0.931  1.00  0.00     0.274 HD
ATOM     24  H52 UNL     1       1.791 -13.996  -0.392  1.00  0.00     0.274 HD
ATOM     25  H51 UNL     1       2.376 -12.435  -0.146  1.00  0.00     0.274 HD
ENDBRANCH   6  22
BRANCH   5  26
HETATM   26  O1  UNL     1       2.116 -13.790   3.264  1.00  0.00    -0.391 OA
ATOM     27  H1  UNL     1       2.787 -14.330   3.665  1.00  0.00     0.210 HD
ENDBRANCH   5  26
BRANCH   4  28
HETATM   28  N4  UNL     1       3.055 -10.983   3.541  1.00  0.00    -0.072 N 
ATOM     29  H43 UNL     1       2.480 -10.374   2.957  1.00  0.00     0.274 HD
ATOM     30  H42 UNL     1       2.307 -11.305   4.155  1.00  0.00     0.274 HD
ATOM     31  H41 UNL     1       3.802 -10.491   4.031  1.00  0.00     0.274 HD
ENDBRANCH   4  28
TORSDOF 11
ENDMDL
MODEL 5
REMARK VINA RESULT: -5.546929360      2.425      3.734
REMARK  11 active torsions:
REMARK  status: ('A' for Active; 'I' for Inactive)
REMARK    1  A    between atoms: N1_1  and  C1_5 
REMARK    2  A    between atoms: C1_5  and  C2_6 
REMARK    3  A    between atoms: C2_6  and  N2_7 
REMARK    4  A    between atoms: N2_7  and  C3_9 
REMARK    5  A    between atoms: C3_9  and  C4_10 
REMARK    6  A    between atoms: C4_10  and  S1_11 
REMARK    7  A    between atoms: S1_11  and  C5_12 
REMARK    8  A    between atoms: C6_13  and  N3_14 
REMARK    9  A    between atoms: C8_19  and  N4_20 
REMARK   10  A    between atoms: C9_24  and  O1_25 
REMARK   11  A    between atoms: C10_27  and  N5_28 
ROOT
HETATM    1  C5  UNL     1       4.384 -13.269   2.858  1.00  0.00     0.110 C 
HETATM    2  C6  UNL     1       3.561 -12.188   2.194  1.00  0.00     0.201 C 
HETATM    3  C7  UNL     1       3.264 -11.114   3.199  1.00  0.00     0.069 C 
HETATM    4  C8  UNL     1       4.086 -11.240   4.475  1.00  0.00     0.216 C 
HETATM    5  C9  UNL     1       3.735 -12.543   5.150  1.00  0.00     0.180 C 
HETATM    6  C10 UNL     1       3.709 -13.695   4.166  1.00  0.00     0.229 C 
ENDROOT
BRANCH   1   7
HETATM    7  S1  UNL     1       4.721 -14.686   1.806  1.00  0.00    -0.158 SA
BRANCH   7   8
HETATM    8  C4  UNL     1       5.852 -15.861   2.521  1.00  0.00     0.094 C 
BRANCH   8   9
HETATM    9  C3  UNL     1       5.331 -17.278   2.239  1.00  0.00     0.129 C 
BRANCH   9  10
HETATM   10  N2  UNL     1       5.156 -18.010   3.449  1.00  0.00    -0.400 N 
ATOM     11  H2  UNL     1       5.457 -18.981   3.527  1.00  0.00     0.158 HD
BRANCH  10  12
HETATM   12  C2  UNL     1       4.555 -17.348   4.531  1.00  0.00     0.082 C 
BRANCH  12  13
HETATM   13  C1  UNL     1       5.377 -17.263   5.803  1.00  0.00     0.273 C 
BRANCH  13  14
HETATM   14  N1  UNL     1       5.224 -15.992   6.456  1.00  0.00    -0.075 N 
ATOM     15  H13 UNL     1       6.053 -15.409   6.331  1.00  0.00     0.274 HD
ATOM     16  H12 UNL     1       4.542 -15.407   5.972  1.00  0.00     0.274 HD
ATOM     17  H11 UNL     1       4.990 -16.097   7.443  1.00  0.00     0.274 HD
ENDBRANCH  13  14
ENDBRANCH  12  13
ENDBRANCH  10  12
ENDBRANCH   9  10
ENDBRANCH   8   9
ENDBRANCH   7   8
ENDBRANCH   1   7
BRANCH   2  18
HETATM   18  N3  UNL     1       2.339 -12.640   1.612  1.00  0.00    -0.074 N 
ATOM     19  H33 UNL     1       2.520 -13.402   0.959  1.00  0.00     0.274 HD
ATOM     20  H32 UNL     1       1.776 -13.131   2.306  1.00  0.00     0.274 HD
ATOM     21  H31 UNL     1       1.786 -11.911   1.160  1.00  0.00     0.274 HD
ENDBRANCH   2  18
BRANCH   6  22
HETATM   22  N5  UNL     1       2.342 -14.144   3.938  1.00  0.00    -0.071 N 
ATOM     23  H53 UNL     1       1.670 -13.395   4.107  1.00  0.00     0.274 HD
ATOM     24  H52 UNL     1       2.160 -14.299   2.947  1.00  0.00     0.274 HD
ATOM     25  H51 UNL     1       2.124 -14.973   4.492  1.00  0.00     0.274 HD
ENDBRANCH   6  22
BRANCH   5  26
HETATM   26  O1  UNL     1       4.604 -12.816   6.202  1.00  0.00    -0.391 OA
ATOM     27  H1  UNL     1       5.439 -13.138   5.883  1.00  0.00     0.210 HD
ENDBRANCH   5  26
BRANCH   4  28
HETATM   28  N4  UNL     1       3.667 -10.132   5.333  1.00  0.00    -0.072 N 
ATOM     29  H43 UNL     1       2.808 -10.319   5.850  1.00  0.00     0.274 HD
ATOM     30  H42 UNL     1       4.271  -9.993   6.143  1.00  0.00     0.274 HD
ATOM     31  H41 UNL     1       3.606  -9.316   4.724  1.00  0.00     0.274 HD
ENDBRANCH   4  28
TORSDOF 11
ENDMDL
