MODEL 1
REMARK VINA RESULT: -7.355090763      0.000      0.000
REMARK  7 active torsions:
REMARK  status: ('A' for Active; 'I' for Inactive)
REMARK    1  A    between atoms: N1_1  and  C1_4 
REMARK    2  A    between atoms: N3_8  and  C3_10 
REMARK    3  A    between atoms: C3_10  and  C4_11 
REMARK    4  A    between atoms: C4_11  and  O1_12 
REMARK    5  A    between atoms: N5_18  and  C7_19 
REMARK    6  A    between atoms: C7_19  and  C8_20 
REMARK    7  A    between atoms: C8_20  and  N6_21 
REMARK       I    between atoms: N6_21  and  C9_24 
REMARK       I    between atoms: C9_24  and  N7_25 
REMARK       I    between atoms: C9_24  and  N8_29 
ROOT
HETATM    1  C1  UNL     1       3.686 -11.082   4.394  1.00  0.00     0.679 A 
HETATM    2  N2  UNL     1       3.458 -10.916   3.083  1.00  0.00    -0.175 N 
ATOM      3  H2  UNL     1       3.185  -9.993   2.747  1.00  0.00     0.186 HD
HETATM    4  C2  UNL     1       3.577 -11.935   2.176  1.00  0.00     0.147 A 
HETATM    5  N3  UNL     1       3.347 -11.743   0.938  1.00  0.00    -0.372 N 
ATOM      6  H3  UNL     1       3.071 -10.810   0.632  1.00  0.00     0.161 HD
HETATM    7  C5  UNL     1       3.950 -13.177   2.674  1.00  0.00     0.123 A 
HETATM    8  N4  UNL     1       4.165 -14.383   2.117  1.00  0.00    -0.346 N 
ATOM      9  H4  UNL     1       4.075 -14.591   1.123  1.00  0.00     0.167 HD
HETATM   10  C6  UNL     1       4.516 -15.273   3.060  1.00  0.00     0.185 A 
HETATM   11  N5  UNL     1       4.523 -14.625   4.221  1.00  0.00    -0.325 N 
HETATM   12  C10 UNL     1       4.184 -13.351   4.018  1.00  0.00     0.155 A 
HETATM   13  N9  UNL     1       4.045 -12.280   4.864  1.00  0.00    -0.174 N 
ATOM     14  H9  UNL     1       4.218 -12.400   5.863  1.00  0.00     0.186 HD
ENDROOT
BRANCH  11  15
HETATM   15  C7  UNL     1       4.835 -15.196   5.532  1.00  0.00     0.159 C 
BRANCH  15  16
HETATM   16  C8  UNL     1       4.812 -16.673   5.357  1.00  0.00     0.257 C 
BRANCH  16  17
HETATM   17  N6  UNL     1       5.923 -17.359   5.895  1.00  0.00    -0.021 N 
HETATM   18  C9  UNL     1       6.501 -18.321   5.012  1.00  0.00     0.575 C 
HETATM   19  N7  UNL     1       5.471 -19.202   4.508  1.00  0.00    -0.026 N 
HETATM   20  N8  UNL     1       7.287 -17.777   3.978  1.00  0.00    -0.026 N 
ATOM     21  H73 UNL     1       4.940 -19.642   5.261  1.00  0.00     0.278 HD
ATOM     22  H72 UNL     1       4.707 -18.689   4.070  1.00  0.00     0.278 HD
ATOM     23  H71 UNL     1       5.884 -19.889   3.878  1.00  0.00     0.278 HD
ATOM     24  H83 UNL     1       6.749 -17.092   3.449  1.00  0.00     0.278 HD
ATOM     25  H82 UNL     1       8.012 -17.173   4.366  1.00  0.00     0.278 HD
ATOM     26  H81 UNL     1       7.700 -18.464   3.347  1.00  0.00     0.278 HD
ATOM     27  H62 UNL     1       6.630 -16.698   6.215  1.00  0.00     0.281 HD
ATOM     28  H61 UNL     1       5.677 -17.795   6.784  1.00  0.00     0.281 HD
ENDBRANCH  16  17
ENDBRANCH  15  16
ENDBRANCH  11  15
BRANCH   1  29
HETATM   29  N1  UNL     1       3.563 -10.083   5.223  1.00  0.00    -0.234 N 
ATOM     30  H12 UNL     1       3.055  -9.249   4.927  1.00  0.00     0.174 HD
ATOM     31  H11 UNL     1       3.966 -10.130   6.159  1.00  0.00     0.174 HD
ENDBRANCH   1  29
BRANCH   5  32
HETATM   32  C3  UNL     1       3.458 -12.776  -0.036  1.00  0.00     0.147 C 
BRANCH  32  33
HETATM   33  C4  UNL     1       4.807 -12.642  -0.776  1.00  0.00     0.183 C 
BRANCH  33  34
HETATM   34  O1  UNL     1       5.679 -13.631  -0.387  1.00  0.00    -0.399 OA
ATOM     35  H1  UNL     1       5.519 -14.432  -0.871  1.00  0.00     0.209 HD
ENDBRANCH  33  34
ENDBRANCH  32  33
ENDBRANCH   5  32
TORSDOF 7
ENDMDL
MODEL 2
REMARK VINA RESULT: -7.344420514      2.453      6.541
REMARK  7 active torsions:
REMARK  status: ('A' for Active; 'I' for Inactive)
REMARK    1  A    between atoms: N1_1  and  C1_4 
REMARK    2  A    between atoms: N3_8  and  C3_10 
REMARK    3  A    between atoms: C3_10  and  C4_11 
REMARK    4  A    between atoms: C4_11  and  O1_12 
REMARK    5  A    between atoms: N5_18  and  C7_19 
REMARK    6  A    between atoms: C7_19  and  C8_20 
REMARK    7  A    between atoms: C8_20  and  N6_21 
REMARK       I    between atoms: N6_21  and  C9_24 
REMARK       I    between atoms: C9_24  and  N7_25 
REMARK       I    between atoms: C9_24  and  N8_29 
ROOT
HETATM    1  C1  UNL     1       6.012 -16.327   0.438  1.00  0.00     0.679 A 
HETATM    2  N2  UNL     1       6.064 -17.332   1.325  1.00  0.00    -0.175 N 
ATOM      3  H2  UNL     1       6.548 -18.190   1.063  1.00  0.00     0.186 HD
HETATM    4  C2  UNL     1       5.495 -17.253   2.568  1.00  0.00     0.147 A 
HETATM    5  N3  UNL     1       5.558 -18.229   3.383  1.00  0.00    -0.372 N 
ATOM      6  H3  UNL     1       6.044 -19.077   3.092  1.00  0.00     0.161 HD
HETATM    7  C5  UNL     1       4.845 -16.067   2.885  1.00  0.00     0.123 A 
HETATM    8  N4  UNL     1       4.186 -15.621   3.971  1.00  0.00    -0.346 N 
ATOM      9  H4  UNL     1       4.048 -16.154   4.829  1.00  0.00     0.167 HD
HETATM   10  C6  UNL     1       3.737 -14.373   3.761  1.00  0.00     0.185 A 
HETATM   11  N5  UNL     1       4.115 -14.026   2.534  1.00  0.00    -0.325 N 
HETATM   12  C10 UNL     1       4.790 -15.034   1.978  1.00  0.00     0.155 A 
HETATM   13  N9  UNL     1       5.386 -15.189   0.752  1.00  0.00    -0.174 N 
ATOM     14  H9  UNL     1       5.351 -14.429   0.074  1.00  0.00     0.186 HD
ENDROOT
BRANCH  11  15
HETATM   15  C7  UNL     1       3.837 -12.754   1.866  1.00  0.00     0.159 C 
BRANCH  15  16
HETATM   16  C8  UNL     1       3.224 -11.872   2.895  1.00  0.00     0.257 C 
BRANCH  16  17
HETATM   17  N6  UNL     1       3.939 -10.687   3.174  1.00  0.00    -0.021 N 
HETATM   18  C9  UNL     1       3.521 -10.017   4.365  1.00  0.00     0.575 C 
HETATM   19  N7  UNL     1       2.087  -9.829   4.340  1.00  0.00    -0.026 N 
HETATM   20  N8  UNL     1       3.959 -10.612   5.564  1.00  0.00    -0.026 N 
ATOM     21  H73 UNL     1       1.778  -9.345   3.498  1.00  0.00     0.278 HD
ATOM     22  H72 UNL     1       1.587 -10.706   4.198  1.00  0.00     0.278 HD
ATOM     23  H71 UNL     1       1.789  -9.351   5.190  1.00  0.00     0.278 HD
ATOM     24  H83 UNL     1       3.679 -11.592   5.594  1.00  0.00     0.278 HD
ATOM     25  H82 UNL     1       4.974 -10.718   5.555  1.00  0.00     0.278 HD
ATOM     26  H81 UNL     1       3.660 -10.134   6.413  1.00  0.00     0.278 HD
ATOM     27  H62 UNL     1       4.942 -10.873   3.204  1.00  0.00     0.281 HD
ATOM     28  H61 UNL     1       3.904 -10.052   2.377  1.00  0.00     0.281 HD
ENDBRANCH  16  17
ENDBRANCH  15  16
ENDBRANCH  11  15
BRANCH   1  29
HETATM   29  N1  UNL     1       6.570 -16.444  -0.734  1.00  0.00    -0.234 N 
ATOM     30  H12 UNL     1       7.069 -17.304  -0.965  1.00  0.00     0.174 HD
ATOM     31  H11 UNL     1       6.511 -15.689  -1.418  1.00  0.00     0.174 HD
ENDBRANCH   1  29
BRANCH   5  32
HETATM   32  C3  UNL     1       4.978 -18.187   4.683  1.00  0.00     0.147 C 
BRANCH  32  33
HETATM   33  C4  UNL     1       6.065 -17.822   5.719  1.00  0.00     0.183 C 
BRANCH  33  34
HETATM   34  O1  UNL     1       5.665 -16.758   6.492  1.00  0.00    -0.399 OA
ATOM     35  H1  UNL     1       6.414 -16.325   6.885  1.00  0.00     0.209 HD
ENDBRANCH  33  34
ENDBRANCH  32  33
ENDBRANCH   5  32
TORSDOF 7
ENDMDL
MODEL 3
REMARK VINA RESULT: -7.200420349      1.864      5.796
REMARK  7 active torsions:
REMARK  status: ('A' for Active; 'I' for Inactive)
REMARK    1  A    between atoms: N1_1  and  C1_4 
REMARK    2  A    between atoms: N3_8  and  C3_10 
REMARK    3  A    between atoms: C3_10  and  C4_11 
REMARK    4  A    between atoms: C4_11  and  O1_12 
REMARK    5  A    between atoms: N5_18  and  C7_19 
REMARK    6  A    between atoms: C7_19  and  C8_20 
REMARK    7  A    between atoms: C8_20  and  N6_21 
REMARK       I    between atoms: N6_21  and  C9_24 
REMARK       I    between atoms: C9_24  and  N7_25 
REMARK       I    between atoms: C9_24  and  N8_29 
ROOT
HETATM    1  C1  UNL     1       5.470 -16.650   5.767  1.00  0.00     0.679 A 
HETATM    2  N2  UNL     1       5.900 -17.448   4.779  1.00  0.00    -0.175 N 
ATOM      3  H2  UNL     1       6.421 -18.290   5.023  1.00  0.00     0.186 HD
HETATM    4  C2  UNL     1       5.668 -17.180   3.456  1.00  0.00     0.147 A 
HETATM    5  N3  UNL     1       6.097 -17.957   2.544  1.00  0.00    -0.372 N 
ATOM      6  H3  UNL     1       6.620 -18.790   2.817  1.00  0.00     0.161 HD
HETATM    7  C5  UNL     1       4.955 -16.024   3.166  1.00  0.00     0.123 A 
HETATM    8  N4  UNL     1       4.542 -15.439   2.027  1.00  0.00    -0.346 N 
ATOM      9  H4  UNL     1       4.711 -15.803   1.090  1.00  0.00     0.167 HD
HETATM   10  C6  UNL     1       3.873 -14.308   2.302  1.00  0.00     0.185 A 
HETATM   11  N5  UNL     1       3.864 -14.176   3.625  1.00  0.00    -0.325 N 
HETATM   12  C10 UNL     1       4.513 -15.203   4.177  1.00  0.00     0.155 A 
HETATM   13  N9  UNL     1       4.784 -15.540   5.479  1.00  0.00    -0.174 N 
ATOM     14  H9  UNL     1       4.458 -14.937   6.235  1.00  0.00     0.186 HD
ENDROOT
BRANCH  11  15
HETATM   15  C7  UNL     1       3.258 -13.080   4.385  1.00  0.00     0.159 C 
BRANCH  15  16
HETATM   16  C8  UNL     1       2.839 -12.064   3.383  1.00  0.00     0.257 C 
BRANCH  16  17
HETATM   17  N6  UNL     1       3.692 -10.944   3.270  1.00  0.00    -0.021 N 
HETATM   18  C9  UNL     1       3.470  -9.936   4.258  1.00  0.00     0.575 C 
HETATM   19  N7  UNL     1       2.066  -9.588   4.292  1.00  0.00    -0.026 N 
HETATM   20  N8  UNL     1       3.972 -10.241   5.537  1.00  0.00    -0.026 N 
ATOM     21  H73 UNL     1       1.717  -9.310   3.374  1.00  0.00     0.278 HD
ATOM     22  H72 UNL     1       1.471 -10.404   4.434  1.00  0.00     0.278 HD
ATOM     23  H71 UNL     1       1.907  -8.869   4.997  1.00  0.00     0.278 HD
ATOM     24  H83 UNL     1       3.604 -11.136   5.858  1.00  0.00     0.278 HD
ATOM     25  H82 UNL     1       4.965 -10.468   5.481  1.00  0.00     0.278 HD
ATOM     26  H81 UNL     1       3.814  -9.522   6.243  1.00  0.00     0.278 HD
ATOM     27  H62 UNL     1       4.669 -11.237   3.273  1.00  0.00     0.281 HD
ATOM     28  H61 UNL     1       3.633 -10.544   2.334  1.00  0.00     0.281 HD
ENDBRANCH  16  17
ENDBRANCH  15  16
ENDBRANCH  11  15
BRANCH   1  29
HETATM   29  N1  UNL     1       5.710 -16.944   7.014  1.00  0.00    -0.234 N 
ATOM     30  H12 UNL     1       4.978 -16.796   7.710  1.00  0.00     0.174 HD
ATOM     31  H11 UNL     1       6.615 -17.320   7.297  1.00  0.00     0.174 HD
ENDBRANCH   1  29
BRANCH   5  32
HETATM   32  C3  UNL     1       5.879 -17.714   1.158  1.00  0.00     0.147 C 
BRANCH  32  33
HETATM   33  C4  UNL     1       7.234 -17.450   0.463  1.00  0.00     0.183 C 
BRANCH  33  34
HETATM   34  O1  UNL     1       7.057 -16.726  -0.693  1.00  0.00    -0.399 OA
ATOM     35  H1  UNL     1       7.270 -15.811  -0.554  1.00  0.00     0.209 HD
ENDBRANCH  33  34
ENDBRANCH  32  33
ENDBRANCH   5  32
TORSDOF 7
ENDMDL
MODEL 4
REMARK VINA RESULT: -7.187917342      2.264      3.904
REMARK  7 active torsions:
REMARK  status: ('A' for Active; 'I' for Inactive)
REMARK    1  A    between atoms: N1_1  and  C1_4 
REMARK    2  A    between atoms: N3_8  and  C3_10 
REMARK    3  A    between atoms: C3_10  and  C4_11 
REMARK    4  A    between atoms: C4_11  and  O1_12 
REMARK    5  A    between atoms: N5_18  and  C7_19 
REMARK    6  A    between atoms: C7_19  and  C8_20 
REMARK    7  A    between atoms: C8_20  and  N6_21 
REMARK       I    between atoms: N6_21  and  C9_24 
REMARK       I    between atoms: C9_24  and  N7_25 
REMARK       I    between atoms: C9_24  and  N8_29 
ROOT
HETATM    1  C1  UNL     1       2.646 -13.120   0.033  1.00  0.00     0.679 A 
HETATM    2  N2  UNL     1       2.423 -12.149   0.931  1.00  0.00    -0.175 N 
ATOM      3  H2  UNL     1       1.771 -11.403   0.692  1.00  0.00     0.186 HD
HETATM    4  C2  UNL     1       3.036 -12.118   2.155  1.00  0.00     0.147 A 
HETATM    5  N3  UNL     1       2.805 -11.177   2.981  1.00  0.00    -0.372 N 
ATOM      6  H3  UNL     1       2.151 -10.441   2.713  1.00  0.00     0.161 HD
HETATM    7  C5  UNL     1       3.917 -13.152   2.441  1.00  0.00     0.123 A 
HETATM    8  N4  UNL     1       4.685 -13.462   3.502  1.00  0.00    -0.346 N 
ATOM      9  H4  UNL     1       4.742 -12.915   4.360  1.00  0.00     0.167 HD
HETATM   10  C6  UNL     1       5.366 -14.595   3.267  1.00  0.00     0.185 A 
HETATM   11  N5  UNL     1       5.026 -15.006   2.048  1.00  0.00    -0.325 N 
HETATM   12  C10 UNL     1       4.148 -14.150   1.523  1.00  0.00     0.155 A 
HETATM   13  N9  UNL     1       3.495 -14.112   0.317  1.00  0.00    -0.174 N 
ATOM     14  H9  UNL     1       3.659 -14.848  -0.370  1.00  0.00     0.186 HD
ENDROOT
BRANCH  11  15
HETATM   15  C7  UNL     1       5.531 -16.195   1.360  1.00  0.00     0.159 C 
BRANCH  15  16
HETATM   16  C8  UNL     1       6.388 -16.910   2.343  1.00  0.00     0.257 C 
BRANCH  16  17
HETATM   17  N6  UNL     1       6.003 -18.240   2.621  1.00  0.00    -0.021 N 
HETATM   18  C9  UNL     1       5.679 -18.481   3.991  1.00  0.00     0.575 C 
HETATM   19  N7  UNL     1       6.751 -18.005   4.837  1.00  0.00    -0.026 N 
HETATM   20  N8  UNL     1       4.423 -17.990   4.398  1.00  0.00    -0.026 N 
ATOM     21  H73 UNL     1       7.652 -18.408   4.579  1.00  0.00     0.278 HD
ATOM     22  H72 UNL     1       6.973 -17.025   4.662  1.00  0.00     0.278 HD
ATOM     23  H71 UNL     1       6.519 -18.177   5.815  1.00  0.00     0.278 HD
ATOM     24  H83 UNL     1       4.349 -16.995   4.188  1.00  0.00     0.278 HD
ATOM     25  H82 UNL     1       3.689 -18.354   3.791  1.00  0.00     0.278 HD
ATOM     26  H81 UNL     1       4.192 -18.162   5.376  1.00  0.00     0.278 HD
ATOM     27  H62 UNL     1       5.232 -18.522   2.017  1.00  0.00     0.281 HD
ATOM     28  H61 UNL     1       6.720 -18.892   2.305  1.00  0.00     0.281 HD
ENDBRANCH  16  17
ENDBRANCH  15  16
ENDBRANCH  11  15
BRANCH   1  29
HETATM   29  N1  UNL     1       2.039 -13.113  -1.121  1.00  0.00    -0.234 N 
ATOM     30  H12 UNL     1       1.389 -13.866  -1.347  1.00  0.00     0.174 HD
ATOM     31  H11 UNL     1       2.206 -12.364  -1.793  1.00  0.00     0.174 HD
ENDBRANCH   1  29
BRANCH   5  32
HETATM   32  C3  UNL     1       3.422 -11.107   4.262  1.00  0.00     0.147 C 
BRANCH  32  33
HETATM   33  C4  UNL     1       3.408  -9.645   4.761  1.00  0.00     0.183 C 
BRANCH  33  34
HETATM   34  O1  UNL     1       2.172  -9.074   4.568  1.00  0.00    -0.399 OA
ATOM     35  H1  UNL     1       2.094  -8.263   5.056  1.00  0.00     0.209 HD
ENDBRANCH  33  34
ENDBRANCH  32  33
ENDBRANCH   5  32
TORSDOF 7
ENDMDL
MODEL 5
REMARK VINA RESULT: -7.106418554      2.658      4.187
REMARK  7 active torsions:
REMARK  status: ('A' for Active; 'I' for Inactive)
REMARK    1  A    between atoms: N1_1  and  C1_4 
REMARK    2  A    between atoms: N3_8  and  C3_10 
REMARK    3  A    between atoms: C3_10  and  C4_11 
REMARK    4  A    between atoms: C4_11  and  O1_12 
REMARK    5  A    between atoms: N5_18  and  C7_19 
REMARK    6  A    between atoms: C7_19  and  C8_20 
REMARK    7  A    between atoms: C8_20  and  N6_21 
REMARK       I    between atoms: N6_21  and  C9_24 
REMARK       I    between atoms: C9_24  and  N7_25 
REMARK       I    between atoms: C9_24  and  N8_29 
ROOT
HETATM    1  C1  UNL     1       2.468 -12.942  -0.086  1.00  0.00     0.679 A 
HETATM    2  N2  UNL     1       2.240 -12.050   0.888  1.00  0.00    -0.175 N 
ATOM      3  H2  UNL     1       1.528 -11.336   0.740  1.00  0.00     0.186 HD
HETATM    4  C2  UNL     1       2.923 -12.059   2.075  1.00  0.00     0.147 A 
HETATM    5  N3  UNL     1       2.685 -11.191   2.976  1.00  0.00    -0.372 N 
ATOM      6  H3  UNL     1       1.970 -10.486   2.798  1.00  0.00     0.161 HD
HETATM    7  C5  UNL     1       3.884 -13.048   2.238  1.00  0.00     0.123 A 
HETATM    8  N4  UNL     1       4.734 -13.375   3.229  1.00  0.00    -0.346 N 
ATOM      9  H4  UNL     1       4.808 -12.883   4.119  1.00  0.00     0.167 HD
HETATM   10  C6  UNL     1       5.469 -14.441   2.877  1.00  0.00     0.185 A 
HETATM   11  N5  UNL     1       5.082 -14.792   1.654  1.00  0.00    -0.325 N 
HETATM   12  C10 UNL     1       4.120 -13.965   1.241  1.00  0.00     0.155 A 
HETATM   13  N9  UNL     1       3.394 -13.891   0.079  1.00  0.00    -0.174 N 
ATOM     14  H9  UNL     1       3.563 -14.568  -0.666  1.00  0.00     0.186 HD
ENDROOT
BRANCH  11  15
HETATM   15  C7  UNL     1       5.618 -15.897   0.857  1.00  0.00     0.159 C 
BRANCH  15  16
HETATM   16  C8  UNL     1       6.276 -16.821   1.819  1.00  0.00     0.257 C 
BRANCH  16  17
HETATM   17  N6  UNL     1       7.096 -17.811   1.236  1.00  0.00    -0.021 N 
HETATM   18  C9  UNL     1       6.625 -19.147   1.423  1.00  0.00     0.575 C 
HETATM   19  N7  UNL     1       6.357 -19.377   2.825  1.00  0.00    -0.026 N 
HETATM   20  N8  UNL     1       5.537 -19.511   0.607  1.00  0.00    -0.026 N 
ATOM     21  H73 UNL     1       7.166 -19.170   3.410  1.00  0.00     0.278 HD
ATOM     22  H72 UNL     1       5.715 -18.686   3.212  1.00  0.00     0.278 HD
ATOM     23  H71 UNL     1       6.021 -20.330   2.959  1.00  0.00     0.278 HD
ATOM     24  H83 UNL     1       4.771 -18.847   0.724  1.00  0.00     0.278 HD
ATOM     25  H82 UNL     1       5.763 -19.350  -0.375  1.00  0.00     0.278 HD
ATOM     26  H81 UNL     1       5.201 -20.464   0.741  1.00  0.00     0.278 HD
ATOM     27  H62 UNL     1       7.238 -17.619   0.244  1.00  0.00     0.281 HD
ATOM     28  H61 UNL     1       8.056 -17.722   1.569  1.00  0.00     0.281 HD
ENDBRANCH  16  17
ENDBRANCH  15  16
ENDBRANCH  11  15
BRANCH   1  29
HETATM   29  N1  UNL     1       1.792 -12.900  -1.201  1.00  0.00    -0.234 N 
ATOM     30  H12 UNL     1       1.885 -12.085  -1.809  1.00  0.00     0.174 HD
ATOM     31  H11 UNL     1       1.179 -13.669  -1.469  1.00  0.00     0.174 HD
ENDBRANCH   1  29
BRANCH   5  32
HETATM   32  C3  UNL     1       3.373 -11.165   4.222  1.00  0.00     0.147 C 
BRANCH  32  33
HETATM   33  C4  UNL     1       3.369  -9.725   4.782  1.00  0.00     0.183 C 
BRANCH  33  34
HETATM   34  O1  UNL     1       2.164  -9.109   4.540  1.00  0.00    -0.399 OA
ATOM     35  H1  UNL     1       1.459  -9.556   4.994  1.00  0.00     0.209 HD
ENDBRANCH  33  34
ENDBRANCH  32  33
ENDBRANCH   5  32
TORSDOF 7
ENDMDL
