MODEL 1
REMARK VINA RESULT: -6.962413712      0.000      0.000
REMARK  9 active torsions:
REMARK  status: ('A' for Active; 'I' for Inactive)
REMARK    1  A    between atoms: N1_1  and  C1_5 
REMARK    2  A    between atoms: C1_5  and  O1_6 
REMARK    3  A    between atoms: C1_5  and  C2_8 
REMARK    4  A    between atoms: C2_8  and  N2_9 
REMARK    5  A    between atoms: C3_16  and  N6_17 
REMARK    6  A    between atoms: C6_21  and  C7_22 
REMARK       I    between atoms: C7_22  and  N7_24 
REMARK    7  A    between atoms: N7_24  and  C8_26 
REMARK    8  A    between atoms: C8_26  and  C9_27 
REMARK    9  A    between atoms: C15_42  and  C16_43 
ROOT
HETATM    1  N6  UNL     1      38.829  53.577   0.655  1.00  0.00    -0.174 N 
ATOM      2  H6  UNL     1      39.426  54.259   0.188  1.00  0.00     0.186 HD
HETATM    3  C4  UNL     1      37.860  52.994   0.010  1.00  0.00     0.124 A 
HETATM    4  C5  UNL     1      37.040  52.067   0.629  1.00  0.00     0.084 A 
HETATM    5  C6  UNL     1      36.010  51.442  -0.046  1.00  0.00     0.105 A 
HETATM    6  N11 UNL     1      35.877  51.813  -1.342  1.00  0.00    -0.341 N 
ATOM      7  H11 UNL     1      35.125  51.373  -1.876  1.00  0.00     0.167 HD
HETATM    8  C15 UNL     1      36.631  52.691  -1.979  1.00  0.00     0.090 A 
HETATM    9  N13 UNL     1      37.624  53.278  -1.289  1.00  0.00    -0.331 N 
ATOM     10  H13 UNL     1      38.218  53.959  -1.761  1.00  0.00     0.168 HD
ENDROOT
BRANCH   1  11
HETATM   11  C3  UNL     1      39.039  53.246   2.023  1.00  0.00     0.717 A 
HETATM   12  N2  UNL     1      38.727  54.006   3.107  1.00  0.00    -0.102 N 
HETATM   13  N3  UNL     1      39.079  53.345   4.195  1.00  0.00    -0.211 N 
HETATM   14  N4  UNL     1      39.603  52.196   3.826  1.00  0.00    -0.213 N 
ATOM     15  H3  UNL     1      38.964  53.668   5.155  1.00  0.00     0.210 HD
HETATM   16  N5  UNL     1      39.583  52.126   2.521  1.00  0.00    -0.115 N 
ATOM     17  H4  UNL     1      39.964  51.479   4.454  1.00  0.00     0.210 HD
ATOM     18  H5  UNL     1      39.928  51.342   1.968  1.00  0.00     0.207 HD
BRANCH  12  19
HETATM   19  C2  UNL     1      38.105  55.326   3.047  1.00  0.00     0.230 C 
BRANCH  19  20
HETATM   20  C1  UNL     1      38.019  55.879   4.476  1.00  0.00     0.336 C 
BRANCH  20  21
HETATM   21  N1  UNL     1      38.243  57.295   4.493  1.00  0.00    -0.051 N 
ATOM     22  H13 UNL     1      38.016  57.715   3.592  1.00  0.00     0.277 HD
ATOM     23  H12 UNL     1      37.551  57.769   5.073  1.00  0.00     0.277 HD
ATOM     24  H11 UNL     1      39.192  57.534   4.781  1.00  0.00     0.277 HD
ENDBRANCH  20  21
BRANCH  20  25
HETATM   25  O1  UNL     1      36.801  55.532   5.037  1.00  0.00    -0.369 OA
ATOM     26  H1  UNL     1      36.167  55.260   4.384  1.00  0.00     0.212 HD
ENDBRANCH  20  25
ENDBRANCH  19  20
ENDBRANCH  12  19
ENDBRANCH   1  11
BRANCH   5  27
HETATM   27  C7  UNL     1      35.128  50.467   0.562  1.00  0.00     0.268 C 
HETATM   28  O2  UNL     1      35.337  50.122   1.748  1.00  0.00    -0.266 OA
HETATM   29  N7  UNL     1      34.051  49.900  -0.137  1.00  0.00    -0.351 N 
ATOM     30  H7  UNL     1      33.901  50.206  -1.098  1.00  0.00     0.163 HD
BRANCH  29  31
HETATM   31  C8  UNL     1      33.147  48.925   0.395  1.00  0.00     0.165 C 
BRANCH  31  32
HETATM   32  C9  UNL     1      32.941  47.715  -0.380  1.00  0.00     0.004 A 
HETATM   33  C10 UNL     1      32.552  47.701  -1.692  1.00  0.00     0.102 A 
HETATM   34  N8  UNL     1      32.376  46.501  -2.282  1.00  0.00    -0.331 N 
HETATM   35  C11 UNL     1      32.557  45.324  -1.661  1.00  0.00     0.274 A 
ATOM     36  H8  UNL     1      32.087  46.486  -3.261  1.00  0.00     0.168 HD
HETATM   37  O3  UNL     1      32.384  44.224  -2.241  1.00  0.00    -0.266 OA
HETATM   38  C12 UNL     1      32.947  45.298  -0.341  1.00  0.00     0.129 A 
HETATM   39  N9  UNL     1      33.198  44.292   0.516  1.00  0.00    -0.346 N 
HETATM   40  C14 UNL     1      33.137  46.504   0.294  1.00  0.00     0.075 A 
HETATM   41  C13 UNL     1      33.549  44.849   1.701  1.00  0.00     0.181 A 
ATOM     42  H9  UNL     1      33.137  43.294   0.312  1.00  0.00     0.167 HD
HETATM   43  N10 UNL     1      33.508  46.191   1.551  1.00  0.00    -0.350 N 
ATOM     44  H10 UNL     1      33.725  46.868   2.283  1.00  0.00     0.166 HD
ENDBRANCH  31  32
ENDBRANCH  29  31
ENDBRANCH   5  27
BRANCH   8  45
HETATM   45  C16 UNL     1      36.429  53.044  -3.384  1.00  0.00     0.104 C 
HETATM   46  C17 UNL     1      37.002  54.378  -3.811  1.00  0.00     0.246 C 
HETATM   47  N12 UNL     1      37.319  53.747  -5.101  1.00  0.00    -0.073 N 
HETATM   48  C18 UNL     1      37.452  52.494  -4.354  1.00  0.00     0.246 C 
ATOM     49 2H12 UNL     1      36.693  53.826  -5.902  1.00  0.00     0.277 HD
ATOM     50 1H12 UNL     1      38.072  54.096  -5.696  1.00  0.00     0.277 HD
ENDBRANCH   8  45
TORSDOF 9
ENDMDL
MODEL 2
REMARK VINA RESULT: -6.891255959      2.431      3.317
REMARK  9 active torsions:
REMARK  status: ('A' for Active; 'I' for Inactive)
REMARK    1  A    between atoms: N1_1  and  C1_5 
REMARK    2  A    between atoms: C1_5  and  O1_6 
REMARK    3  A    between atoms: C1_5  and  C2_8 
REMARK    4  A    between atoms: C2_8  and  N2_9 
REMARK    5  A    between atoms: C3_16  and  N6_17 
REMARK    6  A    between atoms: C6_21  and  C7_22 
REMARK       I    between atoms: C7_22  and  N7_24 
REMARK    7  A    between atoms: N7_24  and  C8_26 
REMARK    8  A    between atoms: C8_26  and  C9_27 
REMARK    9  A    between atoms: C15_42  and  C16_43 
ROOT
HETATM    1  N6  UNL     1      36.382  54.046  -1.735  1.00  0.00    -0.174 N 
ATOM      2  H6  UNL     1      36.932  54.707  -2.284  1.00  0.00     0.186 HD
HETATM    3  C4  UNL     1      35.746  53.070  -2.317  1.00  0.00     0.124 A 
HETATM    4  C5  UNL     1      34.994  52.166  -1.587  1.00  0.00     0.084 A 
HETATM    5  C6  UNL     1      34.316  51.127  -2.193  1.00  0.00     0.105 A 
HETATM    6  N11 UNL     1      34.449  51.076  -3.541  1.00  0.00    -0.341 N 
ATOM      7  H11 UNL     1      33.962  50.322  -4.026  1.00  0.00     0.167 HD
HETATM    8  C15 UNL     1      35.152  51.913  -4.283  1.00  0.00     0.090 A 
HETATM    9  N13 UNL     1      35.799  52.911  -3.656  1.00  0.00    -0.331 N 
ATOM     10  H13 UNL     1      36.348  53.568  -4.211  1.00  0.00     0.168 HD
ENDROOT
BRANCH   1  11
HETATM   11  C3  UNL     1      36.296  54.174  -0.321  1.00  0.00     0.717 A 
HETATM   12  N2  UNL     1      37.156  53.664   0.602  1.00  0.00    -0.102 N 
HETATM   13  N3  UNL     1      36.728  54.004   1.804  1.00  0.00    -0.211 N 
HETATM   14  N4  UNL     1      35.628  54.710   1.663  1.00  0.00    -0.213 N 
ATOM     15  H3  UNL     1      37.175  53.762   2.688  1.00  0.00     0.210 HD
HETATM   16  N5  UNL     1      35.359  54.819   0.389  1.00  0.00    -0.115 N 
ATOM     17  H4  UNL     1      35.075  55.107   2.423  1.00  0.00     0.210 HD
ATOM     18  H5  UNL     1      34.560  55.316  -0.004  1.00  0.00     0.207 HD
BRANCH  12  19
HETATM   19  C2  UNL     1      38.346  52.877   0.285  1.00  0.00     0.230 C 
BRANCH  19  20
HETATM   20  C1  UNL     1      39.530  53.469   1.061  1.00  0.00     0.336 C 
BRANCH  20  21
HETATM   21  N1  UNL     1      39.959  52.580   2.100  1.00  0.00    -0.051 N 
ATOM     22  H13 UNL     1      40.975  52.572   2.182  1.00  0.00     0.277 HD
ATOM     23  H12 UNL     1      39.724  52.950   3.020  1.00  0.00     0.277 HD
ATOM     24  H11 UNL     1      39.593  51.635   1.977  1.00  0.00     0.277 HD
ENDBRANCH  20  21
BRANCH  20  25
HETATM   25  O1  UNL     1      40.554  53.782   0.181  1.00  0.00    -0.369 OA
ATOM     26  H1  UNL     1      41.243  53.129   0.183  1.00  0.00     0.212 HD
ENDBRANCH  20  25
ENDBRANCH  19  20
ENDBRANCH  12  19
ENDBRANCH   1  11
BRANCH   5  27
HETATM   27  C7  UNL     1      33.519  50.159  -1.469  1.00  0.00     0.268 C 
HETATM   28  O2  UNL     1      33.749  49.979  -0.250  1.00  0.00    -0.266 OA
HETATM   29  N7  UNL     1      32.501  49.419  -2.090  1.00  0.00    -0.351 N 
ATOM     30  H7  UNL     1      32.331  49.593  -3.081  1.00  0.00     0.163 HD
BRANCH  29  31
HETATM   31  C8  UNL     1      31.682  48.440  -1.441  1.00  0.00     0.165 C 
BRANCH  31  32
HETATM   32  C9  UNL     1      32.121  47.058  -1.503  1.00  0.00     0.004 A 
HETATM   33  C10 UNL     1      31.890  46.226  -2.565  1.00  0.00     0.102 A 
HETATM   34  N8  UNL     1      32.336  44.956  -2.477  1.00  0.00    -0.331 N 
HETATM   35  C11 UNL     1      32.988  44.461  -1.412  1.00  0.00     0.274 A 
ATOM     36  H8  UNL     1      32.168  44.333  -3.267  1.00  0.00     0.168 HD
HETATM   37  O3  UNL     1      33.389  43.272  -1.363  1.00  0.00    -0.266 OA
HETATM   38  C12 UNL     1      33.237  45.266  -0.324  1.00  0.00     0.129 A 
HETATM   39  N9  UNL     1      33.852  45.047   0.852  1.00  0.00    -0.346 N 
HETATM   40  C14 UNL     1      32.796  46.570  -0.379  1.00  0.00     0.075 A 
HETATM   41  C13 UNL     1      33.808  46.207   1.553  1.00  0.00     0.181 A 
ATOM     42  H9  UNL     1      34.274  44.170   1.159  1.00  0.00     0.167 HD
HETATM   43  N10 UNL     1      33.166  47.121   0.794  1.00  0.00    -0.350 N 
ATOM     44  H10 UNL     1      32.986  48.086   1.069  1.00  0.00     0.166 HD
ENDBRANCH  31  32
ENDBRANCH  29  31
ENDBRANCH   5  27
BRANCH   8  45
HETATM   45  C16 UNL     1      35.251  51.796  -5.738  1.00  0.00     0.104 C 
HETATM   46  C17 UNL     1      34.915  50.435  -6.309  1.00  0.00     0.246 C 
HETATM   47  N12 UNL     1      34.322  51.143  -7.454  1.00  0.00    -0.073 N 
HETATM   48  C18 UNL     1      34.028  52.229  -6.517  1.00  0.00     0.246 C 
ATOM     49 2H12 UNL     1      34.850  51.307  -8.311  1.00  0.00     0.277 HD
ATOM     50 1H12 UNL     1      33.591  50.717  -8.024  1.00  0.00     0.277 HD
ENDBRANCH   8  45
TORSDOF 9
ENDMDL
MODEL 3
REMARK VINA RESULT: -6.877529453      2.656      9.296
REMARK  9 active torsions:
REMARK  status: ('A' for Active; 'I' for Inactive)
REMARK    1  A    between atoms: N1_1  and  C1_5 
REMARK    2  A    between atoms: C1_5  and  O1_6 
REMARK    3  A    between atoms: C1_5  and  C2_8 
REMARK    4  A    between atoms: C2_8  and  N2_9 
REMARK    5  A    between atoms: C3_16  and  N6_17 
REMARK    6  A    between atoms: C6_21  and  C7_22 
REMARK       I    between atoms: C7_22  and  N7_24 
REMARK    7  A    between atoms: N7_24  and  C8_26 
REMARK    8  A    between atoms: C8_26  and  C9_27 
REMARK    9  A    between atoms: C15_42  and  C16_43 
ROOT
HETATM    1  N6  UNL     1      32.787  45.165   0.635  1.00  0.00    -0.174 N 
ATOM      2  H6  UNL     1      32.321  44.542  -0.025  1.00  0.00     0.186 HD
HETATM    3  C4  UNL     1      33.008  46.410   0.326  1.00  0.00     0.124 A 
HETATM    4  C5  UNL     1      33.639  47.269   1.210  1.00  0.00     0.084 A 
HETATM    5  C6  UNL     1      33.877  48.591   0.893  1.00  0.00     0.105 A 
HETATM    6  N11 UNL     1      33.448  48.965  -0.337  1.00  0.00    -0.341 N 
ATOM      7  H11 UNL     1      33.606  49.936  -0.608  1.00  0.00     0.167 HD
HETATM    8  C15 UNL     1      32.842  48.186  -1.215  1.00  0.00     0.090 A 
HETATM    9  N13 UNL     1      32.627  46.904  -0.871  1.00  0.00    -0.331 N 
ATOM     10  H13 UNL     1      32.161  46.287  -1.535  1.00  0.00     0.168 HD
ENDROOT
BRANCH   1  11
HETATM   11  C3  UNL     1      33.206  44.689   1.909  1.00  0.00     0.717 A 
HETATM   12  N2  UNL     1      32.418  44.177   2.892  1.00  0.00    -0.102 N 
HETATM   13  N3  UNL     1      33.187  43.850   3.915  1.00  0.00    -0.211 N 
HETATM   14  N4  UNL     1      34.431  44.141   3.603  1.00  0.00    -0.213 N 
ATOM     15  H3  UNL     1      32.871  43.441   4.794  1.00  0.00     0.210 HD
HETATM   16  N5  UNL     1      34.454  44.647   2.398  1.00  0.00    -0.115 N 
ATOM     17  H4  UNL     1      35.243  43.998   4.203  1.00  0.00     0.210 HD
ATOM     18  H5  UNL     1      35.291  44.960   1.906  1.00  0.00     0.207 HD
BRANCH  12  19
HETATM   19  C2  UNL     1      30.968  44.025   2.802  1.00  0.00     0.230 C 
BRANCH  19  20
HETATM   20  C1  UNL     1      30.663  42.575   2.403  1.00  0.00     0.336 C 
BRANCH  20  21
HETATM   21  N1  UNL     1      30.458  42.464   0.989  1.00  0.00    -0.051 N 
ATOM     22  H13 UNL     1      29.605  42.943   0.701  1.00  0.00     0.277 HD
ATOM     23  H12 UNL     1      31.140  43.020   0.473  1.00  0.00     0.277 HD
ATOM     24  H11 UNL     1      30.459  41.494   0.672  1.00  0.00     0.277 HD
ENDBRANCH  20  21
BRANCH  20  25
HETATM   25  O1  UNL     1      31.678  41.745   2.854  1.00  0.00    -0.369 OA
ATOM     26  H1  UNL     1      31.732  41.725   3.802  1.00  0.00     0.212 HD
ENDBRANCH  20  25
ENDBRANCH  19  20
ENDBRANCH  12  19
ENDBRANCH   1  11
BRANCH   5  27
HETATM   27  C7  UNL     1      34.534  49.524   1.787  1.00  0.00     0.268 C 
HETATM   28  O2  UNL     1      34.638  49.226   2.999  1.00  0.00    -0.266 OA
HETATM   29  N7  UNL     1      35.054  50.747   1.334  1.00  0.00    -0.351 N 
ATOM     30  H7  UNL     1      34.962  50.958   0.341  1.00  0.00     0.163 HD
BRANCH  29  31
HETATM   31  C8  UNL     1      35.705  51.719   2.159  1.00  0.00     0.165 C 
BRANCH  31  32
HETATM   32  C9  UNL     1      36.952  52.280   1.671  1.00  0.00     0.004 A 
HETATM   33  C10 UNL     1      37.262  52.421   0.345  1.00  0.00     0.102 A 
HETATM   34  N8  UNL     1      38.469  52.937   0.034  1.00  0.00    -0.331 N 
HETATM   35  C11 UNL     1      39.380  53.317   0.943  1.00  0.00     0.274 A 
ATOM     36  H8  UNL     1      38.703  53.046  -0.953  1.00  0.00     0.168 HD
HETATM   37  O3  UNL     1      40.496  53.795   0.619  1.00  0.00    -0.266 OA
HETATM   38  C12 UNL     1      39.105  53.190   2.286  1.00  0.00     0.129 A 
HETATM   39  N9  UNL     1      39.811  53.481   3.394  1.00  0.00    -0.346 N 
HETATM   40  C14 UNL     1      37.882  52.667   2.641  1.00  0.00     0.075 A 
HETATM   41  C13 UNL     1      39.044  53.145   4.460  1.00  0.00     0.181 A 
ATOM     42  H9  UNL     1      40.749  53.880   3.426  1.00  0.00     0.167 HD
HETATM   43  N10 UNL     1      37.878  52.653   3.989  1.00  0.00    -0.350 N 
ATOM     44  H10 UNL     1      37.107  52.320   4.568  1.00  0.00     0.166 HD
ENDBRANCH  31  32
ENDBRANCH  29  31
ENDBRANCH   5  27
BRANCH   8  45
HETATM   45  C16 UNL     1      32.405  48.658  -2.529  1.00  0.00     0.104 C 
HETATM   46  C17 UNL     1      33.381  49.554  -3.260  1.00  0.00     0.246 C 
HETATM   47  N12 UNL     1      32.931  48.909  -4.503  1.00  0.00    -0.073 N 
HETATM   48  C18 UNL     1      32.672  47.720  -3.687  1.00  0.00     0.246 C 
ATOM     49 2H12 UNL     1      32.205  49.324  -5.086  1.00  0.00     0.277 HD
ATOM     50 1H12 UNL     1      33.527  48.868  -5.330  1.00  0.00     0.277 HD
ENDBRANCH   8  45
TORSDOF 9
ENDMDL
MODEL 4
REMARK VINA RESULT: -6.864089613      2.091      5.359
REMARK  9 active torsions:
REMARK  status: ('A' for Active; 'I' for Inactive)
REMARK    1  A    between atoms: N1_1  and  C1_5 
REMARK    2  A    between atoms: C1_5  and  O1_6 
REMARK    3  A    between atoms: C1_5  and  C2_8 
REMARK    4  A    between atoms: C2_8  and  N2_9 
REMARK    5  A    between atoms: C3_16  and  N6_17 
REMARK    6  A    between atoms: C6_21  and  C7_22 
REMARK       I    between atoms: C7_22  and  N7_24 
REMARK    7  A    between atoms: N7_24  and  C8_26 
REMARK    8  A    between atoms: C8_26  and  C9_27 
REMARK    9  A    between atoms: C15_42  and  C16_43 
ROOT
HETATM    1  N6  UNL     1      37.468  53.221  -2.729  1.00  0.00    -0.174 N 
ATOM      2  H6  UNL     1      38.243  53.835  -2.978  1.00  0.00     0.186 HD
HETATM    3  C4  UNL     1      37.367  52.736  -1.525  1.00  0.00     0.124 A 
HETATM    4  C5  UNL     1      36.322  51.900  -1.171  1.00  0.00     0.084 A 
HETATM    5  C6  UNL     1      36.205  51.382   0.103  1.00  0.00     0.105 A 
HETATM    6  N11 UNL     1      37.187  51.757   0.959  1.00  0.00    -0.341 N 
ATOM      7  H11 UNL     1      37.136  51.394   1.911  1.00  0.00     0.167 HD
HETATM    8  C15 UNL     1      38.203  52.550   0.671  1.00  0.00     0.090 A 
HETATM    9  N13 UNL     1      38.283  53.036  -0.580  1.00  0.00    -0.331 N 
ATOM     10  H13 UNL     1      39.060  53.650  -0.822  1.00  0.00     0.168 HD
ENDROOT
BRANCH   1  11
HETATM   11  C3  UNL     1      36.478  52.877  -3.692  1.00  0.00     0.717 A 
HETATM   12  N2  UNL     1      35.555  53.706  -4.249  1.00  0.00    -0.102 N 
HETATM   13  N3  UNL     1      34.822  53.005  -5.095  1.00  0.00    -0.211 N 
HETATM   14  N4  UNL     1      35.256  51.764  -5.084  1.00  0.00    -0.213 N 
ATOM     15  H3  UNL     1      34.052  53.365  -5.660  1.00  0.00     0.210 HD
HETATM   16  N5  UNL     1      36.253  51.676  -4.244  1.00  0.00    -0.115 N 
ATOM     17  H4  UNL     1      34.878  50.997  -5.640  1.00  0.00     0.210 HD
ATOM     18  H5  UNL     1      36.777  50.825  -4.039  1.00  0.00     0.207 HD
BRANCH  12  19
HETATM   19  C2  UNL     1      35.422  55.129  -3.945  1.00  0.00     0.230 C 
BRANCH  19  20
HETATM   20  C1  UNL     1      36.186  55.919  -5.015  1.00  0.00     0.336 C 
BRANCH  20  21
HETATM   21  N1  UNL     1      37.497  56.273  -4.555  1.00  0.00    -0.051 N 
ATOM     22  H13 UNL     1      37.832  55.612  -3.855  1.00  0.00     0.277 HD
ATOM     23  H12 UNL     1      38.196  56.112  -5.279  1.00  0.00     0.277 HD
ATOM     24  H11 UNL     1      37.540  57.231  -4.207  1.00  0.00     0.277 HD
ENDBRANCH  20  21
BRANCH  20  25
HETATM   25  O1  UNL     1      36.221  55.193  -6.195  1.00  0.00    -0.369 OA
ATOM     26  H1  UNL     1      35.388  55.206  -6.651  1.00  0.00     0.212 HD
ENDBRANCH  20  25
ENDBRANCH  19  20
ENDBRANCH  12  19
ENDBRANCH   1  11
BRANCH   5  27
HETATM   27  C7  UNL     1      35.129  50.505   0.516  1.00  0.00     0.268 C 
HETATM   28  O2  UNL     1      35.167  50.003   1.663  1.00  0.00    -0.266 OA
HETATM   29  N7  UNL     1      34.049  50.202  -0.328  1.00  0.00    -0.351 N 
ATOM     30  H7  UNL     1      34.041  50.632  -1.253  1.00  0.00     0.163 HD
BRANCH  29  31
HETATM   31  C8  UNL     1      32.958  49.338   0.008  1.00  0.00     0.165 C 
BRANCH  31  32
HETATM   32  C9  UNL     1      32.825  48.107  -0.750  1.00  0.00     0.004 A 
HETATM   33  C10 UNL     1      32.594  48.058  -2.099  1.00  0.00     0.102 A 
HETATM   34  N8  UNL     1      32.469  46.843  -2.670  1.00  0.00    -0.331 N 
HETATM   35  C11 UNL     1      32.556  45.684  -1.998  1.00  0.00     0.274 A 
ATOM     36  H8  UNL     1      32.298  46.802  -3.675  1.00  0.00     0.168 HD
HETATM   37  O3  UNL     1      32.434  44.568  -2.563  1.00  0.00    -0.266 OA
HETATM   38  C12 UNL     1      32.786  45.693  -0.641  1.00  0.00     0.129 A 
HETATM   39  N9  UNL     1      32.917  44.710   0.269  1.00  0.00    -0.346 N 
HETATM   40  C14 UNL     1      32.920  46.916  -0.023  1.00  0.00     0.075 A 
HETATM   41  C13 UNL     1      33.135  45.300   1.470  1.00  0.00     0.181 A 
ATOM     42  H9  UNL     1      32.864  43.707   0.088  1.00  0.00     0.167 HD
HETATM   43  N10 UNL     1      33.133  46.636   1.278  1.00  0.00    -0.350 N 
ATOM     44  H10 UNL     1      33.274  47.333   2.010  1.00  0.00     0.166 HD
ENDBRANCH  31  32
ENDBRANCH  29  31
ENDBRANCH   5  27
BRANCH   8  45
HETATM   45  C16 UNL     1      39.231  52.914   1.648  1.00  0.00     0.104 C 
HETATM   46  C17 UNL     1      39.052  54.262   2.312  1.00  0.00     0.246 C 
HETATM   47  N12 UNL     1      39.591  53.649   3.536  1.00  0.00    -0.073 N 
HETATM   48  C18 UNL     1      39.016  52.392   3.053  1.00  0.00     0.246 C 
ATOM     49 2H12 UNL     1      40.578  53.725   3.781  1.00  0.00     0.277 HD
ATOM     50 1H12 UNL     1      39.366  54.018   4.461  1.00  0.00     0.277 HD
ENDBRANCH   8  45
TORSDOF 9
ENDMDL
MODEL 5
REMARK VINA RESULT: -6.800523449      1.587      2.195
REMARK  9 active torsions:
REMARK  status: ('A' for Active; 'I' for Inactive)
REMARK    1  A    between atoms: N1_1  and  C1_5 
REMARK    2  A    between atoms: C1_5  and  O1_6 
REMARK    3  A    between atoms: C1_5  and  C2_8 
REMARK    4  A    between atoms: C2_8  and  N2_9 
REMARK    5  A    between atoms: C3_16  and  N6_17 
REMARK    6  A    between atoms: C6_21  and  C7_22 
REMARK       I    between atoms: C7_22  and  N7_24 
REMARK    7  A    between atoms: N7_24  and  C8_26 
REMARK    8  A    between atoms: C8_26  and  C9_27 
REMARK    9  A    between atoms: C15_42  and  C16_43 
ROOT
HETATM    1  N6  UNL     1      38.908  53.379   0.102  1.00  0.00    -0.174 N 
ATOM      2  H6  UNL     1      39.578  53.884  -0.477  1.00  0.00     0.186 HD
HETATM    3  C4  UNL     1      37.850  52.837  -0.431  1.00  0.00     0.124 A 
HETATM    4  C5  UNL     1      36.930  52.147   0.340  1.00  0.00     0.084 A 
HETATM    5  C6  UNL     1      35.806  51.569  -0.214  1.00  0.00     0.105 A 
HETATM    6  N11 UNL     1      35.686  51.735  -1.553  1.00  0.00    -0.341 N 
ATOM      7  H11 UNL     1      34.867  51.322  -2.001  1.00  0.00     0.167 HD
HETATM    8  C15 UNL     1      36.534  52.383  -2.333  1.00  0.00     0.090 A 
HETATM    9  N13 UNL     1      37.617  52.932  -1.757  1.00  0.00    -0.331 N 
ATOM     10  H13 UNL     1      38.284  53.437  -2.341  1.00  0.00     0.168 HD
ENDROOT
BRANCH   1  11
HETATM   11  C3  UNL     1      39.111  53.252   1.504  1.00  0.00     0.717 A 
HETATM   12  N2  UNL     1      38.846  54.185   2.458  1.00  0.00    -0.102 N 
HETATM   13  N3  UNL     1      39.172  53.683   3.635  1.00  0.00    -0.211 N 
HETATM   14  N4  UNL     1      39.633  52.465   3.448  1.00  0.00    -0.213 N 
ATOM     15  H3  UNL     1      39.081  54.156   4.534  1.00  0.00     0.210 HD
HETATM   16  N5  UNL     1      39.601  52.196   2.170  1.00  0.00    -0.115 N 
ATOM     17  H4  UNL     1      39.962  51.836   4.180  1.00  0.00     0.210 HD
ATOM     18  H5  UNL     1      39.901  51.319   1.744  1.00  0.00     0.207 HD
BRANCH  12  19
HETATM   19  C2  UNL     1      38.292  55.511   2.194  1.00  0.00     0.230 C 
BRANCH  19  20
HETATM   20  C1  UNL     1      36.776  55.448   2.418  1.00  0.00     0.336 C 
BRANCH  20  21
HETATM   21  N1  UNL     1      36.069  55.542   1.174  1.00  0.00    -0.051 N 
ATOM     22  H13 UNL     1      35.741  56.493   1.008  1.00  0.00     0.277 HD
ATOM     23  H12 UNL     1      36.704  55.448   0.382  1.00  0.00     0.277 HD
ATOM     24  H11 UNL     1      35.302  54.872   1.113  1.00  0.00     0.277 HD
ENDBRANCH  20  21
BRANCH  20  25
HETATM   25  O1  UNL     1      36.456  54.296   3.119  1.00  0.00    -0.369 OA
ATOM     26  H1  UNL     1      36.827  53.518   2.722  1.00  0.00     0.212 HD
ENDBRANCH  20  25
ENDBRANCH  19  20
ENDBRANCH  12  19
ENDBRANCH   1  11
BRANCH   5  27
HETATM   27  C7  UNL     1      34.818  50.839   0.555  1.00  0.00     0.268 C 
HETATM   28  O2  UNL     1      34.581  51.201   1.730  1.00  0.00    -0.266 OA
HETATM   29  N7  UNL     1      34.122  49.743   0.022  1.00  0.00    -0.351 N 
ATOM     30  H7  UNL     1      34.331  49.476  -0.941  1.00  0.00     0.163 HD
BRANCH  29  31
HETATM   31  C8  UNL     1      33.142  48.970   0.724  1.00  0.00     0.165 C 
BRANCH  31  32
HETATM   32  C9  UNL     1      33.595  47.754   1.375  1.00  0.00     0.004 A 
HETATM   33  C10 UNL     1      34.249  47.726   2.577  1.00  0.00     0.102 A 
HETATM   34  N8  UNL     1      34.634  46.524   3.055  1.00  0.00    -0.331 N 
HETATM   35  C11 UNL     1      34.415  45.360   2.423  1.00  0.00     0.274 A 
ATOM     36  H8  UNL     1      35.120  46.498   3.951  1.00  0.00     0.168 HD
HETATM   37  O3  UNL     1      34.787  44.257   2.896  1.00  0.00    -0.266 OA
HETATM   38  C12 UNL     1      33.762  45.348   1.211  1.00  0.00     0.129 A 
HETATM   39  N9  UNL     1      33.413  44.356   0.372  1.00  0.00    -0.346 N 
HETATM   40  C14 UNL     1      33.354  46.557   0.693  1.00  0.00     0.075 A 
HETATM   41  C13 UNL     1      32.783  44.925  -0.685  1.00  0.00     0.181 A 
ATOM     42  H9  UNL     1      33.590  43.360   0.506  1.00  0.00     0.167 HD
HETATM   43  N10 UNL     1      32.754  46.259  -0.477  1.00  0.00    -0.350 N 
ATOM     44  H10 UNL     1      32.340  46.941  -1.111  1.00  0.00     0.166 HD
ENDBRANCH  31  32
ENDBRANCH  29  31
ENDBRANCH   5  27
BRANCH   8  45
HETATM   45  C16 UNL     1      36.340  52.523  -3.776  1.00  0.00     0.104 C 
HETATM   46  C17 UNL     1      35.827  53.870  -4.239  1.00  0.00     0.246 C 
HETATM   47  N12 UNL     1      36.680  53.706  -5.426  1.00  0.00    -0.073 N 
HETATM   48  C18 UNL     1      37.568  52.917  -4.569  1.00  0.00     0.246 C 
ATOM     49 2H12 UNL     1      36.312  53.332  -6.300  1.00  0.00     0.277 HD
ATOM     50 1H12 UNL     1      37.023  54.511  -5.952  1.00  0.00     0.277 HD
ENDBRANCH   8  45
TORSDOF 9
ENDMDL
