MODEL 1
REMARK VINA RESULT: -5.869697016      0.000      0.000
REMARK  12 active torsions:
REMARK  status: ('A' for Active; 'I' for Inactive)
REMARK    1  A    between atoms: N1_2  and  C3_4 
REMARK    2  A    between atoms: C4_7  and  C5_8 
REMARK    3  A    between atoms: N3_14  and  C7_15 
REMARK    4  A    between atoms: C8_18  and  N5_19 
REMARK    5  A    between atoms: C10_29  and  C11_30 
REMARK    6  A    between atoms: C11_30  and  O5_31 
REMARK    7  A    between atoms: C11_30  and  C12_33 
REMARK    8  A    between atoms: C12_33  and  N8_34 
REMARK    9  A    between atoms: C12_33  and  C13_38 
REMARK   10  A    between atoms: C13_38  and  O6_39 
REMARK   11  A    between atoms: C13_38  and  C14_41 
REMARK   12  A    between atoms: C14_41  and  O7_42 
ROOT
HETATM    1  C3  UNL     1      36.542  54.680   0.383  1.00  0.00     0.119 A 
HETATM    2  N2  UNL     1      36.246  54.823  -0.874  1.00  0.00    -0.338 N 
ATOM      3  H2  UNL     1      36.097  55.759  -1.250  1.00  0.00     0.168 HD
HETATM    4  C4  UNL     1      36.136  53.799  -1.656  1.00  0.00     0.080 A 
HETATM    5  S2  UNL     1      36.485  52.509  -0.551  1.00  0.00    -0.072 SA
HETATM    6  C10 UNL     1      36.740  53.420   0.885  1.00  0.00     0.059 A 
ENDROOT
BRANCH   4   7
HETATM    7  C5  UNL     1      35.739  53.599  -3.027  1.00  0.00     0.204 C 
HETATM    8  C6  UNL     1      36.108  52.181  -3.514  1.00  0.00     0.226 C 
HETATM    9  O1  UNL     1      35.276  52.002  -4.619  1.00  0.00    -0.256 OA
HETATM   10  S1  UNL     1      35.375  53.505  -5.424  1.00  0.00     0.378 S 
HETATM   11  O2  UNL     1      36.201  53.466  -6.638  1.00  0.00    -0.175 OA
HETATM   12  O3  UNL     1      33.997  54.101  -5.626  1.00  0.00    -0.175 OA
HETATM   13  N3  UNL     1      36.184  54.385  -4.096  1.00  0.00    -0.071 N 
BRANCH  13  14
HETATM   14  C7  UNL     1      36.950  55.500  -4.387  1.00  0.00     0.715 A 
HETATM   15  N4  UNL     1      38.159  55.651  -3.783  1.00  0.00    -0.021 N 
HETATM   16  C8  UNL     1      38.915  56.731  -4.037  1.00  0.00     0.694 A 
ATOM     17  H4  UNL     1      38.493  54.938  -3.134  1.00  0.00     0.203 HD
HETATM   18  N6  UNL     1      38.499  57.701  -4.899  1.00  0.00    -0.141 N 
HETATM   19  C9  UNL     1      37.319  57.546  -5.486  1.00  0.00     0.352 A 
ATOM     20  H6  UNL     1      39.076  58.521  -5.087  1.00  0.00     0.189 HD
HETATM   21  O4  UNL     1      36.903  58.417  -6.282  1.00  0.00    -0.246 OA
HETATM   22  N7  UNL     1      36.570  56.468  -5.230  1.00  0.00    -0.139 N 
ATOM     23  H7  UNL     1      35.668  56.380  -5.699  1.00  0.00     0.189 HD
BRANCH  16  24
HETATM   24  N5  UNL     1      40.075  56.942  -3.478  1.00  0.00    -0.234 N 
ATOM     25  H52 UNL     1      40.056  57.071  -2.467  1.00  0.00     0.174 HD
ATOM     26  H51 UNL     1      40.952  56.967  -3.999  1.00  0.00     0.174 HD
ENDBRANCH  16  24
ENDBRANCH  13  14
ENDBRANCH   4   7
BRANCH   1  27
HETATM   27  N1  UNL     1      36.796  55.847   1.231  1.00  0.00    -0.375 N 
HETATM   28  C1  UNL     1      35.896  56.283   2.252  1.00  0.00     0.150 C 
HETATM   29  C2  UNL     1      38.069  56.542   1.014  1.00  0.00     0.150 C 
ENDBRANCH   1  27
BRANCH   6  30
HETATM   30  C11 UNL     1      36.839  52.922   2.302  1.00  0.00     0.195 C 
BRANCH  30  31
HETATM   31  O5  UNL     1      36.665  51.470   2.041  1.00  0.00    -0.388 OA
ATOM     32  H5  UNL     1      35.983  51.291   2.678  1.00  0.00     0.210 HD
ENDBRANCH  30  31
BRANCH  30  33
HETATM   33  C12 UNL     1      38.184  52.958   2.891  1.00  0.00     0.247 C 
BRANCH  33  34
HETATM   34  N8  UNL     1      38.669  54.099   3.550  1.00  0.00    -0.070 N 
ATOM     35  H83 UNL     1      39.371  54.531   2.950  1.00  0.00     0.274 HD
ATOM     36  H82 UNL     1      37.928  54.800   3.549  1.00  0.00     0.274 HD
ATOM     37  H81 UNL     1      39.052  54.049   4.495  1.00  0.00     0.274 HD
ENDBRANCH  33  34
BRANCH  33  38
HETATM   38  C13 UNL     1      39.235  52.560   1.853  1.00  0.00     0.174 C 
BRANCH  38  39
HETATM   39  O6  UNL     1      39.949  51.440   2.350  1.00  0.00    -0.391 OA
ATOM     40  H6  UNL     1      40.854  51.515   2.070  1.00  0.00     0.210 HD
ENDBRANCH  38  39
BRANCH  38  41
HETATM   41  C14 UNL     1      40.262  53.641   1.580  1.00  0.00     0.198 C 
BRANCH  41  42
HETATM   42  O7  UNL     1      40.458  53.752   0.193  1.00  0.00    -0.398 OA
ATOM     43  H7  UNL     1      41.201  54.320   0.027  1.00  0.00     0.209 HD
ENDBRANCH  41  42
ENDBRANCH  38  41
ENDBRANCH  33  38
ENDBRANCH  30  33
ENDBRANCH   6  30
TORSDOF 12
ENDMDL
MODEL 2
REMARK VINA RESULT: -5.869059966      4.766      7.027
REMARK  12 active torsions:
REMARK  status: ('A' for Active; 'I' for Inactive)
REMARK    1  A    between atoms: N1_2  and  C3_4 
REMARK    2  A    between atoms: C4_7  and  C5_8 
REMARK    3  A    between atoms: N3_14  and  C7_15 
REMARK    4  A    between atoms: C8_18  and  N5_19 
REMARK    5  A    between atoms: C10_29  and  C11_30 
REMARK    6  A    between atoms: C11_30  and  O5_31 
REMARK    7  A    between atoms: C11_30  and  C12_33 
REMARK    8  A    between atoms: C12_33  and  N8_34 
REMARK    9  A    between atoms: C12_33  and  C13_38 
REMARK   10  A    between atoms: C13_38  and  O6_39 
REMARK   11  A    between atoms: C13_38  and  C14_41 
REMARK   12  A    between atoms: C14_41  and  O7_42 
ROOT
HETATM    1  C3  UNL     1      35.016  52.089   0.103  1.00  0.00     0.119 A 
HETATM    2  N2  UNL     1      33.966  51.706  -0.558  1.00  0.00    -0.338 N 
ATOM      3  H2  UNL     1      33.095  51.527  -0.058  1.00  0.00     0.168 HD
HETATM    4  C4  UNL     1      34.005  51.549  -1.841  1.00  0.00     0.080 A 
HETATM    5  S2  UNL     1      35.653  51.979  -2.170  1.00  0.00    -0.072 SA
HETATM    6  C10 UNL     1      36.184  52.327  -0.572  1.00  0.00     0.059 A 
ENDROOT
BRANCH   4   7
HETATM    7  C5  UNL     1      33.087  51.059  -2.839  1.00  0.00     0.204 C 
HETATM    8  C6  UNL     1      31.812  51.928  -2.899  1.00  0.00     0.226 C 
HETATM    9  O1  UNL     1      31.288  51.631  -4.157  1.00  0.00    -0.256 OA
HETATM   10  S1  UNL     1      31.473  49.937  -4.261  1.00  0.00     0.378 S 
HETATM   11  O2  UNL     1      30.216  49.198  -4.088  1.00  0.00    -0.175 OA
HETATM   12  O3  UNL     1      32.256  49.555  -5.501  1.00  0.00    -0.175 OA
HETATM   13  N3  UNL     1      32.545  49.769  -2.841  1.00  0.00    -0.071 N 
BRANCH  13  14
HETATM   14  C7  UNL     1      32.597  48.561  -2.168  1.00  0.00     0.715 A 
HETATM   15  N4  UNL     1      32.347  47.411  -2.848  1.00  0.00    -0.021 N 
HETATM   16  C8  UNL     1      32.376  46.227  -2.215  1.00  0.00     0.694 A 
ATOM     17  H4  UNL     1      32.135  47.447  -3.846  1.00  0.00     0.203 HD
HETATM   18  N6  UNL     1      32.655  46.142  -0.884  1.00  0.00    -0.141 N 
HETATM   19  C9  UNL     1      32.900  47.269  -0.227  1.00  0.00     0.352 A 
ATOM     20  H6  UNL     1      32.674  45.241  -0.406  1.00  0.00     0.189 HD
HETATM   21  O4  UNL     1      33.158  47.231   0.997  1.00  0.00    -0.246 OA
HETATM   22  N7  UNL     1      32.870  48.445  -0.863  1.00  0.00    -0.139 N 
ATOM     23  H7  UNL     1      33.064  49.292  -0.329  1.00  0.00     0.189 HD
BRANCH  16  24
HETATM   24  N5  UNL     1      32.129  45.090  -2.806  1.00  0.00    -0.234 N 
ATOM     25  H52 UNL     1      31.529  44.450  -2.287  1.00  0.00     0.174 HD
ATOM     26  H51 UNL     1      32.492  44.847  -3.728  1.00  0.00     0.174 HD
ENDBRANCH  16  24
ENDBRANCH  13  14
ENDBRANCH   4   7
BRANCH   1  27
HETATM   27  N1  UNL     1      34.930  52.394   1.534  1.00  0.00    -0.375 N 
HETATM   28  C1  UNL     1      35.149  51.420   2.556  1.00  0.00     0.150 C 
HETATM   29  C2  UNL     1      34.647  53.790   1.884  1.00  0.00     0.150 C 
ENDBRANCH   1  27
BRANCH   6  30
HETATM   30  C11 UNL     1      37.592  52.525  -0.078  1.00  0.00     0.195 C 
BRANCH  30  31
HETATM   31  O5  UNL     1      38.315  52.235  -1.344  1.00  0.00    -0.388 OA
ATOM     32  H5  UNL     1      39.197  52.432  -1.052  1.00  0.00     0.210 HD
ENDBRANCH  30  31
BRANCH  30  33
HETATM   33  C12 UNL     1      37.982  53.919   0.173  1.00  0.00     0.247 C 
BRANCH  33  34
HETATM   34  N8  UNL     1      38.086  54.854  -0.869  1.00  0.00    -0.070 N 
ATOM     35  H83 UNL     1      38.897  55.442  -0.682  1.00  0.00     0.274 HD
ATOM     36  H82 UNL     1      38.376  54.354  -1.710  1.00  0.00     0.274 HD
ATOM     37  H81 UNL     1      37.307  55.464  -1.120  1.00  0.00     0.274 HD
ENDBRANCH  33  34
BRANCH  33  38
HETATM   38  C13 UNL     1      39.294  53.975   0.957  1.00  0.00     0.174 C 
BRANCH  38  39
HETATM   39  O6  UNL     1      40.368  53.921   0.031  1.00  0.00    -0.391 OA
ATOM     40  H6  UNL     1      40.982  53.259   0.326  1.00  0.00     0.210 HD
ENDBRANCH  38  39
BRANCH  38  41
HETATM   41  C14 UNL     1      39.485  52.811   1.909  1.00  0.00     0.198 C 
BRANCH  41  42
HETATM   42  O7  UNL     1      40.664  52.125   1.568  1.00  0.00    -0.398 OA
ATOM     43  H7  UNL     1      41.406  52.707   1.675  1.00  0.00     0.209 HD
ENDBRANCH  41  42
ENDBRANCH  38  41
ENDBRANCH  33  38
ENDBRANCH  30  33
ENDBRANCH   6  30
TORSDOF 12
ENDMDL
MODEL 3
REMARK VINA RESULT: -5.868021542      4.825      7.039
REMARK  12 active torsions:
REMARK  status: ('A' for Active; 'I' for Inactive)
REMARK    1  A    between atoms: N1_2  and  C3_4 
REMARK    2  A    between atoms: C4_7  and  C5_8 
REMARK    3  A    between atoms: N3_14  and  C7_15 
REMARK    4  A    between atoms: C8_18  and  N5_19 
REMARK    5  A    between atoms: C10_29  and  C11_30 
REMARK    6  A    between atoms: C11_30  and  O5_31 
REMARK    7  A    between atoms: C11_30  and  C12_33 
REMARK    8  A    between atoms: C12_33  and  N8_34 
REMARK    9  A    between atoms: C12_33  and  C13_38 
REMARK   10  A    between atoms: C13_38  and  O6_39 
REMARK   11  A    between atoms: C13_38  and  C14_41 
REMARK   12  A    between atoms: C14_41  and  O7_42 
ROOT
HETATM    1  C3  UNL     1      35.014  51.854   0.032  1.00  0.00     0.119 A 
HETATM    2  N2  UNL     1      33.971  51.459  -0.634  1.00  0.00    -0.338 N 
ATOM      3  H2  UNL     1      33.119  51.212  -0.132  1.00  0.00     0.168 HD
HETATM    4  C4  UNL     1      33.996  51.373  -1.925  1.00  0.00     0.080 A 
HETATM    5  S2  UNL     1      35.616  51.898  -2.254  1.00  0.00    -0.072 SA
HETATM    6  C10 UNL     1      36.158  52.184  -0.647  1.00  0.00     0.059 A 
ENDROOT
BRANCH   4   7
HETATM    7  C5  UNL     1      33.084  50.895  -2.934  1.00  0.00     0.204 C 
HETATM    8  C6  UNL     1      31.813  51.769  -2.996  1.00  0.00     0.226 C 
HETATM    9  O1  UNL     1      31.298  51.485  -4.261  1.00  0.00    -0.256 OA
HETATM   10  S1  UNL     1      31.478  49.791  -4.379  1.00  0.00     0.378 S 
HETATM   11  O2  UNL     1      30.217  49.054  -4.223  1.00  0.00    -0.175 OA
HETATM   12  O3  UNL     1      32.270  49.417  -5.616  1.00  0.00    -0.175 OA
HETATM   13  N3  UNL     1      32.538  49.607  -2.952  1.00  0.00    -0.071 N 
BRANCH  13  14
HETATM   14  C7  UNL     1      32.581  48.393  -2.289  1.00  0.00     0.715 A 
HETATM   15  N4  UNL     1      32.799  48.377  -0.947  1.00  0.00    -0.021 N 
HETATM   16  C8  UNL     1      32.861  47.212  -0.282  1.00  0.00     0.694 A 
ATOM     17  H4  UNL     1      32.917  49.256  -0.442  1.00  0.00     0.203 HD
HETATM   18  N6  UNL     1      32.708  46.020  -0.926  1.00  0.00    -0.141 N 
HETATM   19  C9  UNL     1      32.493  46.044  -2.235  1.00  0.00     0.352 A 
ATOM     20  H6  UNL     1      32.757  45.137  -0.417  1.00  0.00     0.189 HD
HETATM   21  O4  UNL     1      32.349  44.969  -2.860  1.00  0.00    -0.246 OA
HETATM   22  N7  UNL     1      32.432  47.207  -2.892  1.00  0.00    -0.139 N 
ATOM     23  H7  UNL     1      32.265  47.190  -3.898  1.00  0.00     0.189 HD
BRANCH  16  24
HETATM   24  N5  UNL     1      33.084  47.128   1.000  1.00  0.00    -0.234 N 
ATOM     25  H52 UNL     1      32.449  47.667   1.589  1.00  0.00     0.174 HD
ATOM     26  H51 UNL     1      33.828  46.560   1.405  1.00  0.00     0.174 HD
ENDBRANCH  16  24
ENDBRANCH  13  14
ENDBRANCH   4   7
BRANCH   1  27
HETATM   27  N1  UNL     1      34.939  52.077   1.478  1.00  0.00    -0.375 N 
HETATM   28  C1  UNL     1      34.828  53.374   2.065  1.00  0.00     0.150 C 
HETATM   29  C2  UNL     1      34.934  50.876   2.320  1.00  0.00     0.150 C 
ENDBRANCH   1  27
BRANCH   6  30
HETATM   30  C11 UNL     1      37.563  52.422  -0.164  1.00  0.00     0.195 C 
BRANCH  30  31
HETATM   31  O5  UNL     1      38.285  52.152  -1.435  1.00  0.00    -0.388 OA
ATOM     32  H5  UNL     1      37.585  52.359  -2.043  1.00  0.00     0.210 HD
ENDBRANCH  30  31
BRANCH  30  33
HETATM   33  C12 UNL     1      37.916  53.826   0.084  1.00  0.00     0.247 C 
BRANCH  33  34
HETATM   34  N8  UNL     1      38.029  54.754  -0.963  1.00  0.00    -0.070 N 
ATOM     35  H83 UNL     1      38.477  54.284  -1.750  1.00  0.00     0.274 HD
ATOM     36  H82 UNL     1      37.092  54.930  -1.327  1.00  0.00     0.274 HD
ATOM     37  H81 UNL     1      38.489  55.655  -0.833  1.00  0.00     0.274 HD
ENDBRANCH  33  34
BRANCH  33  38
HETATM   38  C13 UNL     1      39.204  53.918   0.904  1.00  0.00     0.174 C 
BRANCH  38  39
HETATM   39  O6  UNL     1      40.304  53.909   0.007  1.00  0.00    -0.391 OA
ATOM     40  H6  UNL     1      41.005  53.403   0.401  1.00  0.00     0.210 HD
ENDBRANCH  38  39
BRANCH  38  41
HETATM   41  C14 UNL     1      39.409  52.751   1.850  1.00  0.00     0.198 C 
BRANCH  41  42
HETATM   42  O7  UNL     1      40.649  52.148   1.578  1.00  0.00    -0.398 OA
ATOM     43  H7  UNL     1      41.222  52.262   2.327  1.00  0.00     0.209 HD
ENDBRANCH  41  42
ENDBRANCH  38  41
ENDBRANCH  33  38
ENDBRANCH  30  33
ENDBRANCH   6  30
TORSDOF 12
ENDMDL
MODEL 4
REMARK VINA RESULT: -5.862947126      3.983      6.220
REMARK  12 active torsions:
REMARK  status: ('A' for Active; 'I' for Inactive)
REMARK    1  A    between atoms: N1_2  and  C3_4 
REMARK    2  A    between atoms: C4_7  and  C5_8 
REMARK    3  A    between atoms: N3_14  and  C7_15 
REMARK    4  A    between atoms: C8_18  and  N5_19 
REMARK    5  A    between atoms: C10_29  and  C11_30 
REMARK    6  A    between atoms: C11_30  and  O5_31 
REMARK    7  A    between atoms: C11_30  and  C12_33 
REMARK    8  A    between atoms: C12_33  and  N8_34 
REMARK    9  A    between atoms: C12_33  and  C13_38 
REMARK   10  A    between atoms: C13_38  and  O6_39 
REMARK   11  A    between atoms: C13_38  and  C14_41 
REMARK   12  A    between atoms: C14_41  and  O7_42 
ROOT
HETATM    1  C3  UNL     1      35.050  53.052  -0.878  1.00  0.00     0.119 A 
HETATM    2  N2  UNL     1      34.283  52.718  -1.872  1.00  0.00    -0.338 N 
ATOM      3  H2  UNL     1      33.271  52.792  -1.772  1.00  0.00     0.168 HD
HETATM    4  C4  UNL     1      34.782  52.293  -2.987  1.00  0.00     0.080 A 
HETATM    5  S2  UNL     1      36.478  52.369  -2.634  1.00  0.00    -0.072 SA
HETATM    6  C10 UNL     1      36.410  52.950  -1.017  1.00  0.00     0.059 A 
ENDROOT
BRANCH   4   7
HETATM    7  C5  UNL     1      34.238  51.764  -4.213  1.00  0.00     0.204 C 
HETATM    8  C6  UNL     1      33.185  52.719  -4.815  1.00  0.00     0.226 C 
HETATM    9  O1  UNL     1      33.123  52.318  -6.149  1.00  0.00    -0.256 OA
HETATM   10  S1  UNL     1      33.131  50.614  -6.040  1.00  0.00     0.378 S 
HETATM   11  O2  UNL     1      31.819  50.004  -6.291  1.00  0.00    -0.175 OA
HETATM   12  O3  UNL     1      34.260  50.026  -6.863  1.00  0.00    -0.175 OA
HETATM   13  N3  UNL     1      33.585  50.530  -4.314  1.00  0.00    -0.071 N 
BRANCH  13  14
HETATM   14  C7  UNL     1      33.245  49.410  -3.575  1.00  0.00     0.715 A 
HETATM   15  N4  UNL     1      32.826  48.290  -4.222  1.00  0.00    -0.021 N 
HETATM   16  C8  UNL     1      32.475  47.195  -3.528  1.00  0.00     0.694 A 
ATOM     17  H4  UNL     1      32.778  48.282  -5.241  1.00  0.00     0.203 HD
HETATM   18  N6  UNL     1      32.528  47.173  -2.167  1.00  0.00    -0.141 N 
HETATM   19  C9  UNL     1      32.940  48.270  -1.543  1.00  0.00     0.352 A 
ATOM     20  H6  UNL     1      32.259  46.340  -1.643  1.00  0.00     0.189 HD
HETATM   21  O4  UNL     1      33.000  48.286  -0.292  1.00  0.00    -0.246 OA
HETATM   22  N7  UNL     1      33.288  49.356  -2.238  1.00  0.00    -0.139 N 
ATOM     23  H7  UNL     1      33.601  50.182  -1.728  1.00  0.00     0.189 HD
BRANCH  16  24
HETATM   24  N5  UNL     1      32.051  46.097  -4.088  1.00  0.00    -0.234 N 
ATOM     25  H52 UNL     1      31.050  45.920  -4.000  1.00  0.00     0.174 HD
ATOM     26  H51 UNL     1      32.659  45.452  -4.593  1.00  0.00     0.174 HD
ENDBRANCH  16  24
ENDBRANCH  13  14
ENDBRANCH   4   7
BRANCH   1  27
HETATM   27  N1  UNL     1      34.487  53.658   0.331  1.00  0.00    -0.375 N 
HETATM   28  C1  UNL     1      34.067  52.896   1.465  1.00  0.00     0.150 C 
HETATM   29  C2  UNL     1      34.415  55.122   0.350  1.00  0.00     0.150 C 
ENDBRANCH   1  27
BRANCH   6  30
HETATM   30  C11 UNL     1      37.517  53.014   0.000  1.00  0.00     0.195 C 
BRANCH  30  31
HETATM   31  O5  UNL     1      38.581  52.335  -0.785  1.00  0.00    -0.388 OA
ATOM     32  H5  UNL     1      39.331  52.595  -0.263  1.00  0.00     0.210 HD
ENDBRANCH  30  31
BRANCH  30  33
HETATM   33  C12 UNL     1      38.106  54.343   0.210  1.00  0.00     0.247 C 
BRANCH  33  34
HETATM   34  N8  UNL     1      38.337  55.223  -0.858  1.00  0.00    -0.070 N 
ATOM     35  H83 UNL     1      39.287  55.582  -0.768  1.00  0.00     0.274 HD
ATOM     36  H82 UNL     1      38.399  54.669  -1.713  1.00  0.00     0.274 HD
ATOM     37  H81 UNL     1      37.720  56.014  -1.043  1.00  0.00     0.274 HD
ENDBRANCH  33  34
BRANCH  33  38
HETATM   38  C13 UNL     1      39.417  54.231   0.990  1.00  0.00     0.174 C 
BRANCH  38  39
HETATM   39  O6  UNL     1      40.475  54.062   0.059  1.00  0.00    -0.391 OA
ATOM     40  H6  UNL     1      41.290  54.004   0.542  1.00  0.00     0.210 HD
ENDBRANCH  38  39
BRANCH  38  41
HETATM   41  C14 UNL     1      39.470  53.039   1.925  1.00  0.00     0.198 C 
BRANCH  41  42
HETATM   42  O7  UNL     1      40.530  52.198   1.541  1.00  0.00    -0.398 OA
ATOM     43  H7  UNL     1      40.205  51.310   1.447  1.00  0.00     0.209 HD
ENDBRANCH  41  42
ENDBRANCH  38  41
ENDBRANCH  33  38
ENDBRANCH  30  33
ENDBRANCH   6  30
TORSDOF 12
ENDMDL
MODEL 5
REMARK VINA RESULT: -5.831705463      0.913      1.412
REMARK  12 active torsions:
REMARK  status: ('A' for Active; 'I' for Inactive)
REMARK    1  A    between atoms: N1_2  and  C3_4 
REMARK    2  A    between atoms: C4_7  and  C5_8 
REMARK    3  A    between atoms: N3_14  and  C7_15 
REMARK    4  A    between atoms: C8_18  and  N5_19 
REMARK    5  A    between atoms: C10_29  and  C11_30 
REMARK    6  A    between atoms: C11_30  and  O5_31 
REMARK    7  A    between atoms: C11_30  and  C12_33 
REMARK    8  A    between atoms: C12_33  and  N8_34 
REMARK    9  A    between atoms: C12_33  and  C13_38 
REMARK   10  A    between atoms: C13_38  and  O6_39 
REMARK   11  A    between atoms: C13_38  and  C14_41 
REMARK   12  A    between atoms: C14_41  and  O7_42 
ROOT
HETATM    1  C3  UNL     1      36.534  54.734   0.448  1.00  0.00     0.119 A 
HETATM    2  N2  UNL     1      36.248  54.907  -0.807  1.00  0.00    -0.338 N 
ATOM      3  H2  UNL     1      36.091  55.850  -1.161  1.00  0.00     0.168 HD
HETATM    4  C4  UNL     1      36.161  53.902  -1.617  1.00  0.00     0.080 A 
HETATM    5  S2  UNL     1      36.515  52.588  -0.542  1.00  0.00    -0.072 SA
HETATM    6  C10 UNL     1      36.744  53.465   0.920  1.00  0.00     0.059 A 
ENDROOT
BRANCH   4   7
HETATM    7  C5  UNL     1      35.780  53.733  -2.997  1.00  0.00     0.204 C 
HETATM    8  C6  UNL     1      36.112  52.310  -3.497  1.00  0.00     0.226 C 
HETATM    9  O1  UNL     1      35.294  52.172  -4.617  1.00  0.00    -0.256 OA
HETATM   10  S1  UNL     1      35.453  53.681  -5.400  1.00  0.00     0.378 S 
HETATM   11  O2  UNL     1      36.297  53.633  -6.601  1.00  0.00    -0.175 OA
HETATM   12  O3  UNL     1      34.097  54.323  -5.616  1.00  0.00    -0.175 OA
HETATM   13  N3  UNL     1      36.266  54.519  -4.048  1.00  0.00    -0.071 N 
BRANCH  13  14
HETATM   14  C7  UNL     1      37.072  55.613  -4.311  1.00  0.00     0.715 A 
HETATM   15  N4  UNL     1      36.683  56.511  -5.255  1.00  0.00    -0.021 N 
HETATM   16  C8  UNL     1      37.454  57.573  -5.541  1.00  0.00     0.694 A 
ATOM     17  H4  UNL     1      35.801  56.377  -5.749  1.00  0.00     0.203 HD
HETATM   18  N6  UNL     1      38.638  57.781  -4.899  1.00  0.00    -0.141 N 
HETATM   19  C9  UNL     1      39.009  56.902  -3.977  1.00  0.00     0.352 A 
ATOM     20  H6  UNL     1      39.222  58.589  -5.121  1.00  0.00     0.189 HD
HETATM   21  O4  UNL     1      40.092  57.060  -3.369  1.00  0.00    -0.246 OA
HETATM   22  N7  UNL     1      38.238  55.846  -3.697  1.00  0.00    -0.139 N 
ATOM     23  H7  UNL     1      38.552  55.190  -2.983  1.00  0.00     0.189 HD
BRANCH  16  24
HETATM   24  N5  UNL     1      37.146  58.460  -6.446  1.00  0.00    -0.234 N 
ATOM     25  H52 UNL     1      37.457  58.244  -7.393  1.00  0.00     0.174 HD
ATOM     26  H51 UNL     1      36.621  59.311  -6.242  1.00  0.00     0.174 HD
ENDBRANCH  16  24
ENDBRANCH  13  14
ENDBRANCH   4   7
BRANCH   1  27
HETATM   27  N1  UNL     1      36.763  55.883   1.329  1.00  0.00    -0.375 N 
HETATM   28  C1  UNL     1      35.834  56.297   2.332  1.00  0.00     0.150 C 
HETATM   29  C2  UNL     1      38.043  56.580   1.166  1.00  0.00     0.150 C 
ENDBRANCH   1  27
BRANCH   6  30
HETATM   30  C11 UNL     1      36.835  52.932   2.324  1.00  0.00     0.195 C 
BRANCH  30  31
HETATM   31  O5  UNL     1      36.661  51.486   2.026  1.00  0.00    -0.388 OA
ATOM     32  H5  UNL     1      37.435  51.156   2.465  1.00  0.00     0.210 HD
ENDBRANCH  30  31
BRANCH  30  33
HETATM   33  C12 UNL     1      38.177  52.951   2.921  1.00  0.00     0.247 C 
BRANCH  33  34
HETATM   34  N8  UNL     1      38.668  54.082   3.592  1.00  0.00    -0.070 N 
ATOM     35  H83 UNL     1      38.499  54.895   3.000  1.00  0.00     0.274 HD
ATOM     36  H82 UNL     1      38.053  54.266   4.386  1.00  0.00     0.274 HD
ATOM     37  H81 UNL     1      39.631  54.130   3.925  1.00  0.00     0.274 HD
ENDBRANCH  33  34
BRANCH  33  38
HETATM   38  C13 UNL     1      39.230  52.554   1.885  1.00  0.00     0.174 C 
BRANCH  38  39
HETATM   39  O6  UNL     1      39.926  51.417   2.371  1.00  0.00    -0.391 OA
ATOM     40  H6  UNL     1      40.252  51.617   3.240  1.00  0.00     0.210 HD
ENDBRANCH  38  39
BRANCH  38  41
HETATM   41  C14 UNL     1      40.274  53.625   1.635  1.00  0.00     0.198 C 
BRANCH  41  42
HETATM   42  O7  UNL     1      40.496  53.740   0.252  1.00  0.00    -0.398 OA
ATOM     43  H7  UNL     1      40.620  54.655   0.031  1.00  0.00     0.209 HD
ENDBRANCH  41  42
ENDBRANCH  38  41
ENDBRANCH  33  38
ENDBRANCH  30  33
ENDBRANCH   6  30
TORSDOF 12
ENDMDL
