MODEL 1
REMARK VINA RESULT: -6.441985405      0.000      0.000
REMARK  10 active torsions:
REMARK  status: ('A' for Active; 'I' for Inactive)
REMARK    1  A    between atoms: C2_2  and  N1_3 
REMARK    2  A    between atoms: C2_2  and  C3_7 
REMARK    3  A    between atoms: C3_7  and  O1_8 
REMARK    4  A    between atoms: C3_7  and  N2_10 
REMARK    5  A    between atoms: N2_10  and  C4_12 
REMARK    6  A    between atoms: C7_15  and  N3_16 
REMARK    7  A    between atoms: N3_16  and  C8_18 
REMARK    8  A    between atoms: C8_18  and  C9_19 
REMARK    9  A    between atoms: N5_25  and  C13_26 
REMARK   10  A    between atoms: N6_33  and  N7_34 
ROOT
HETATM    1  C8  UNL     1      34.207  51.503  -2.235  1.00  0.00     0.065 C 
ENDROOT
BRANCH   1   2
HETATM    2  N3  UNL     1      35.527  51.846  -2.516  1.00  0.00    -0.381 N 
ATOM      3  H3  UNL     1      35.962  51.462  -3.354  1.00  0.00     0.160 HD
BRANCH   2   4
HETATM    4  C7  UNL     1      36.274  52.682  -1.709  1.00  0.00     0.184 C 
HETATM    5  C6  UNL     1      36.852  53.959  -2.326  1.00  0.00     0.084 C 
HETATM    6  C4  UNL     1      37.167  54.619  -0.899  1.00  0.00     0.083 C 
HETATM    7  C5  UNL     1      37.451  56.050  -1.277  1.00  0.00     0.046 C 
HETATM    8  C19 UNL     1      35.828  54.426  -0.310  1.00  0.00     0.118 C 
HETATM    9  N9  UNL     1      35.319  53.324  -0.762  1.00  0.00    -0.359 N 
HETATM   10  N10 UNL     1      35.093  55.288   0.597  1.00  0.00    -0.085 NA
ATOM     11  H9  UNL     1      34.404  52.952  -0.509  1.00  0.00     0.162 HD
BRANCH   6  12
HETATM   12  N2  UNL     1      38.221  53.866  -0.450  1.00  0.00    -0.380 N 
ATOM     13  H2  UNL     1      38.454  53.105  -1.089  1.00  0.00     0.157 HD
BRANCH  12  14
HETATM   14  C3  UNL     1      39.031  53.889   0.643  1.00  0.00     0.244 C 
BRANCH  14  15
HETATM   15  C2  UNL     1      39.072  52.808   1.667  1.00  0.00     0.227 C 
HETATM   16  C1  UNL     1      37.692  52.554   2.271  1.00  0.00     0.044 C 
BRANCH  15  17
HETATM   17  N1  UNL     1      39.816  53.328   2.868  1.00  0.00    -0.071 N 
ATOM     18  H13 UNL     1      40.825  53.420   2.754  1.00  0.00     0.274 HD
ATOM     19  H12 UNL     1      39.662  54.313   3.088  1.00  0.00     0.274 HD
ATOM     20  H11 UNL     1      39.513  52.666   3.583  1.00  0.00     0.274 HD
ENDBRANCH  15  17
ENDBRANCH  14  15
BRANCH  14  21
HETATM   21  O1  UNL     1      40.380  53.770   0.048  1.00  0.00    -0.375 OA
ATOM     22  H1  UNL     1      40.302  54.350  -0.700  1.00  0.00     0.212 HD
ENDBRANCH  14  21
ENDBRANCH  12  14
ENDBRANCH   6  12
ENDBRANCH   2   4
ENDBRANCH   1   2
BRANCH   1  23
HETATM   23  C9  UNL     1      33.823  50.046  -2.273  1.00  0.00     0.059 C 
HETATM   24  C10 UNL     1      32.808  49.857  -3.372  1.00  0.00     0.133 C 
HETATM   25  N4  UNL     1      32.557  48.462  -3.607  1.00  0.00    -0.371 N 
HETATM   26  C11 UNL     1      32.528  47.456  -2.816  1.00  0.00     0.172 A 
ATOM     27  H4  UNL     1      32.367  48.231  -4.583  1.00  0.00     0.161 HD
HETATM   28  C12 UNL     1      32.731  47.377  -1.461  1.00  0.00     0.159 A 
HETATM   29  N6  UNL     1      32.263  46.173  -3.212  1.00  0.00    -0.191 N 
HETATM   30  N5  UNL     1      32.599  46.110  -1.035  1.00  0.00    -0.244 N 
HETATM   31  N8  UNL     1      33.011  48.363  -0.683  1.00  0.00    -0.372 N 
HETATM   32  C17 UNL     1      32.312  45.384  -2.122  1.00  0.00     0.355 A 
HETATM   33  O2  UNL     1      32.111  44.134  -2.141  1.00  0.00    -0.244 OA
HETATM   34  C18 UNL     1      33.200  49.770  -0.907  1.00  0.00     0.133 C 
ATOM     35  H8  UNL     1      33.123  48.090   0.294  1.00  0.00     0.161 HD
BRANCH  30  36
HETATM   36  C13 UNL     1      32.742  45.610   0.330  1.00  0.00     0.052 A 
HETATM   37  C14 UNL     1      33.933  45.278   0.864  1.00  0.00     0.038 A 
HETATM   38  C15 UNL     1      33.927  44.820   2.156  1.00  0.00     0.052 A 
HETATM   39  S1  UNL     1      32.277  44.867   2.583  1.00  0.00    -0.111 SA
HETATM   40  C16 UNL     1      31.636  45.462   1.124  1.00  0.00     0.079 A 
ENDBRANCH  30  36
BRANCH  29  41
HETATM   41  N7  UNL     1      32.000  45.827  -4.539  1.00  0.00    -0.333 N 
ATOM     42  H72 UNL     1      31.120  45.864  -5.052  1.00  0.00     0.177 HD
ATOM     43  H71 UNL     1      32.717  45.474  -5.174  1.00  0.00     0.177 HD
ENDBRANCH  29  41
ENDBRANCH   1  23
TORSDOF 10
ENDMDL
MODEL 2
REMARK VINA RESULT: -6.256426182      1.642      2.154
REMARK  10 active torsions:
REMARK  status: ('A' for Active; 'I' for Inactive)
REMARK    1  A    between atoms: C2_2  and  N1_3 
REMARK    2  A    between atoms: C2_2  and  C3_7 
REMARK    3  A    between atoms: C3_7  and  O1_8 
REMARK    4  A    between atoms: C3_7  and  N2_10 
REMARK    5  A    between atoms: N2_10  and  C4_12 
REMARK    6  A    between atoms: C7_15  and  N3_16 
REMARK    7  A    between atoms: N3_16  and  C8_18 
REMARK    8  A    between atoms: C8_18  and  C9_19 
REMARK    9  A    between atoms: N5_25  and  C13_26 
REMARK   10  A    between atoms: N6_33  and  N7_34 
ROOT
HETATM    1  C8  UNL     1      34.051  51.010   1.435  1.00  0.00     0.065 C 
ENDROOT
BRANCH   1   2
HETATM    2  N3  UNL     1      35.374  51.226   1.811  1.00  0.00    -0.381 N 
ATOM      3  H3  UNL     1      35.698  50.837   2.696  1.00  0.00     0.160 HD
BRANCH   2   4
HETATM    4  C7  UNL     1      36.268  51.942   1.039  1.00  0.00     0.184 C 
HETATM    5  C6  UNL     1      36.800  51.297  -0.244  1.00  0.00     0.084 C 
HETATM    6  C4  UNL     1      37.352  52.684  -0.826  1.00  0.00     0.083 C 
HETATM    7  C5  UNL     1      37.636  52.325  -2.262  1.00  0.00     0.046 C 
HETATM    8  C19 UNL     1      36.110  53.462  -0.653  1.00  0.00     0.118 C 
HETATM    9  N9  UNL     1      35.494  53.048   0.408  1.00  0.00    -0.359 N 
HETATM   10  N10 UNL     1      35.556  54.504  -1.498  1.00  0.00    -0.085 NA
ATOM     11  H9  UNL     1      34.613  53.423   0.758  1.00  0.00     0.162 HD
BRANCH   6  12
HETATM   12  N2  UNL     1      38.430  52.938  -0.016  1.00  0.00    -0.380 N 
ATOM     13  H2  UNL     1      38.823  52.086   0.384  1.00  0.00     0.157 HD
BRANCH  12  14
HETATM   14  C3  UNL     1      39.100  54.053   0.382  1.00  0.00     0.244 C 
BRANCH  14  15
HETATM   15  C2  UNL     1      39.162  54.522   1.795  1.00  0.00     0.227 C 
HETATM   16  C1  UNL     1      39.212  53.349   2.774  1.00  0.00     0.044 C 
BRANCH  15  17
HETATM   17  N1  UNL     1      37.831  55.129   2.147  1.00  0.00    -0.071 N 
ATOM     18  H13 UNL     1      37.726  56.119   1.922  1.00  0.00     0.274 HD
ATOM     19  H12 UNL     1      37.044  54.825   1.574  1.00  0.00     0.274 HD
ATOM     20  H11 UNL     1      37.769  54.895   3.138  1.00  0.00     0.274 HD
ENDBRANCH  15  17
ENDBRANCH  14  15
BRANCH  14  21
HETATM   21  O1  UNL     1      40.512  53.685   0.142  1.00  0.00    -0.375 OA
ATOM     22  H1  UNL     1      40.412  52.974  -0.481  1.00  0.00     0.212 HD
ENDBRANCH  14  21
ENDBRANCH  12  14
ENDBRANCH   6  12
ENDBRANCH   2   4
ENDBRANCH   1   2
BRANCH   1  23
HETATM   23  C9  UNL     1      33.740  49.821   0.563  1.00  0.00     0.059 C 
HETATM   24  C10 UNL     1      33.084  50.324  -0.699  1.00  0.00     0.133 C 
HETATM   25  N4  UNL     1      32.954  49.269  -1.667  1.00  0.00    -0.371 N 
HETATM   26  C11 UNL     1      32.735  48.015  -1.537  1.00  0.00     0.172 A 
ATOM     27  H4  UNL     1      33.056  49.577  -2.634  1.00  0.00     0.161 HD
HETATM   28  C12 UNL     1      32.548  47.251  -0.412  1.00  0.00     0.159 A 
HETATM   29  N6  UNL     1      32.634  47.139  -2.584  1.00  0.00    -0.191 N 
HETATM   30  N5  UNL     1      32.342  45.965  -0.741  1.00  0.00    -0.244 N 
HETATM   31  N8  UNL     1      32.566  47.680   0.801  1.00  0.00    -0.372 N 
HETATM   32  C17 UNL     1      32.397  45.913  -2.077  1.00  0.00     0.355 A 
HETATM   33  O2  UNL     1      32.250  44.872  -2.781  1.00  0.00    -0.244 OA
HETATM   34  C18 UNL     1      32.765  48.980   1.382  1.00  0.00     0.133 C 
ATOM     35  H8  UNL     1      32.405  46.947   1.493  1.00  0.00     0.161 HD
BRANCH  30  36
HETATM   36  C13 UNL     1      32.109  44.842   0.162  1.00  0.00     0.052 A 
HETATM   37  C14 UNL     1      33.098  44.242   0.851  1.00  0.00     0.038 A 
HETATM   38  C15 UNL     1      32.743  43.196   1.663  1.00  0.00     0.052 A 
HETATM   39  S1  UNL     1      31.056  43.083   1.444  1.00  0.00    -0.111 SA
HETATM   40  C16 UNL     1      30.840  44.355   0.335  1.00  0.00     0.079 A 
ENDBRANCH  30  36
BRANCH  29  41
HETATM   41  N7  UNL     1      32.769  47.531  -3.917  1.00  0.00    -0.333 N 
ATOM     42  H72 UNL     1      32.931  46.956  -4.743  1.00  0.00     0.177 HD
ATOM     43  H71 UNL     1      32.717  48.504  -4.218  1.00  0.00     0.177 HD
ENDBRANCH  29  41
ENDBRANCH   1  23
TORSDOF 10
ENDMDL
MODEL 3
REMARK VINA RESULT: -6.230726578      1.903      2.514
REMARK  10 active torsions:
REMARK  status: ('A' for Active; 'I' for Inactive)
REMARK    1  A    between atoms: C2_2  and  N1_3 
REMARK    2  A    between atoms: C2_2  and  C3_7 
REMARK    3  A    between atoms: C3_7  and  O1_8 
REMARK    4  A    between atoms: C3_7  and  N2_10 
REMARK    5  A    between atoms: N2_10  and  C4_12 
REMARK    6  A    between atoms: C7_15  and  N3_16 
REMARK    7  A    between atoms: N3_16  and  C8_18 
REMARK    8  A    between atoms: C8_18  and  C9_19 
REMARK    9  A    between atoms: N5_25  and  C13_26 
REMARK   10  A    between atoms: N6_33  and  N7_34 
ROOT
HETATM    1  C8  UNL     1      34.368  50.272   0.632  1.00  0.00     0.065 C 
ENDROOT
BRANCH   1   2
HETATM    2  N3  UNL     1      35.589  50.630   1.195  1.00  0.00    -0.381 N 
ATOM      3  H3  UNL     1      35.930  50.097   1.995  1.00  0.00     0.160 HD
BRANCH   2   4
HETATM    4  C7  UNL     1      36.360  51.673   0.720  1.00  0.00     0.184 C 
HETATM    5  C6  UNL     1      36.607  51.766  -0.789  1.00  0.00     0.084 C 
HETATM    6  C4  UNL     1      37.114  53.284  -0.708  1.00  0.00     0.083 C 
HETATM    7  C5  UNL     1      37.105  53.689  -2.160  1.00  0.00     0.046 C 
HETATM    8  C19 UNL     1      35.970  53.818   0.055  1.00  0.00     0.118 C 
HETATM    9  N9  UNL     1      35.543  52.909   0.872  1.00  0.00    -0.359 N 
HETATM   10  N10 UNL     1      35.326  55.115  -0.048  1.00  0.00    -0.085 NA
ATOM     11  H9  UNL     1      34.764  53.023   1.521  1.00  0.00     0.162 HD
BRANCH   6  12
HETATM   12  N2  UNL     1      38.337  53.156  -0.099  1.00  0.00    -0.380 N 
ATOM     13  H2  UNL     1      38.727  52.220  -0.207  1.00  0.00     0.157 HD
BRANCH  12  14
HETATM   14  C3  UNL     1      39.153  53.977   0.615  1.00  0.00     0.244 C 
BRANCH  14  15
HETATM   15  C2  UNL     1      39.374  53.854   2.083  1.00  0.00     0.227 C 
HETATM   16  C1  UNL     1      39.191  52.414   2.559  1.00  0.00     0.044 C 
BRANCH  15  17
HETATM   17  N1  UNL     1      38.230  54.533   2.788  1.00  0.00    -0.071 N 
ATOM     18  H13 UNL     1      37.363  54.601   2.255  1.00  0.00     0.274 HD
ATOM     19  H12 UNL     1      37.817  54.009   3.560  1.00  0.00     0.274 HD
ATOM     20  H11 UNL     1      38.661  55.422   3.042  1.00  0.00     0.274 HD
ENDBRANCH  15  17
ENDBRANCH  14  15
BRANCH  14  21
HETATM   21  O1  UNL     1      40.494  53.633   0.095  1.00  0.00    -0.375 OA
ATOM     22  H1  UNL     1      40.938  54.470   0.167  1.00  0.00     0.212 HD
ENDBRANCH  14  21
ENDBRANCH  12  14
ENDBRANCH   6  12
ENDBRANCH   2   4
ENDBRANCH   1   2
BRANCH   1  23
HETATM   23  C9  UNL     1      34.047  48.806   0.490  1.00  0.00     0.059 C 
HETATM   24  C10 UNL     1      33.042  48.651  -0.623  1.00  0.00     0.133 C 
HETATM   25  N4  UNL     1      32.852  47.266  -0.957  1.00  0.00    -0.371 N 
HETATM   26  C11 UNL     1      32.866  46.207  -0.238  1.00  0.00     0.172 A 
ATOM     27  H4  UNL     1      32.673  47.096  -1.946  1.00  0.00     0.161 HD
HETATM   28  C12 UNL     1      33.071  46.042   1.109  1.00  0.00     0.159 A 
HETATM   29  N6  UNL     1      32.657  44.945  -0.724  1.00  0.00    -0.191 N 
HETATM   30  N5  UNL     1      32.994  44.743   1.445  1.00  0.00    -0.244 N 
HETATM   31  N8  UNL     1      33.308  46.982   1.956  1.00  0.00    -0.372 N 
HETATM   32  C17 UNL     1      32.739  44.084   0.309  1.00  0.00     0.355 A 
HETATM   33  O2  UNL     1      32.593  42.831   0.201  1.00  0.00    -0.244 OA
HETATM   34  C18 UNL     1      33.436  48.409   1.831  1.00  0.00     0.133 C 
ATOM     35  H8  UNL     1      33.431  46.646   2.911  1.00  0.00     0.161 HD
BRANCH  30  36
HETATM   36  C13 UNL     1      33.158  44.156   2.771  1.00  0.00     0.052 A 
HETATM   37  C14 UNL     1      34.334  43.673   3.215  1.00  0.00     0.038 A 
HETATM   38  C15 UNL     1      34.350  43.146   4.481  1.00  0.00     0.052 A 
HETATM   39  S1  UNL     1      32.740  43.339   5.008  1.00  0.00    -0.111 SA
HETATM   40  C16 UNL     1      32.087  44.079   3.622  1.00  0.00     0.079 A 
ENDBRANCH  30  36
BRANCH  29  41
HETATM   41  N7  UNL     1      32.411  44.682  -2.073  1.00  0.00    -0.333 N 
ATOM     42  H72 UNL     1      33.075  44.513  -2.828  1.00  0.00     0.177 HD
ATOM     43  H71 UNL     1      31.471  44.631  -2.467  1.00  0.00     0.177 HD
ENDBRANCH  29  41
ENDBRANCH   1  23
TORSDOF 10
ENDMDL
MODEL 4
REMARK VINA RESULT: -6.132165930      6.006      9.659
REMARK  10 active torsions:
REMARK  status: ('A' for Active; 'I' for Inactive)
REMARK    1  A    between atoms: C2_2  and  N1_3 
REMARK    2  A    between atoms: C2_2  and  C3_7 
REMARK    3  A    between atoms: C3_7  and  O1_8 
REMARK    4  A    between atoms: C3_7  and  N2_10 
REMARK    5  A    between atoms: N2_10  and  C4_12 
REMARK    6  A    between atoms: C7_15  and  N3_16 
REMARK    7  A    between atoms: N3_16  and  C8_18 
REMARK    8  A    between atoms: C8_18  and  C9_19 
REMARK    9  A    between atoms: N5_25  and  C13_26 
REMARK   10  A    between atoms: N6_33  and  N7_34 
ROOT
HETATM    1  C8  UNL     1      34.180  45.477   1.709  1.00  0.00     0.065 C 
ENDROOT
BRANCH   1   2
HETATM    2  N3  UNL     1      33.892  44.661   0.619  1.00  0.00    -0.381 N 
ATOM      3  H3  UNL     1      34.358  43.757   0.552  1.00  0.00     0.160 HD
BRANCH   2   4
HETATM    4  C7  UNL     1      33.003  45.020  -0.376  1.00  0.00     0.184 C 
HETATM    5  C6  UNL     1      31.972  43.985  -0.837  1.00  0.00     0.084 C 
HETATM    6  C4  UNL     1      31.066  45.079  -1.580  1.00  0.00     0.083 C 
HETATM    7  C5  UNL     1      29.798  44.307  -1.836  1.00  0.00     0.046 C 
HETATM    8  C19 UNL     1      30.957  46.023  -0.450  1.00  0.00     0.118 C 
HETATM    9  N9  UNL     1      32.057  45.997   0.232  1.00  0.00    -0.359 N 
HETATM   10  N10 UNL     1      29.834  46.853  -0.056  1.00  0.00    -0.085 NA
ATOM     11  H9  UNL     1      32.247  46.561   1.061  1.00  0.00     0.162 HD
BRANCH   6  12
HETATM   12  N2  UNL     1      31.833  45.409  -2.668  1.00  0.00    -0.380 N 
ATOM     13  H2  UNL     1      32.725  44.914  -2.678  1.00  0.00     0.157 HD
BRANCH  12  14
HETATM   14  C3  UNL     1      31.689  46.237  -3.737  1.00  0.00     0.244 C 
BRANCH  14  15
HETATM   15  C2  UNL     1      32.510  47.461  -3.953  1.00  0.00     0.227 C 
HETATM   16  C1  UNL     1      32.884  48.128  -2.630  1.00  0.00     0.044 C 
BRANCH  15  17
HETATM   17  N1  UNL     1      31.628  48.518  -4.563  1.00  0.00    -0.071 N 
ATOM     18  H13 UNL     1      30.720  48.192  -4.897  1.00  0.00     0.274 HD
ATOM     19  H12 UNL     1      31.241  49.198  -3.908  1.00  0.00     0.274 HD
ATOM     20  H11 UNL     1      32.249  48.898  -5.277  1.00  0.00     0.274 HD
ENDBRANCH  15  17
ENDBRANCH  14  15
BRANCH  14  21
HETATM   21  O1  UNL     1      32.137  45.392  -4.865  1.00  0.00    -0.375 OA
ATOM     22  H1  UNL     1      32.688  44.763  -4.414  1.00  0.00     0.212 HD
ENDBRANCH  14  21
ENDBRANCH  12  14
ENDBRANCH   6  12
ENDBRANCH   2   4
ENDBRANCH   1   2
BRANCH   1  23
HETATM   23  C9  UNL     1      34.373  44.830   3.056  1.00  0.00     0.059 C 
HETATM   24  C10 UNL     1      33.983  43.378   2.939  1.00  0.00     0.133 C 
HETATM   25  N4  UNL     1      34.344  42.650   4.125  1.00  0.00    -0.371 N 
HETATM   26  C11 UNL     1      34.372  42.991   5.358  1.00  0.00     0.172 A 
ATOM     27  H4  UNL     1      34.629  41.686   3.952  1.00  0.00     0.161 HD
HETATM   28  C12 UNL     1      34.062  44.183   5.965  1.00  0.00     0.159 A 
HETATM   29  N6  UNL     1      34.742  42.157   6.378  1.00  0.00    -0.191 N 
HETATM   30  N5  UNL     1      34.231  44.096   7.295  1.00  0.00    -0.244 N 
HETATM   31  N8  UNL     1      33.665  45.251   5.368  1.00  0.00    -0.372 N 
HETATM   32  C17 UNL     1      34.648  42.846   7.532  1.00  0.00     0.355 A 
HETATM   33  O2  UNL     1      34.920  42.363   8.671  1.00  0.00    -0.244 OA
HETATM   34  C18 UNL     1      33.420  45.573   3.988  1.00  0.00     0.133 C 
ATOM     35  H8  UNL     1      33.488  46.029   6.004  1.00  0.00     0.161 HD
BRANCH  30  36
HETATM   36  C13 UNL     1      34.014  45.141   8.290  1.00  0.00     0.052 A 
HETATM   37  C14 UNL     1      34.973  46.015   8.651  1.00  0.00     0.038 A 
HETATM   38  C15 UNL     1      34.637  46.947   9.599  1.00  0.00     0.052 A 
HETATM   39  S1  UNL     1      33.011  46.581   9.953  1.00  0.00    -0.111 SA
HETATM   40  C16 UNL     1      32.793  45.263   8.899  1.00  0.00     0.079 A 
ENDBRANCH  30  36
BRANCH  29  41
HETATM   41  N7  UNL     1      35.138  40.834   6.172  1.00  0.00    -0.333 N 
ATOM     42  H72 UNL     1      35.498  40.394   5.325  1.00  0.00     0.177 HD
ATOM     43  H71 UNL     1      35.102  40.123   6.903  1.00  0.00     0.177 HD
ENDBRANCH  29  41
ENDBRANCH   1  23
TORSDOF 10
ENDMDL
MODEL 5
REMARK VINA RESULT: -6.080312011      2.167      2.815
REMARK  10 active torsions:
REMARK  status: ('A' for Active; 'I' for Inactive)
REMARK    1  A    between atoms: C2_2  and  N1_3 
REMARK    2  A    between atoms: C2_2  and  C3_7 
REMARK    3  A    between atoms: C3_7  and  O1_8 
REMARK    4  A    between atoms: C3_7  and  N2_10 
REMARK    5  A    between atoms: N2_10  and  C4_12 
REMARK    6  A    between atoms: C7_15  and  N3_16 
REMARK    7  A    between atoms: N3_16  and  C8_18 
REMARK    8  A    between atoms: C8_18  and  C9_19 
REMARK    9  A    between atoms: N5_25  and  C13_26 
REMARK   10  A    between atoms: N6_33  and  N7_34 
ROOT
HETATM    1  C8  UNL     1      33.927  50.136   0.528  1.00  0.00     0.065 C 
ENDROOT
BRANCH   1   2
HETATM    2  N3  UNL     1      34.647  50.631   1.611  1.00  0.00    -0.381 N 
ATOM      3  H3  UNL     1      34.332  50.397   2.553  1.00  0.00     0.160 HD
BRANCH   2   4
HETATM    4  C7  UNL     1      35.769  51.425   1.470  1.00  0.00     0.184 C 
HETATM    5  C6  UNL     1      36.406  51.542   0.083  1.00  0.00     0.084 C 
HETATM    6  C4  UNL     1      37.272  52.829   0.485  1.00  0.00     0.083 C 
HETATM    7  C5  UNL     1      37.743  53.317  -0.861  1.00  0.00     0.046 C 
HETATM    8  C19 UNL     1      36.163  53.629   1.040  1.00  0.00     0.118 C 
HETATM    9  N9  UNL     1      35.310  52.837   1.606  1.00  0.00    -0.359 N 
HETATM   10  N10 UNL     1      35.946  55.063   0.976  1.00  0.00    -0.085 NA
ATOM     11  H9  UNL     1      34.453  53.134   2.073  1.00  0.00     0.162 HD
BRANCH   6  12
HETATM   12  N2  UNL     1      38.216  52.301   1.328  1.00  0.00    -0.380 N 
ATOM     13  H2  UNL     1      38.216  51.281   1.318  1.00  0.00     0.157 HD
BRANCH  12  14
HETATM   14  C3  UNL     1      39.151  52.810   2.174  1.00  0.00     0.244 C 
BRANCH  14  15
HETATM   15  C2  UNL     1      39.222  52.481   3.626  1.00  0.00     0.227 C 
HETATM   16  C1  UNL     1      37.848  52.568   4.289  1.00  0.00     0.044 C 
BRANCH  15  17
HETATM   17  N1  UNL     1      39.945  53.601   4.325  1.00  0.00    -0.071 N 
ATOM     18  H13 UNL     1      40.726  53.318   4.917  1.00  0.00     0.274 HD
ATOM     19  H12 UNL     1      40.505  54.206   3.724  1.00  0.00     0.274 HD
ATOM     20  H11 UNL     1      39.170  54.057   4.809  1.00  0.00     0.274 HD
ENDBRANCH  15  17
ENDBRANCH  14  15
BRANCH  14  21
HETATM   21  O1  UNL     1      40.403  52.195   1.682  1.00  0.00    -0.375 OA
ATOM     22  H1  UNL     1      40.157  51.277   1.656  1.00  0.00     0.212 HD
ENDBRANCH  14  21
ENDBRANCH  12  14
ENDBRANCH   6  12
ENDBRANCH   2   4
ENDBRANCH   1   2
BRANCH   1  23
HETATM   23  C9  UNL     1      33.716  48.647   0.431  1.00  0.00     0.059 C 
HETATM   24  C10 UNL     1      32.748  48.383  -0.695  1.00  0.00     0.133 C 
HETATM   25  N4  UNL     1      32.664  46.978  -0.984  1.00  0.00    -0.371 N 
HETATM   26  C11 UNL     1      32.740  45.946  -0.230  1.00  0.00     0.172 A 
ATOM     27  H4  UNL     1      32.518  46.763  -1.971  1.00  0.00     0.161 HD
HETATM   28  C12 UNL     1      32.929  45.841   1.125  1.00  0.00     0.159 A 
HETATM   29  N6  UNL     1      32.632  44.657  -0.677  1.00  0.00    -0.191 N 
HETATM   30  N5  UNL     1      32.938  44.551   1.503  1.00  0.00    -0.244 N 
HETATM   31  N8  UNL     1      33.080  46.822   1.943  1.00  0.00    -0.372 N 
HETATM   32  C17 UNL     1      32.755  43.838   0.386  1.00  0.00     0.355 A 
HETATM   33  O2  UNL     1      32.701  42.575   0.318  1.00  0.00    -0.244 OA
HETATM   34  C18 UNL     1      33.108  48.250   1.773  1.00  0.00     0.133 C 
ATOM     35  H8  UNL     1      33.207  46.527   2.912  1.00  0.00     0.161 HD
BRANCH  30  36
HETATM   36  C13 UNL     1      33.117  44.021   2.852  1.00  0.00     0.052 A 
HETATM   37  C14 UNL     1      34.310  43.610   3.322  1.00  0.00     0.038 A 
HETATM   38  C15 UNL     1      34.338  43.131   4.607  1.00  0.00     0.052 A 
HETATM   39  S1  UNL     1      32.717  43.267   5.114  1.00  0.00    -0.111 SA
HETATM   40  C16 UNL     1      32.043  43.924   3.696  1.00  0.00     0.079 A 
ENDBRANCH  30  36
BRANCH  29  41
HETATM   41  N7  UNL     1      32.433  44.333  -2.020  1.00  0.00    -0.333 N 
ATOM     42  H72 UNL     1      32.229  44.948  -2.808  1.00  0.00     0.177 HD
ATOM     43  H71 UNL     1      32.474  43.377  -2.373  1.00  0.00     0.177 HD
ENDBRANCH  29  41
ENDBRANCH   1  23
TORSDOF 10
ENDMDL
