MODEL 1
REMARK VINA RESULT: -8.562698881      0.000      0.000
REMARK  15 active torsions:
REMARK  status: ('A' for Active; 'I' for Inactive)
REMARK    1  A    between atoms: N1_1  and  N2_4 
REMARK    2  A    between atoms: N2_4  and  C1_5 
REMARK    3  A    between atoms: C1_5  and  O1_6 
REMARK    4  A    between atoms: C1_5  and  C2_8 
REMARK    5  A    between atoms: C2_8  and  O2_9 
REMARK    6  A    between atoms: C3_11  and  N3_12 
REMARK       I    between atoms: N3_12  and  C4_14 
REMARK       I    between atoms: C4_14  and  N4_16 
REMARK    7  A    between atoms: C6_18  and  C7_19 
REMARK    8  A    between atoms: C7_19  and  N5_20 
REMARK    9  A    between atoms: C12_33  and  O6_34 
REMARK   10  A    between atoms: C13_36  and  O7_37 
REMARK   11  A    between atoms: C14_39  and  O8_40 
REMARK   12  A    between atoms: C15_42  and  C16_43 
REMARK   13  A    between atoms: C16_43  and  O9_44 
REMARK   14  A    between atoms: C16_43  and  C17_46 
REMARK   15  A    between atoms: C17_46  and  O10_47 
ROOT
HETATM    1  C2  UNL     1      23.293  19.619  17.317  1.00  0.00     0.149 C 
HETATM    2  C3  UNL     1      22.811  18.467  18.109  1.00  0.00     0.061 C 
HETATM    3  C12 UNL     1      21.376  18.150  18.185  1.00  0.00     0.198 C 
HETATM    4  C13 UNL     1      20.732  18.264  16.846  1.00  0.00     0.181 C 
HETATM    5  C14 UNL     1      21.684  18.505  15.720  1.00  0.00     0.159 C 
HETATM    6  C15 UNL     1      22.674  19.604  15.958  1.00  0.00     0.092 C 
ENDROOT
BRANCH   2   7
HETATM    7  N3  UNL     1      23.480  18.369  19.417  1.00  0.00    -0.309 N 
HETATM    8  C4  UNL     1      23.733  17.132  20.064  1.00  0.00     0.346 C 
HETATM    9  O3  UNL     1      23.348  16.090  19.453  1.00  0.00    -0.245 OA
HETATM   10  N4  UNL     1      24.378  17.055  21.322  1.00  0.00    -0.200 N 
HETATM   11  C5  UNL     1      24.663  15.940  22.017  1.00  0.00     0.151 A 
HETATM   12  N8  UNL     1      24.801  18.097  22.007  1.00  0.00    -0.232 N 
HETATM   13  C6  UNL     1      25.292  16.324  23.184  1.00  0.00     0.063 A 
HETATM   14  N7  UNL     1      25.353  17.661  23.132  1.00  0.00    -0.287 N 
ATOM     15  H7  UNL     1      25.764  18.256  23.851  1.00  0.00     0.188 HD
ATOM     16  H8  UNL     1      24.718  19.073  21.722  1.00  0.00     0.209 HD
ATOM     17  H3  UNL     1      23.775  19.230  19.879  1.00  0.00     0.170 HD
BRANCH  13  18
HETATM   18  C7  UNL     1      25.775  15.429  24.236  1.00  0.00     0.193 C 
BRANCH  18  19
HETATM   19  N5  UNL     1      24.927  15.444  25.412  1.00  0.00    -0.304 N 
HETATM   20  C8  UNL     1      23.945  14.512  25.495  1.00  0.00     0.101 A 
HETATM   21  C9  UNL     1      23.102  14.467  26.582  1.00  0.00     0.092 A 
HETATM   22  C10 UNL     1      23.279  15.387  27.585  1.00  0.00     0.250 A 
HETATM   23  O4  UNL     1      22.539  15.410  28.625  1.00  0.00    -0.268 OA
HETATM   24  N6  UNL     1      24.258  16.321  27.509  1.00  0.00    -0.275 N 
HETATM   25  C11 UNL     1      25.064  16.323  26.415  1.00  0.00     0.329 A 
ATOM     26  H6  UNL     1      24.388  17.004  28.255  1.00  0.00     0.173 HD
HETATM   27  O5  UNL     1      25.977  17.186  26.336  1.00  0.00    -0.246 OA
ENDBRANCH  18  19
ENDBRANCH  13  18
ENDBRANCH   2   7
BRANCH   1  28
HETATM   28  C1  UNL     1      23.322  20.964  17.897  1.00  0.00     0.271 C 
BRANCH  28  29
HETATM   29  N2  UNL     1      22.385  21.226  18.991  1.00  0.00    -0.113 NA
BRANCH  29  30
HETATM   30  N1  UNL     1      21.151  21.690  18.469  1.00  0.00    -0.346 N 
ATOM     31  H12 UNL     1      20.748  22.603  18.676  1.00  0.00     0.172 HD
ATOM     32  H11 UNL     1      20.740  20.978  17.865  1.00  0.00     0.172 HD
ENDBRANCH  29  30
ENDBRANCH  28  29
BRANCH  28  33
HETATM   33  O1  UNL     1      24.528  21.519  18.230  1.00  0.00    -0.374 OA
ATOM     34  H1  UNL     1      25.094  20.825  18.549  1.00  0.00     0.212 HD
ENDBRANCH  28  33
ENDBRANCH   1  28
BRANCH   1  35
HETATM   35  O2  UNL     1      24.674  19.272  17.098  1.00  0.00    -0.379 OA
ATOM     36  H2  UNL     1      24.929  18.770  17.863  1.00  0.00     0.211 HD
ENDBRANCH   1  35
BRANCH   3  37
HETATM   37  O6  UNL     1      20.614  18.807  19.124  1.00  0.00    -0.387 OA
ATOM     38  H6  UNL     1      19.688  18.602  19.173  1.00  0.00     0.210 HD
ENDBRANCH   3  37
BRANCH   6  39
HETATM   39  C16 UNL     1      23.640  19.576  14.798  1.00  0.00     0.151 C 
BRANCH  39  40
HETATM   40  O9  UNL     1      23.744  18.227  14.335  1.00  0.00    -0.393 OA
ATOM     41  H9  UNL     1      24.377  17.775  14.879  1.00  0.00     0.210 HD
ENDBRANCH  39  40
BRANCH  39  42
HETATM   42  C17 UNL     1      23.201  20.406  13.608  1.00  0.00     0.196 C 
BRANCH  42  43
HETATM   43  O10 UNL     1      22.861  19.475  12.584  1.00  0.00    -0.398 OA
ATOM     44  H10 UNL     1      22.825  19.975  11.777  1.00  0.00     0.209 HD
ENDBRANCH  42  43
ENDBRANCH  39  42
ENDBRANCH   6  39
BRANCH   4  45
HETATM   45  O7  UNL     1      19.688  19.221  16.848  1.00  0.00    -0.390 OA
ATOM     46  H7  UNL     1      19.854  19.919  17.470  1.00  0.00     0.210 HD
ENDBRANCH   4  45
BRANCH   5  47
HETATM   47  O8  UNL     1      20.897  18.878  14.622  1.00  0.00    -0.392 OA
ATOM     48  H8  UNL     1      21.300  19.662  14.266  1.00  0.00     0.210 HD
ENDBRANCH   5  47
TORSDOF 15
ENDMDL
MODEL 2
REMARK VINA RESULT: -8.539804777      2.766      3.950
REMARK  15 active torsions:
REMARK  status: ('A' for Active; 'I' for Inactive)
REMARK    1  A    between atoms: N1_1  and  N2_4 
REMARK    2  A    between atoms: N2_4  and  C1_5 
REMARK    3  A    between atoms: C1_5  and  O1_6 
REMARK    4  A    between atoms: C1_5  and  C2_8 
REMARK    5  A    between atoms: C2_8  and  O2_9 
REMARK    6  A    between atoms: C3_11  and  N3_12 
REMARK       I    between atoms: N3_12  and  C4_14 
REMARK       I    between atoms: C4_14  and  N4_16 
REMARK    7  A    between atoms: C6_18  and  C7_19 
REMARK    8  A    between atoms: C7_19  and  N5_20 
REMARK    9  A    between atoms: C12_33  and  O6_34 
REMARK   10  A    between atoms: C13_36  and  O7_37 
REMARK   11  A    between atoms: C14_39  and  O8_40 
REMARK   12  A    between atoms: C15_42  and  C16_43 
REMARK   13  A    between atoms: C16_43  and  O9_44 
REMARK   14  A    between atoms: C16_43  and  C17_46 
REMARK   15  A    between atoms: C17_46  and  O10_47 
ROOT
HETATM    1  C2  UNL     1      22.691  19.846  15.327  1.00  0.00     0.149 C 
HETATM    2  C3  UNL     1      22.272  20.033  16.732  1.00  0.00     0.061 C 
HETATM    3  C12 UNL     1      22.327  21.359  17.367  1.00  0.00     0.198 C 
HETATM    4  C13 UNL     1      21.814  22.414  16.447  1.00  0.00     0.181 C 
HETATM    5  C14 UNL     1      21.217  21.892  15.180  1.00  0.00     0.159 C 
HETATM    6  C15 UNL     1      22.056  20.882  14.459  1.00  0.00     0.092 C 
ENDROOT
BRANCH   2   7
HETATM    7  N3  UNL     1      22.777  18.966  17.613  1.00  0.00    -0.309 N 
HETATM    8  C4  UNL     1      21.951  17.933  18.127  1.00  0.00     0.346 C 
HETATM    9  O3  UNL     1      20.729  17.970  17.788  1.00  0.00    -0.245 OA
HETATM   10  N4  UNL     1      22.452  16.914  18.972  1.00  0.00    -0.200 N 
HETATM   11  C5  UNL     1      21.758  15.897  19.510  1.00  0.00     0.151 A 
HETATM   12  N8  UNL     1      23.707  16.819  19.360  1.00  0.00    -0.232 N 
HETATM   13  C6  UNL     1      22.636  15.144  20.264  1.00  0.00     0.063 A 
HETATM   14  N7  UNL     1      23.823  15.752  20.140  1.00  0.00    -0.287 N 
ATOM     15  H7  UNL     1      24.688  15.440  20.581  1.00  0.00     0.188 HD
ATOM     16  H8  UNL     1      24.462  17.457  19.104  1.00  0.00     0.209 HD
ATOM     17  H3  UNL     1      23.766  18.969  17.864  1.00  0.00     0.170 HD
BRANCH  13  18
HETATM   18  C7  UNL     1      22.303  13.941  21.026  1.00  0.00     0.193 C 
BRANCH  18  19
HETATM   19  N5  UNL     1      22.676  14.045  22.423  1.00  0.00    -0.304 N 
HETATM   20  C8  UNL     1      23.819  14.712  22.724  1.00  0.00     0.101 A 
HETATM   21  C9  UNL     1      24.235  14.850  24.029  1.00  0.00     0.092 A 
HETATM   22  C10 UNL     1      23.466  14.298  25.023  1.00  0.00     0.250 A 
HETATM   23  O4  UNL     1      23.784  14.383  26.256  1.00  0.00    -0.268 OA
HETATM   24  N6  UNL     1      22.323  13.631  24.729  1.00  0.00    -0.275 N 
HETATM   25  C11 UNL     1      21.955  13.522  23.426  1.00  0.00     0.329 A 
ATOM     26  H6  UNL     1      21.753  13.221  25.469  1.00  0.00     0.173 HD
HETATM   27  O5  UNL     1      20.896  12.905  23.144  1.00  0.00    -0.246 OA
ENDBRANCH  18  19
ENDBRANCH  13  18
ENDBRANCH   2   7
BRANCH   1  28
HETATM   28  C1  UNL     1      24.099  19.629  14.990  1.00  0.00     0.271 C 
BRANCH  28  29
HETATM   29  N2  UNL     1      24.380  18.608  13.978  1.00  0.00    -0.113 NA
BRANCH  29  30
HETATM   30  N1  UNL     1      25.062  19.192  12.881  1.00  0.00    -0.346 N 
ATOM     31  H12 UNL     1      25.498  20.113  12.900  1.00  0.00     0.172 HD
ATOM     32  H11 UNL     1      25.047  18.555  12.084  1.00  0.00     0.172 HD
ENDBRANCH  29  30
ENDBRANCH  28  29
BRANCH  28  33
HETATM   33  O1  UNL     1      24.897  20.711  14.733  1.00  0.00    -0.374 OA
ATOM     34  H1  UNL     1      24.426  21.493  14.995  1.00  0.00     0.212 HD
ENDBRANCH  28  33
ENDBRANCH   1  28
BRANCH   1  35
HETATM   35  O2  UNL     1      22.025  18.615  14.980  1.00  0.00    -0.379 OA
ATOM     36  H2  UNL     1      21.288  18.875  14.440  1.00  0.00     0.211 HD
ENDBRANCH   1  35
BRANCH   3  37
HETATM   37  O6  UNL     1      23.520  21.767  17.920  1.00  0.00    -0.387 OA
ATOM     38  H6  UNL     1      23.509  22.506  18.516  1.00  0.00     0.210 HD
ENDBRANCH   3  37
BRANCH   6  39
HETATM   39  C16 UNL     1      21.218  20.358  13.317  1.00  0.00     0.151 C 
BRANCH  39  40
HETATM   40  O9  UNL     1      22.041  19.515  12.508  1.00  0.00    -0.393 OA
ATOM     41  H9  UNL     1      21.478  18.909  12.042  1.00  0.00     0.210 HD
ENDBRANCH  39  40
BRANCH  39  42
HETATM   42  C17 UNL     1      20.037  19.516  13.753  1.00  0.00     0.196 C 
BRANCH  42  43
HETATM   43  O10 UNL     1      19.284  19.254  12.571  1.00  0.00    -0.398 OA
ATOM     44  H10 UNL     1      19.369  18.322  12.407  1.00  0.00     0.209 HD
ENDBRANCH  42  43
ENDBRANCH  39  42
ENDBRANCH   6  39
BRANCH   4  45
HETATM   45  O7  UNL     1      22.796  23.400  16.182  1.00  0.00    -0.390 OA
ATOM     46  H7  UNL     1      23.380  23.520  16.922  1.00  0.00     0.210 HD
ENDBRANCH   4  45
BRANCH   5  47
HETATM   47  O8  UNL     1      21.074  23.001  14.336  1.00  0.00    -0.392 OA
ATOM     48  H8  UNL     1      21.471  22.753  13.509  1.00  0.00     0.210 HD
ENDBRANCH   5  47
TORSDOF 15
ENDMDL
MODEL 3
REMARK VINA RESULT: -8.453190957      2.726      4.256
REMARK  15 active torsions:
REMARK  status: ('A' for Active; 'I' for Inactive)
REMARK    1  A    between atoms: N1_1  and  N2_4 
REMARK    2  A    between atoms: N2_4  and  C1_5 
REMARK    3  A    between atoms: C1_5  and  O1_6 
REMARK    4  A    between atoms: C1_5  and  C2_8 
REMARK    5  A    between atoms: C2_8  and  O2_9 
REMARK    6  A    between atoms: C3_11  and  N3_12 
REMARK       I    between atoms: N3_12  and  C4_14 
REMARK       I    between atoms: C4_14  and  N4_16 
REMARK    7  A    between atoms: C6_18  and  C7_19 
REMARK    8  A    between atoms: C7_19  and  N5_20 
REMARK    9  A    between atoms: C12_33  and  O6_34 
REMARK   10  A    between atoms: C13_36  and  O7_37 
REMARK   11  A    between atoms: C14_39  and  O8_40 
REMARK   12  A    between atoms: C15_42  and  C16_43 
REMARK   13  A    between atoms: C16_43  and  O9_44 
REMARK   14  A    between atoms: C16_43  and  C17_46 
REMARK   15  A    between atoms: C17_46  and  O10_47 
ROOT
HETATM    1  C2  UNL     1      21.586  20.709  16.341  1.00  0.00     0.149 C 
HETATM    2  C3  UNL     1      22.844  19.938  16.440  1.00  0.00     0.061 C 
HETATM    3  C12 UNL     1      23.646  19.643  15.242  1.00  0.00     0.198 C 
HETATM    4  C13 UNL     1      23.749  20.839  14.359  1.00  0.00     0.181 C 
HETATM    5  C14 UNL     1      23.174  22.089  14.943  1.00  0.00     0.159 C 
HETATM    6  C15 UNL     1      21.801  21.940  15.523  1.00  0.00     0.092 C 
ENDROOT
BRANCH   2   7
HETATM    7  N3  UNL     1      22.718  18.775  17.334  1.00  0.00    -0.309 N 
HETATM    8  C4  UNL     1      23.773  18.322  18.167  1.00  0.00     0.346 C 
HETATM    9  O3  UNL     1      24.857  18.978  18.106  1.00  0.00    -0.245 OA
HETATM   10  N4  UNL     1      23.635  17.203  19.021  1.00  0.00    -0.200 N 
HETATM   11  C5  UNL     1      24.568  16.694  19.845  1.00  0.00     0.151 A 
HETATM   12  N8  UNL     1      22.539  16.480  19.131  1.00  0.00    -0.232 N 
HETATM   13  C6  UNL     1      24.011  15.608  20.489  1.00  0.00     0.063 A 
HETATM   14  N7  UNL     1      22.762  15.516  20.016  1.00  0.00    -0.287 N 
ATOM     15  H7  UNL     1      22.081  14.809  20.295  1.00  0.00     0.188 HD
ATOM     16  H8  UNL     1      21.668  16.635  18.623  1.00  0.00     0.209 HD
ATOM     17  H3  UNL     1      21.830  18.271  17.355  1.00  0.00     0.170 HD
BRANCH  13  18
HETATM   18  C7  UNL     1      24.677  14.757  21.475  1.00  0.00     0.193 C 
BRANCH  18  19
HETATM   19  N5  UNL     1      23.824  14.438  22.603  1.00  0.00    -0.304 N 
HETATM   20  C8  UNL     1      24.114  15.013  23.797  1.00  0.00     0.101 A 
HETATM   21  C9  UNL     1      23.347  14.755  24.911  1.00  0.00     0.092 A 
HETATM   22  C10 UNL     1      22.278  13.903  24.787  1.00  0.00     0.250 A 
HETATM   23  O4  UNL     1      21.520  13.614  25.772  1.00  0.00    -0.268 OA
HETATM   24  N6  UNL     1      21.983  13.325  23.596  1.00  0.00    -0.275 N 
HETATM   25  C11 UNL     1      22.771  13.612  22.526  1.00  0.00     0.329 A 
ATOM     26  H6  UNL     1      21.189  12.692  23.506  1.00  0.00     0.173 HD
HETATM   27  O5  UNL     1      22.504  13.080  21.417  1.00  0.00    -0.246 OA
ENDBRANCH  18  19
ENDBRANCH  13  18
ENDBRANCH   2   7
BRANCH   1  28
HETATM   28  C1  UNL     1      20.325  20.041  16.015  1.00  0.00     0.271 C 
BRANCH  28  29
HETATM   29  N2  UNL     1      20.037  19.841  14.594  1.00  0.00    -0.113 NA
BRANCH  29  30
HETATM   30  N1  UNL     1      20.265  18.488  14.240  1.00  0.00    -0.346 N 
ATOM     31  H12 UNL     1      20.912  18.186  13.512  1.00  0.00     0.172 HD
ATOM     32  H11 UNL     1      19.689  17.876  14.819  1.00  0.00     0.172 HD
ENDBRANCH  29  30
ENDBRANCH  28  29
BRANCH  28  33
HETATM   33  O1  UNL     1      19.988  18.892  16.680  1.00  0.00    -0.374 OA
ATOM     34  H1  UNL     1      19.040  18.827  16.693  1.00  0.00     0.212 HD
ENDBRANCH  28  33
ENDBRANCH   1  28
BRANCH   1  35
HETATM   35  O2  UNL     1      21.424  21.187  17.691  1.00  0.00    -0.379 OA
ATOM     36  H2  UNL     1      21.473  20.411  18.237  1.00  0.00     0.211 HD
ENDBRANCH   1  35
BRANCH   3  37
HETATM   37  O6  UNL     1      23.310  18.539  14.491  1.00  0.00    -0.387 OA
ATOM     38  H6  UNL     1      23.058  18.674  13.585  1.00  0.00     0.210 HD
ENDBRANCH   3  37
BRANCH   6  39
HETATM   39  C16 UNL     1      21.473  23.246  16.204  1.00  0.00     0.151 C 
BRANCH  39  40
HETATM   40  O9  UNL     1      22.697  23.948  16.438  1.00  0.00    -0.393 OA
ATOM     41  H9  UNL     1      22.494  24.760  16.886  1.00  0.00     0.210 HD
ENDBRANCH  39  40
BRANCH  39  42
HETATM   42  C17 UNL     1      20.599  24.171  15.382  1.00  0.00     0.196 C 
BRANCH  42  43
HETATM   43  O10 UNL     1      19.418  24.383  16.153  1.00  0.00    -0.398 OA
ATOM     44  H10 UNL     1      18.752  24.667  15.538  1.00  0.00     0.209 HD
ENDBRANCH  42  43
ENDBRANCH  39  42
ENDBRANCH   6  39
BRANCH   4  45
HETATM   45  O7  UNL     1      23.219  20.585  13.071  1.00  0.00    -0.390 OA
ATOM     46  H7  UNL     1      23.591  19.800  12.687  1.00  0.00     0.210 HD
ENDBRANCH   4  45
BRANCH   5  47
HETATM   47  O8  UNL     1      23.088  23.004  13.885  1.00  0.00    -0.392 OA
ATOM     48  H8  UNL     1      22.163  23.199  13.783  1.00  0.00     0.210 HD
ENDBRANCH   5  47
TORSDOF 15
ENDMDL
MODEL 4
REMARK VINA RESULT: -8.437567098      0.880      1.094
REMARK  15 active torsions:
REMARK  status: ('A' for Active; 'I' for Inactive)
REMARK    1  A    between atoms: N1_1  and  N2_4 
REMARK    2  A    between atoms: N2_4  and  C1_5 
REMARK    3  A    between atoms: C1_5  and  O1_6 
REMARK    4  A    between atoms: C1_5  and  C2_8 
REMARK    5  A    between atoms: C2_8  and  O2_9 
REMARK    6  A    between atoms: C3_11  and  N3_12 
REMARK       I    between atoms: N3_12  and  C4_14 
REMARK       I    between atoms: C4_14  and  N4_16 
REMARK    7  A    between atoms: C6_18  and  C7_19 
REMARK    8  A    between atoms: C7_19  and  N5_20 
REMARK    9  A    between atoms: C12_33  and  O6_34 
REMARK   10  A    between atoms: C13_36  and  O7_37 
REMARK   11  A    between atoms: C14_39  and  O8_40 
REMARK   12  A    between atoms: C15_42  and  C16_43 
REMARK   13  A    between atoms: C16_43  and  O9_44 
REMARK   14  A    between atoms: C16_43  and  C17_46 
REMARK   15  A    between atoms: C17_46  and  O10_47 
ROOT
HETATM    1  C2  UNL     1      23.294  19.621  17.317  1.00  0.00     0.149 C 
HETATM    2  C3  UNL     1      22.809  18.469  18.107  1.00  0.00     0.061 C 
HETATM    3  C12 UNL     1      21.374  18.153  18.180  1.00  0.00     0.198 C 
HETATM    4  C13 UNL     1      20.733  18.268  16.840  1.00  0.00     0.181 C 
HETATM    5  C14 UNL     1      21.688  18.508  15.716  1.00  0.00     0.159 C 
HETATM    6  C15 UNL     1      22.679  19.606  15.956  1.00  0.00     0.092 C 
ENDROOT
BRANCH   2   7
HETATM    7  N3  UNL     1      23.475  18.371  19.417  1.00  0.00    -0.309 N 
HETATM    8  C4  UNL     1      23.725  17.134  20.066  1.00  0.00     0.346 C 
HETATM    9  O3  UNL     1      23.339  16.091  19.454  1.00  0.00    -0.245 OA
HETATM   10  N4  UNL     1      24.367  17.056  21.324  1.00  0.00    -0.200 N 
HETATM   11  C5  UNL     1      24.648  15.941  22.020  1.00  0.00     0.151 A 
HETATM   12  N8  UNL     1      24.790  18.098  22.010  1.00  0.00    -0.232 N 
HETATM   13  C6  UNL     1      25.275  16.324  23.189  1.00  0.00     0.063 A 
HETATM   14  N7  UNL     1      25.339  17.661  23.136  1.00  0.00    -0.287 N 
ATOM     15  H7  UNL     1      25.750  18.255  23.856  1.00  0.00     0.188 HD
ATOM     16  H8  UNL     1      24.710  19.074  21.724  1.00  0.00     0.209 HD
ATOM     17  H3  UNL     1      23.771  19.231  19.879  1.00  0.00     0.170 HD
BRANCH  13  18
HETATM   18  C7  UNL     1      25.754  15.429  24.242  1.00  0.00     0.193 C 
BRANCH  18  19
HETATM   19  N5  UNL     1      24.886  15.420  25.403  1.00  0.00    -0.304 N 
HETATM   20  C8  UNL     1      25.241  16.188  26.464  1.00  0.00     0.101 A 
HETATM   21  C9  UNL     1      24.464  16.228  27.600  1.00  0.00     0.092 A 
HETATM   22  C10 UNL     1      23.319  15.473  27.636  1.00  0.00     0.250 A 
HETATM   23  O4  UNL     1      22.547  15.456  28.653  1.00  0.00    -0.268 OA
HETATM   24  N6  UNL     1      22.958  14.704  26.580  1.00  0.00    -0.275 N 
HETATM   25  C11 UNL     1      23.759  14.699  25.482  1.00  0.00     0.329 A 
ATOM     26  H6  UNL     1      22.107  14.143  26.609  1.00  0.00     0.173 HD
HETATM   27  O5  UNL     1      23.431  13.988  24.496  1.00  0.00    -0.246 OA
ENDBRANCH  18  19
ENDBRANCH  13  18
ENDBRANCH   2   7
BRANCH   1  28
HETATM   28  C1  UNL     1      23.324  20.965  17.896  1.00  0.00     0.271 C 
BRANCH  28  29
HETATM   29  N2  UNL     1      22.377  21.232  18.981  1.00  0.00    -0.113 NA
BRANCH  29  30
HETATM   30  N1  UNL     1      21.149  21.696  18.447  1.00  0.00    -0.346 N 
ATOM     31  H12 UNL     1      21.072  22.351  17.669  1.00  0.00     0.172 HD
ATOM     32  H11 UNL     1      20.369  21.277  18.955  1.00  0.00     0.172 HD
ENDBRANCH  29  30
ENDBRANCH  28  29
BRANCH  28  33
HETATM   33  O1  UNL     1      24.529  21.516  18.241  1.00  0.00    -0.374 OA
ATOM     34  H1  UNL     1      24.370  22.182  18.900  1.00  0.00     0.212 HD
ENDBRANCH  28  33
ENDBRANCH   1  28
BRANCH   1  35
HETATM   35  O2  UNL     1      24.676  19.272  17.101  1.00  0.00    -0.379 OA
ATOM     36  H2  UNL     1      25.091  20.072  16.800  1.00  0.00     0.211 HD
ENDBRANCH   1  35
BRANCH   3  37
HETATM   37  O6  UNL     1      20.610  18.812  19.118  1.00  0.00    -0.387 OA
ATOM     38  H6  UNL     1      19.667  18.813  19.006  1.00  0.00     0.210 HD
ENDBRANCH   3  37
BRANCH   6  39
HETATM   39  C16 UNL     1      23.647  19.577  14.798  1.00  0.00     0.151 C 
BRANCH  39  40
HETATM   40  O9  UNL     1      23.753  18.228  14.337  1.00  0.00    -0.393 OA
ATOM     41  H9  UNL     1      24.674  18.010  14.264  1.00  0.00     0.210 HD
ENDBRANCH  39  40
BRANCH  39  42
HETATM   42  C17 UNL     1      23.211  20.405  13.607  1.00  0.00     0.196 C 
BRANCH  42  43
HETATM   43  O10 UNL     1      22.881  19.472  12.580  1.00  0.00    -0.398 OA
ATOM     44  H10 UNL     1      23.137  19.882  11.762  1.00  0.00     0.209 HD
ENDBRANCH  42  43
ENDBRANCH  39  42
ENDBRANCH   6  39
BRANCH   4  45
HETATM   45  O7  UNL     1      19.690  19.227  16.840  1.00  0.00    -0.390 OA
ATOM     46  H7  UNL     1      19.994  20.075  16.542  1.00  0.00     0.210 HD
ENDBRANCH   4  45
BRANCH   5  47
HETATM   47  O8  UNL     1      20.903  18.882  14.617  1.00  0.00    -0.392 OA
ATOM     48  H8  UNL     1      20.200  19.416  14.967  1.00  0.00     0.210 HD
ENDBRANCH   5  47
TORSDOF 15
ENDMDL
MODEL 5
REMARK VINA RESULT: -8.349151558      2.523      3.845
REMARK  15 active torsions:
REMARK  status: ('A' for Active; 'I' for Inactive)
REMARK    1  A    between atoms: N1_1  and  N2_4 
REMARK    2  A    between atoms: N2_4  and  C1_5 
REMARK    3  A    between atoms: C1_5  and  O1_6 
REMARK    4  A    between atoms: C1_5  and  C2_8 
REMARK    5  A    between atoms: C2_8  and  O2_9 
REMARK    6  A    between atoms: C3_11  and  N3_12 
REMARK       I    between atoms: N3_12  and  C4_14 
REMARK       I    between atoms: C4_14  and  N4_16 
REMARK    7  A    between atoms: C6_18  and  C7_19 
REMARK    8  A    between atoms: C7_19  and  N5_20 
REMARK    9  A    between atoms: C12_33  and  O6_34 
REMARK   10  A    between atoms: C13_36  and  O7_37 
REMARK   11  A    between atoms: C14_39  and  O8_40 
REMARK   12  A    between atoms: C15_42  and  C16_43 
REMARK   13  A    between atoms: C16_43  and  O9_44 
REMARK   14  A    between atoms: C16_43  and  C17_46 
REMARK   15  A    between atoms: C17_46  and  O10_47 
ROOT
HETATM    1  C2  UNL     1      21.707  20.386  16.315  1.00  0.00     0.149 C 
HETATM    2  C3  UNL     1      23.007  19.692  16.432  1.00  0.00     0.061 C 
HETATM    3  C12 UNL     1      23.816  19.398  15.238  1.00  0.00     0.198 C 
HETATM    4  C13 UNL     1      23.844  20.564  14.311  1.00  0.00     0.181 C 
HETATM    5  C14 UNL     1      23.203  21.800  14.853  1.00  0.00     0.159 C 
HETATM    6  C15 UNL     1      21.844  21.595  15.450  1.00  0.00     0.092 C 
ENDROOT
BRANCH   2   7
HETATM    7  N3  UNL     1      22.954  18.558  17.370  1.00  0.00    -0.309 N 
HETATM    8  C4  UNL     1      23.972  18.294  18.322  1.00  0.00     0.346 C 
HETATM    9  O3  UNL     1      24.954  19.097  18.331  1.00  0.00    -0.245 OA
HETATM   10  N4  UNL     1      23.905  17.200  19.217  1.00  0.00    -0.200 N 
HETATM   11  C5  UNL     1      24.811  16.864  20.151  1.00  0.00     0.151 A 
HETATM   12  N8  UNL     1      22.915  16.332  19.259  1.00  0.00    -0.232 N 
HETATM   13  C6  UNL     1      24.348  15.734  20.795  1.00  0.00     0.063 A 
HETATM   14  N7  UNL     1      23.179  15.445  20.211  1.00  0.00    -0.287 N 
ATOM     15  H7  UNL     1      22.579  14.659  20.460  1.00  0.00     0.188 HD
ATOM     16  H8  UNL     1      22.087  16.340  18.663  1.00  0.00     0.209 HD
ATOM     17  H3  UNL     1      22.148  17.933  17.333  1.00  0.00     0.170 HD
BRANCH  13  18
HETATM   18  C7  UNL     1      25.023  15.026  21.884  1.00  0.00     0.193 C 
BRANCH  18  19
HETATM   19  N5  UNL     1      24.121  14.675  22.963  1.00  0.00    -0.304 N 
HETATM   20  C8  UNL     1      23.004  13.971  22.649  1.00  0.00     0.101 A 
HETATM   21  C9  UNL     1      22.103  13.604  23.623  1.00  0.00     0.092 A 
HETATM   22  C10 UNL     1      22.359  13.965  24.922  1.00  0.00     0.250 A 
HETATM   23  O4  UNL     1      21.572  13.663  25.880  1.00  0.00    -0.268 OA
HETATM   24  N6  UNL     1      23.473  14.669  25.242  1.00  0.00    -0.275 N 
HETATM   25  C11 UNL     1      24.332  15.007  24.245  1.00  0.00     0.329 A 
ATOM     26  H6  UNL     1      23.662  14.937  26.208  1.00  0.00     0.173 HD
HETATM   27  O5  UNL     1      25.369  15.660  24.533  1.00  0.00    -0.246 OA
ENDBRANCH  18  19
ENDBRANCH  13  18
ENDBRANCH   2   7
BRANCH   1  28
HETATM   28  C1  UNL     1      20.483  19.635  16.027  1.00  0.00     0.271 C 
BRANCH  28  29
HETATM   29  N2  UNL     1      20.603  18.527  15.077  1.00  0.00    -0.113 NA
BRANCH  29  30
HETATM   30  N1  UNL     1      20.388  18.997  13.757  1.00  0.00    -0.346 N 
ATOM     31  H12 UNL     1      20.473  18.419  12.921  1.00  0.00     0.172 HD
ATOM     32  H11 UNL     1      20.141  19.987  13.777  1.00  0.00     0.172 HD
ENDBRANCH  29  30
ENDBRANCH  28  29
BRANCH  28  33
HETATM   33  O1  UNL     1      19.696  19.218  17.067  1.00  0.00    -0.374 OA
ATOM     34  H1  UNL     1      18.957  19.811  17.132  1.00  0.00     0.212 HD
ENDBRANCH  28  33
ENDBRANCH   1  28
BRANCH   1  35
HETATM   35  O2  UNL     1      21.527  20.904  17.648  1.00  0.00    -0.379 OA
ATOM     36  H2  UNL     1      22.182  20.464  18.177  1.00  0.00     0.211 HD
ENDBRANCH   1  35
BRANCH   3  37
HETATM   37  O6  UNL     1      23.539  18.249  14.532  1.00  0.00    -0.387 OA
ATOM     38  H6  UNL     1      24.175  17.952  13.892  1.00  0.00     0.210 HD
ENDBRANCH   3  37
BRANCH   6  39
HETATM   39  C16 UNL     1      21.448  22.906  16.085  1.00  0.00     0.151 C 
BRANCH  39  40
HETATM   40  O9  UNL     1      22.637  23.572  16.516  1.00  0.00    -0.393 OA
ATOM     41  H9  UNL     1      22.671  23.538  17.464  1.00  0.00     0.210 HD
ENDBRANCH  39  40
BRANCH  39  42
HETATM   42  C17 UNL     1      20.737  23.858  15.146  1.00  0.00     0.196 C 
BRANCH  42  43
HETATM   43  O10 UNL     1      19.479  24.143  15.754  1.00  0.00    -0.398 OA
ATOM     44  H10 UNL     1      18.827  23.693  15.229  1.00  0.00     0.209 HD
ENDBRANCH  42  43
ENDBRANCH  39  42
ENDBRANCH   6  39
BRANCH   4  45
HETATM   45  O7  UNL     1      23.320  20.232  13.037  1.00  0.00    -0.390 OA
ATOM     46  H7  UNL     1      22.378  20.346  13.005  1.00  0.00     0.210 HD
ENDBRANCH   4  45
BRANCH   5  47
HETATM   47  O8  UNL     1      23.057  22.668  13.762  1.00  0.00    -0.392 OA
ATOM     48  H8  UNL     1      23.767  23.297  13.832  1.00  0.00     0.210 HD
ENDBRANCH   5  47
TORSDOF 15
ENDMDL
