MODEL 1
REMARK VINA RESULT: -9.374532442      0.000      0.000
REMARK  16 active torsions:
REMARK  status: ('A' for Active; 'I' for Inactive)
REMARK       I    between atoms: C2_2  and  N1_4 
REMARK    1  A    between atoms: N1_4  and  C3_6 
REMARK    2  A    between atoms: C4_7  and  O2_8 
REMARK    3  A    between atoms: C5_10  and  O3_11 
REMARK    4  A    between atoms: C6_13  and  O4_14 
REMARK    5  A    between atoms: C6_13  and  C7_16 
REMARK       I    between atoms: C7_16  and  N2_18 
REMARK    6  A    between atoms: N2_18  and  N3_20 
REMARK    7  A    between atoms: N3_20  and  N4_22 
REMARK    8  A    between atoms: C8_25  and  O6_26 
REMARK    9  A    between atoms: C9_28  and  O7_29 
REMARK   10  A    between atoms: O7_29  and  C10_30 
REMARK   11  A    between atoms: C10_30  and  C11_31 
REMARK   12  A    between atoms: C11_31  and  O8_32 
REMARK   13  A    between atoms: C12_35  and  C13_36 
REMARK   14  A    between atoms: C13_36  and  O10_37 
REMARK   15  A    between atoms: C13_36  and  C14_39 
REMARK   16  A    between atoms: C14_39  and  O11_40 
ROOT
HETATM    1  C3  UNL     1      22.403  20.865  18.021  1.00  0.00     0.147 C 
HETATM    2  C4  UNL     1      22.765  21.554  16.755  1.00  0.00     0.175 C 
HETATM    3  C5  UNL     1      22.078  21.024  15.534  1.00  0.00     0.195 C 
HETATM    4  C6  UNL     1      21.850  19.556  15.533  1.00  0.00     0.196 C 
HETATM    5  C8  UNL     1      21.625  18.906  16.857  1.00  0.00     0.196 C 
HETATM    6  C9  UNL     1      22.701  19.373  17.814  1.00  0.00     0.179 C 
ENDROOT
BRANCH   6   7
HETATM    7  O7  UNL     1      22.816  18.692  18.943  1.00  0.00    -0.373 OA
BRANCH   7   8
HETATM    8  C10 UNL     1      22.744  17.386  19.127  1.00  0.00     0.270 C 
BRANCH   8   9
HETATM    9  C11 UNL     1      23.820  16.765  19.985  1.00  0.00     0.307 C 
HETATM   10  O9  UNL     1      23.576  15.411  20.198  1.00  0.00    -0.298 OA
HETATM   11  C12 UNL     1      22.972  15.106  21.379  1.00  0.00     0.297 C 
HETATM   12  O12 UNL     1      23.991  14.633  22.246  1.00  0.00    -0.346 OA
HETATM   13  C15 UNL     1      25.052  15.513  22.054  1.00  0.00     0.204 C 
HETATM   14  C16 UNL     1      25.789  15.963  23.266  1.00  0.00     0.208 C 
HETATM   15  C17 UNL     1      24.477  16.901  22.215  1.00  0.00     0.296 C 
HETATM   16  O13 UNL     1      25.680  17.287  22.773  1.00  0.00    -0.356 OA
HETATM   17  O14 UNL     1      24.044  17.492  21.089  1.00  0.00    -0.298 OA
BRANCH   9  18
HETATM   18  O8  UNL     1      25.000  16.766  19.196  1.00  0.00    -0.341 OA
ATOM     19  H8  UNL     1      25.643  16.265  19.685  1.00  0.00     0.215 HD
ENDBRANCH   9  18
BRANCH  11  20
HETATM   20  C13 UNL     1      22.087  13.874  21.133  1.00  0.00     0.197 C 
BRANCH  20  21
HETATM   21  O10 UNL     1      20.919  14.342  20.540  1.00  0.00    -0.389 OA
ATOM     22  H10 UNL     1      21.189  14.920  19.835  1.00  0.00     0.210 HD
ENDBRANCH  20  21
BRANCH  20  23
HETATM   23  C14 UNL     1      21.694  13.371  22.521  1.00  0.00     0.200 C 
BRANCH  23  24
HETATM   24  O11 UNL     1      21.323  12.039  22.507  1.00  0.00    -0.398 OA
ATOM     25  H11 UNL     1      21.383  11.641  23.367  1.00  0.00     0.209 HD
ENDBRANCH  23  24
ENDBRANCH  20  23
ENDBRANCH  11  20
ENDBRANCH   8   9
ENDBRANCH   7   8
ENDBRANCH   6   7
BRANCH   1  26
HETATM   26  N1  UNL     1      23.189  21.409  19.088  1.00  0.00    -0.352 N 
HETATM   27  C2  UNL     1      22.727  22.547  19.794  1.00  0.00     0.214 C 
HETATM   28  C1  UNL     1      23.511  23.149  20.912  1.00  0.00     0.117 C 
HETATM   29  O1  UNL     1      21.629  23.058  19.464  1.00  0.00    -0.274 OA
ATOM     30  H1  UNL     1      24.078  20.978  19.339  1.00  0.00     0.163 HD
ENDBRANCH   1  26
BRANCH   5  31
HETATM   31  O6  UNL     1      20.360  19.177  17.292  1.00  0.00    -0.389 OA
ATOM     32  H6  UNL     1      19.852  18.374  17.317  1.00  0.00     0.210 HD
ENDBRANCH   5  31
BRANCH   2  33
HETATM   33  O2  UNL     1      24.158  21.491  16.576  1.00  0.00    -0.391 OA
ATOM     34  H2  UNL     1      24.349  21.085  15.738  1.00  0.00     0.210 HD
ENDBRANCH   2  33
BRANCH   4  35
HETATM   35  O4  UNL     1      23.015  18.934  14.997  1.00  0.00    -0.375 OA
ATOM     36  H4  UNL     1      22.979  18.010  15.217  1.00  0.00     0.211 HD
ENDBRANCH   4  35
BRANCH   4  37
HETATM   37  C7  UNL     1      20.754  19.139  14.613  1.00  0.00     0.277 C 
HETATM   38  O5  UNL     1      19.783  18.407  15.011  1.00  0.00    -0.268 OA
HETATM   39  N2  UNL     1      20.714  19.517  13.265  1.00  0.00    -0.253 N 
ATOM     40  H2  UNL     1      21.463  20.100  12.893  1.00  0.00     0.191 HD
BRANCH  39  41
HETATM   41  N3  UNL     1      19.668  19.115  12.403  1.00  0.00    -0.247 N 
ATOM     42  H3  UNL     1      18.693  19.227  12.680  1.00  0.00     0.207 HD
BRANCH  41  43
HETATM   43  N4  UNL     1      19.972  18.603  11.260  1.00  0.00    -0.331 N 
ATOM     44  H42 UNL     1      20.289  17.634  11.207  1.00  0.00     0.178 HD
ATOM     45  H41 UNL     1      19.888  19.184  10.427  1.00  0.00     0.178 HD
ENDBRANCH  41  43
ENDBRANCH  39  41
ENDBRANCH   4  37
BRANCH   3  46
HETATM   46  O3  UNL     1      20.957  21.799  15.253  1.00  0.00    -0.389 OA
ATOM     47  H3  UNL     1      21.200  22.716  15.222  1.00  0.00     0.210 HD
ENDBRANCH   3  46
TORSDOF 16
ENDMDL
MODEL 2
REMARK VINA RESULT: -9.327893741      0.874      2.561
REMARK  16 active torsions:
REMARK  status: ('A' for Active; 'I' for Inactive)
REMARK       I    between atoms: C2_2  and  N1_4 
REMARK    1  A    between atoms: N1_4  and  C3_6 
REMARK    2  A    between atoms: C4_7  and  O2_8 
REMARK    3  A    between atoms: C5_10  and  O3_11 
REMARK    4  A    between atoms: C6_13  and  O4_14 
REMARK    5  A    between atoms: C6_13  and  C7_16 
REMARK       I    between atoms: C7_16  and  N2_18 
REMARK    6  A    between atoms: N2_18  and  N3_20 
REMARK    7  A    between atoms: N3_20  and  N4_22 
REMARK    8  A    between atoms: C8_25  and  O6_26 
REMARK    9  A    between atoms: C9_28  and  O7_29 
REMARK   10  A    between atoms: O7_29  and  C10_30 
REMARK   11  A    between atoms: C10_30  and  C11_31 
REMARK   12  A    between atoms: C11_31  and  O8_32 
REMARK   13  A    between atoms: C12_35  and  C13_36 
REMARK   14  A    between atoms: C13_36  and  O10_37 
REMARK   15  A    between atoms: C13_36  and  C14_39 
REMARK   16  A    between atoms: C14_39  and  O11_40 
ROOT
HETATM    1  C3  UNL     1      22.454  21.220  17.975  1.00  0.00     0.147 C 
HETATM    2  C4  UNL     1      22.741  21.848  16.659  1.00  0.00     0.175 C 
HETATM    3  C5  UNL     1      22.038  21.215  15.497  1.00  0.00     0.195 C 
HETATM    4  C6  UNL     1      21.880  19.741  15.590  1.00  0.00     0.196 C 
HETATM    5  C8  UNL     1      21.731  19.162  16.957  1.00  0.00     0.196 C 
HETATM    6  C9  UNL     1      22.815  19.733  17.846  1.00  0.00     0.179 C 
ENDROOT
BRANCH   6   7
HETATM    7  O7  UNL     1      23.000  19.127  19.006  1.00  0.00    -0.373 OA
BRANCH   7   8
HETATM    8  C10 UNL     1      23.658  18.009  19.256  1.00  0.00     0.270 C 
BRANCH   8   9
HETATM    9  C11 UNL     1      23.017  17.051  20.232  1.00  0.00     0.307 C 
HETATM   10  O9  UNL     1      23.434  17.305  21.535  1.00  0.00    -0.298 OA
HETATM   11  C12 UNL     1      24.445  16.515  21.989  1.00  0.00     0.297 C 
HETATM   12  O12 UNL     1      23.849  15.526  22.814  1.00  0.00    -0.346 OA
HETATM   13  C15 UNL     1      22.720  15.116  22.111  1.00  0.00     0.204 C 
HETATM   14  C16 UNL     1      22.432  13.657  22.080  1.00  0.00     0.208 C 
HETATM   15  C17 UNL     1      23.196  14.780  20.717  1.00  0.00     0.296 C 
HETATM   16  O13 UNL     1      22.246  13.779  20.682  1.00  0.00    -0.356 OA
HETATM   17  O14 UNL     1      23.144  15.781  19.822  1.00  0.00    -0.298 OA
BRANCH   9  18
HETATM   18  O8  UNL     1      21.637  17.381  20.257  1.00  0.00    -0.341 OA
ATOM     19  H8  UNL     1      21.170  16.554  20.269  1.00  0.00     0.215 HD
ENDBRANCH   9  18
BRANCH  11  20
HETATM   20  C13 UNL     1      25.283  17.360  22.961  1.00  0.00     0.197 C 
BRANCH  20  21
HETATM   21  O10 UNL     1      26.585  17.345  22.473  1.00  0.00    -0.389 OA
ATOM     22  H10 UNL     1      26.918  18.230  22.570  1.00  0.00     0.210 HD
ENDBRANCH  20  21
BRANCH  20  23
HETATM   23  C14 UNL     1      25.305  16.573  24.270  1.00  0.00     0.200 C 
BRANCH  23  24
HETATM   24  O11 UNL     1      26.219  15.536  24.241  1.00  0.00    -0.398 OA
ATOM     25  H11 UNL     1      25.800  14.692  24.123  1.00  0.00     0.209 HD
ENDBRANCH  23  24
ENDBRANCH  20  23
ENDBRANCH  11  20
ENDBRANCH   8   9
ENDBRANCH   7   8
ENDBRANCH   6   7
BRANCH   1  26
HETATM   26  N1  UNL     1      23.249  21.861  18.980  1.00  0.00    -0.352 N 
HETATM   27  C2  UNL     1      22.693  22.905  19.759  1.00  0.00     0.214 C 
HETATM   28  C1  UNL     1      23.482  23.602  20.816  1.00  0.00     0.117 C 
HETATM   29  O1  UNL     1      21.504  23.247  19.549  1.00  0.00    -0.274 OA
ATOM     30  H1  UNL     1      24.214  21.567  19.133  1.00  0.00     0.163 HD
ENDBRANCH   1  26
BRANCH   5  31
HETATM   31  O6  UNL     1      20.469  19.401  17.422  1.00  0.00    -0.389 OA
ATOM     32  H6  UNL     1      20.051  18.579  17.647  1.00  0.00     0.210 HD
ENDBRANCH   5  31
BRANCH   2  33
HETATM   33  O2  UNL     1      24.129  21.837  16.433  1.00  0.00    -0.391 OA
ATOM     34  H2  UNL     1      24.337  22.444  15.733  1.00  0.00     0.210 HD
ENDBRANCH   2  33
BRANCH   4  35
HETATM   35  O4  UNL     1      23.054  19.141  15.049  1.00  0.00    -0.375 OA
ATOM     36  H4  UNL     1      23.399  18.539  15.699  1.00  0.00     0.211 HD
ENDBRANCH   4  35
BRANCH   4  37
HETATM   37  C7  UNL     1      20.774  19.221  14.737  1.00  0.00     0.277 C 
HETATM   38  O5  UNL     1      19.862  18.457  15.208  1.00  0.00    -0.268 OA
HETATM   39  N2  UNL     1      20.660  19.530  13.375  1.00  0.00    -0.253 N 
ATOM     40  H2  UNL     1      21.360  20.135  12.946  1.00  0.00     0.191 HD
BRANCH  39  41
HETATM   41  N3  UNL     1      19.606  19.031  12.577  1.00  0.00    -0.247 N 
ATOM     42  H3  UNL     1      18.657  18.970  12.946  1.00  0.00     0.207 HD
BRANCH  41  43
HETATM   43  N4  UNL     1      19.868  18.653  11.373  1.00  0.00    -0.331 N 
ATOM     44  H42 UNL     1      20.837  18.502  11.090  1.00  0.00     0.178 HD
ATOM     45  H41 UNL     1      19.093  18.512  10.725  1.00  0.00     0.178 HD
ENDBRANCH  41  43
ENDBRANCH  39  41
ENDBRANCH   4  37
BRANCH   3  46
HETATM   46  O3  UNL     1      20.873  21.920  15.213  1.00  0.00    -0.389 OA
ATOM     47  H3  UNL     1      20.701  21.892  14.279  1.00  0.00     0.210 HD
ENDBRANCH   3  46
TORSDOF 16
ENDMDL
MODEL 3
REMARK VINA RESULT: -9.193496916      1.268      1.561
REMARK  16 active torsions:
REMARK  status: ('A' for Active; 'I' for Inactive)
REMARK       I    between atoms: C2_2  and  N1_4 
REMARK    1  A    between atoms: N1_4  and  C3_6 
REMARK    2  A    between atoms: C4_7  and  O2_8 
REMARK    3  A    between atoms: C5_10  and  O3_11 
REMARK    4  A    between atoms: C6_13  and  O4_14 
REMARK    5  A    between atoms: C6_13  and  C7_16 
REMARK       I    between atoms: C7_16  and  N2_18 
REMARK    6  A    between atoms: N2_18  and  N3_20 
REMARK    7  A    between atoms: N3_20  and  N4_22 
REMARK    8  A    between atoms: C8_25  and  O6_26 
REMARK    9  A    between atoms: C9_28  and  O7_29 
REMARK   10  A    between atoms: O7_29  and  C10_30 
REMARK   11  A    between atoms: C10_30  and  C11_31 
REMARK   12  A    between atoms: C11_31  and  O8_32 
REMARK   13  A    between atoms: C12_35  and  C13_36 
REMARK   14  A    between atoms: C13_36  and  O10_37 
REMARK   15  A    between atoms: C13_36  and  C14_39 
REMARK   16  A    between atoms: C14_39  and  O11_40 
ROOT
HETATM    1  C3  UNL     1      22.680  21.312  17.732  1.00  0.00     0.147 C 
HETATM    2  C4  UNL     1      22.748  22.063  16.451  1.00  0.00     0.175 C 
HETATM    3  C5  UNL     1      22.013  21.425  15.312  1.00  0.00     0.195 C 
HETATM    4  C6  UNL     1      22.050  19.940  15.298  1.00  0.00     0.196 C 
HETATM    5  C8  UNL     1      22.117  19.253  16.620  1.00  0.00     0.196 C 
HETATM    6  C9  UNL     1      23.207  19.899  17.447  1.00  0.00     0.179 C 
ENDROOT
BRANCH   6   7
HETATM    7  O7  UNL     1      23.586  19.243  18.531  1.00  0.00    -0.373 OA
BRANCH   7   8
HETATM    8  C10 UNL     1      24.743  18.653  18.775  1.00  0.00     0.270 C 
BRANCH   8   9
HETATM    9  C11 UNL     1      24.696  17.390  19.602  1.00  0.00     0.307 C 
HETATM   10  O9  UNL     1      23.541  16.659  19.340  1.00  0.00    -0.298 OA
HETATM   11  C12 UNL     1      22.522  16.840  20.226  1.00  0.00     0.297 C 
HETATM   12  O12 UNL     1      22.537  15.719  21.096  1.00  0.00    -0.346 OA
HETATM   13  C15 UNL     1      23.882  15.525  21.398  1.00  0.00     0.204 C 
HETATM   14  C16 UNL     1      24.222  15.210  22.811  1.00  0.00     0.208 C 
HETATM   15  C17 UNL     1      24.404  16.868  21.853  1.00  0.00     0.296 C 
HETATM   16  O13 UNL     1      25.232  16.199  22.732  1.00  0.00    -0.356 OA
HETATM   17  O14 UNL     1      24.937  17.646  20.896  1.00  0.00    -0.298 OA
BRANCH   9  18
HETATM   18  O8  UNL     1      25.732  16.557  19.106  1.00  0.00    -0.341 OA
ATOM     19  H8  UNL     1      26.544  16.925  19.434  1.00  0.00     0.215 HD
ENDBRANCH   9  18
BRANCH  11  20
HETATM   20  C13 UNL     1      21.208  16.692  19.445  1.00  0.00     0.197 C 
BRANCH  20  21
HETATM   21  O10 UNL     1      20.511  17.883  19.620  1.00  0.00    -0.389 OA
ATOM     22  H10 UNL     1      21.112  18.582  19.390  1.00  0.00     0.210 HD
ENDBRANCH  20  21
BRANCH  20  23
HETATM   23  C14 UNL     1      20.414  15.616  20.183  1.00  0.00     0.200 C 
BRANCH  23  24
HETATM   24  O11 UNL     1      20.458  14.396  19.532  1.00  0.00    -0.398 OA
ATOM     25  H11 UNL     1      21.127  14.373  18.858  1.00  0.00     0.209 HD
ENDBRANCH  23  24
ENDBRANCH  20  23
ENDBRANCH  11  20
ENDBRANCH   8   9
ENDBRANCH   7   8
ENDBRANCH   6   7
BRANCH   1  26
HETATM   26  N1  UNL     1      23.489  21.982  18.707  1.00  0.00    -0.352 N 
HETATM   27  C2  UNL     1      22.892  22.894  19.611  1.00  0.00     0.214 C 
HETATM   28  C1  UNL     1      23.694  23.615  20.642  1.00  0.00     0.117 C 
HETATM   29  O1  UNL     1      21.656  23.097  19.537  1.00  0.00    -0.274 OA
ATOM     30  H1  UNL     1      24.492  21.802  18.749  1.00  0.00     0.163 HD
ENDBRANCH   1  26
BRANCH   5  31
HETATM   31  O6  UNL     1      20.890  19.290  17.219  1.00  0.00    -0.389 OA
ATOM     32  H6  UNL     1      20.435  18.471  17.065  1.00  0.00     0.210 HD
ENDBRANCH   5  31
BRANCH   2  33
HETATM   33  O2  UNL     1      24.095  22.251  16.096  1.00  0.00    -0.391 OA
ATOM     34  H2  UNL     1      24.506  22.835  16.723  1.00  0.00     0.210 HD
ENDBRANCH   2  33
BRANCH   4  35
HETATM   35  O4  UNL     1      23.227  19.540  14.601  1.00  0.00    -0.375 OA
ATOM     36  H4  UNL     1      23.969  19.961  15.018  1.00  0.00     0.211 HD
ENDBRANCH   4  35
BRANCH   4  37
HETATM   37  C7  UNL     1      20.935  19.339  14.512  1.00  0.00     0.277 C 
HETATM   38  O5  UNL     1      20.106  18.520  15.038  1.00  0.00    -0.268 OA
HETATM   39  N2  UNL     1      20.722  19.628  13.158  1.00  0.00    -0.253 N 
ATOM     40  H2  UNL     1      21.354  20.275  12.686  1.00  0.00     0.191 HD
BRANCH  39  41
HETATM   41  N3  UNL     1      19.660  19.052  12.425  1.00  0.00    -0.247 N 
ATOM     42  H3  UNL     1      18.721  19.002  12.820  1.00  0.00     0.207 HD
BRANCH  41  43
HETATM   43  N4  UNL     1      19.903  18.589  11.246  1.00  0.00    -0.331 N 
ATOM     44  H42 UNL     1      20.422  17.717  11.141  1.00  0.00     0.178 HD
ATOM     45  H41 UNL     1      19.567  19.112  10.438  1.00  0.00     0.178 HD
ENDBRANCH  41  43
ENDBRANCH  39  41
ENDBRANCH   4  37
BRANCH   3  46
HETATM   46  O3  UNL     1      20.745  21.988  15.197  1.00  0.00    -0.389 OA
ATOM     47  H3  UNL     1      20.319  21.662  14.414  1.00  0.00     0.210 HD
ENDBRANCH   3  46
TORSDOF 16
ENDMDL
MODEL 4
REMARK VINA RESULT: -9.117983709      1.405      2.993
REMARK  16 active torsions:
REMARK  status: ('A' for Active; 'I' for Inactive)
REMARK       I    between atoms: C2_2  and  N1_4 
REMARK    1  A    between atoms: N1_4  and  C3_6 
REMARK    2  A    between atoms: C4_7  and  O2_8 
REMARK    3  A    between atoms: C5_10  and  O3_11 
REMARK    4  A    between atoms: C6_13  and  O4_14 
REMARK    5  A    between atoms: C6_13  and  C7_16 
REMARK       I    between atoms: C7_16  and  N2_18 
REMARK    6  A    between atoms: N2_18  and  N3_20 
REMARK    7  A    between atoms: N3_20  and  N4_22 
REMARK    8  A    between atoms: C8_25  and  O6_26 
REMARK    9  A    between atoms: C9_28  and  O7_29 
REMARK   10  A    between atoms: O7_29  and  C10_30 
REMARK   11  A    between atoms: C10_30  and  C11_31 
REMARK   12  A    between atoms: C11_31  and  O8_32 
REMARK   13  A    between atoms: C12_35  and  C13_36 
REMARK   14  A    between atoms: C13_36  and  O10_37 
REMARK   15  A    between atoms: C13_36  and  C14_39 
REMARK   16  A    between atoms: C14_39  and  O11_40 
ROOT
HETATM    1  C3  UNL     1      22.718  21.101  17.806  1.00  0.00     0.147 C 
HETATM    2  C4  UNL     1      23.487  21.818  16.756  1.00  0.00     0.175 C 
HETATM    3  C5  UNL     1      23.020  21.564  15.355  1.00  0.00     0.195 C 
HETATM    4  C6  UNL     1      22.537  20.182  15.099  1.00  0.00     0.196 C 
HETATM    5  C8  UNL     1      21.893  19.469  16.241  1.00  0.00     0.196 C 
HETATM    6  C9  UNL     1      22.780  19.607  17.459  1.00  0.00     0.179 C 
ENDROOT
BRANCH   6   7
HETATM    7  O7  UNL     1      22.502  18.811  18.479  1.00  0.00    -0.373 OA
BRANCH   7   8
HETATM    8  C10 UNL     1      22.134  17.542  18.457  1.00  0.00     0.270 C 
BRANCH   8   9
HETATM    9  C11 UNL     1      22.143  16.813  19.779  1.00  0.00     0.307 C 
HETATM   10  O9  UNL     1      22.801  17.553  20.757  1.00  0.00    -0.298 OA
HETATM   11  C12 UNL     1      24.100  17.207  20.976  1.00  0.00     0.297 C 
HETATM   12  O12 UNL     1      24.117  16.413  22.152  1.00  0.00    -0.346 OA
HETATM   13  C15 UNL     1      23.035  15.549  22.008  1.00  0.00     0.204 C 
HETATM   14  C16 UNL     1      23.245  14.128  22.397  1.00  0.00     0.208 C 
HETATM   15  C17 UNL     1      23.184  14.918  20.644  1.00  0.00     0.296 C 
HETATM   16  O13 UNL     1      22.645  13.760  21.168  1.00  0.00    -0.356 OA
HETATM   17  O14 UNL     1      22.559  15.547  19.634  1.00  0.00    -0.298 OA
BRANCH   9  18
HETATM   18  O8  UNL     1      20.797  16.797  20.228  1.00  0.00    -0.341 OA
ATOM     19  H8  UNL     1      20.676  17.598  20.725  1.00  0.00     0.215 HD
ENDBRANCH   9  18
BRANCH  11  20
HETATM   20  C13 UNL     1      24.851  18.486  21.375  1.00  0.00     0.197 C 
BRANCH  20  21
HETATM   21  O10 UNL     1      23.966  19.540  21.175  1.00  0.00    -0.389 OA
ATOM     22  H10 UNL     1      23.933  19.688  20.236  1.00  0.00     0.210 HD
ENDBRANCH  20  21
BRANCH  20  23
HETATM   23  C14 UNL     1      25.958  18.650  20.336  1.00  0.00     0.200 C 
BRANCH  23  24
HETATM   24  O11 UNL     1      25.522  19.324  19.210  1.00  0.00    -0.398 OA
ATOM     25  H11 UNL     1      26.244  19.638  18.678  1.00  0.00     0.209 HD
ENDBRANCH  23  24
ENDBRANCH  20  23
ENDBRANCH  11  20
ENDBRANCH   8   9
ENDBRANCH   7   8
ENDBRANCH   6   7
BRANCH   1  26
HETATM   26  N1  UNL     1      23.317  21.363  19.081  1.00  0.00    -0.352 N 
HETATM   27  C2  UNL     1      22.915  22.497  19.828  1.00  0.00     0.214 C 
HETATM   28  C1  UNL     1      23.510  22.811  21.160  1.00  0.00     0.117 C 
HETATM   29  O1  UNL     1      22.035  23.254  19.352  1.00  0.00    -0.274 OA
ATOM     30  H1  UNL     1      24.031  20.735  19.450  1.00  0.00     0.163 HD
ENDBRANCH   1  26
BRANCH   5  31
HETATM   31  O6  UNL     1      20.632  19.954  16.433  1.00  0.00    -0.389 OA
ATOM     32  H6  UNL     1      20.563  20.823  16.055  1.00  0.00     0.210 HD
ENDBRANCH   5  31
BRANCH   2  33
HETATM   33  O2  UNL     1      24.847  21.483  16.868  1.00  0.00    -0.391 OA
ATOM     34  H2  UNL     1      25.368  22.129  16.404  1.00  0.00     0.210 HD
ENDBRANCH   2  33
BRANCH   4  35
HETATM   35  O4  UNL     1      23.662  19.386  14.739  1.00  0.00    -0.375 OA
ATOM     36  H4  UNL     1      23.985  18.965  15.527  1.00  0.00     0.211 HD
ENDBRANCH   4  35
BRANCH   4  37
HETATM   37  C7  UNL     1      21.631  20.094  13.919  1.00  0.00     0.277 C 
HETATM   38  O5  UNL     1      20.503  20.698  13.890  1.00  0.00    -0.268 OA
HETATM   39  N2  UNL     1      21.948  19.352  12.775  1.00  0.00    -0.253 N 
ATOM     40  H2  UNL     1      22.835  18.849  12.743  1.00  0.00     0.191 HD
BRANCH  39  41
HETATM   41  N3  UNL     1      21.079  19.278  11.662  1.00  0.00    -0.247 N 
ATOM     42  H3  UNL     1      21.389  19.579  10.739  1.00  0.00     0.207 HD
BRANCH  41  43
HETATM   43  N4  UNL     1      19.887  18.821  11.840  1.00  0.00    -0.331 N 
ATOM     44  H42 UNL     1      19.680  18.251  12.660  1.00  0.00     0.178 HD
ATOM     45  H41 UNL     1      19.171  19.043  11.148  1.00  0.00     0.178 HD
ENDBRANCH  41  43
ENDBRANCH  39  41
ENDBRANCH   4  37
BRANCH   3  46
HETATM   46  O3  UNL     1      22.156  22.578  14.956  1.00  0.00    -0.389 OA
ATOM     47  H3  UNL     1      21.336  22.506  15.429  1.00  0.00     0.210 HD
ENDBRANCH   3  46
TORSDOF 16
ENDMDL
MODEL 5
REMARK VINA RESULT: -9.044483547      1.017      2.815
REMARK  16 active torsions:
REMARK  status: ('A' for Active; 'I' for Inactive)
REMARK       I    between atoms: C2_2  and  N1_4 
REMARK    1  A    between atoms: N1_4  and  C3_6 
REMARK    2  A    between atoms: C4_7  and  O2_8 
REMARK    3  A    between atoms: C5_10  and  O3_11 
REMARK    4  A    between atoms: C6_13  and  O4_14 
REMARK    5  A    between atoms: C6_13  and  C7_16 
REMARK       I    between atoms: C7_16  and  N2_18 
REMARK    6  A    between atoms: N2_18  and  N3_20 
REMARK    7  A    between atoms: N3_20  and  N4_22 
REMARK    8  A    between atoms: C8_25  and  O6_26 
REMARK    9  A    between atoms: C9_28  and  O7_29 
REMARK   10  A    between atoms: O7_29  and  C10_30 
REMARK   11  A    between atoms: C10_30  and  C11_31 
REMARK   12  A    between atoms: C11_31  and  O8_32 
REMARK   13  A    between atoms: C12_35  and  C13_36 
REMARK   14  A    between atoms: C13_36  and  O10_37 
REMARK   15  A    between atoms: C13_36  and  C14_39 
REMARK   16  A    between atoms: C14_39  and  O11_40 
ROOT
HETATM    1  C3  UNL     1      22.517  21.097  18.011  1.00  0.00     0.147 C 
HETATM    2  C4  UNL     1      22.761  21.912  16.792  1.00  0.00     0.175 C 
HETATM    3  C5  UNL     1      21.991  21.476  15.583  1.00  0.00     0.195 C 
HETATM    4  C6  UNL     1      21.799  20.008  15.461  1.00  0.00     0.196 C 
HETATM    5  C8  UNL     1      21.695  19.232  16.731  1.00  0.00     0.196 C 
HETATM    6  C9  UNL     1      22.832  19.641  17.642  1.00  0.00     0.179 C 
ENDROOT
BRANCH   6   7
HETATM    7  O7  UNL     1      23.053  18.862  18.688  1.00  0.00    -0.373 OA
BRANCH   7   8
HETATM    8  C10 UNL     1      23.286  17.562  18.712  1.00  0.00     0.270 C 
BRANCH   8   9
HETATM    9  C11 UNL     1      22.961  16.842  19.999  1.00  0.00     0.307 C 
HETATM   10  O9  UNL     1      23.670  17.378  21.070  1.00  0.00    -0.298 OA
HETATM   11  C12 UNL     1      24.806  16.710  21.412  1.00  0.00     0.297 C 
HETATM   12  O12 UNL     1      24.488  15.927  22.551  1.00  0.00    -0.346 OA
HETATM   13  C15 UNL     1      23.247  15.369  22.260  1.00  0.00     0.204 C 
HETATM   14  C16 UNL     1      23.046  13.938  22.615  1.00  0.00     0.208 C 
HETATM   15  C17 UNL     1      23.385  14.735  20.896  1.00  0.00     0.296 C 
HETATM   16  O13 UNL     1      22.515  13.748  21.315  1.00  0.00    -0.356 OA
HETATM   17  O14 UNL     1      23.057  15.512  19.851  1.00  0.00    -0.298 OA
BRANCH   9  18
HETATM   18  O8  UNL     1      21.613  17.165  20.301  1.00  0.00    -0.341 OA
ATOM     19  H8  UNL     1      21.591  18.107  20.428  1.00  0.00     0.215 HD
ENDBRANCH   9  18
BRANCH  11  20
HETATM   20  C13 UNL     1      25.805  17.751  21.938  1.00  0.00     0.197 C 
BRANCH  20  21
HETATM   21  O10 UNL     1      26.137  17.359  23.231  1.00  0.00    -0.389 OA
ATOM     22  H10 UNL     1      27.086  17.373  23.280  1.00  0.00     0.210 HD
ENDBRANCH  20  21
BRANCH  20  23
HETATM   23  C14 UNL     1      25.011  19.048  22.072  1.00  0.00     0.200 C 
BRANCH  23  24
HETATM   24  O11 UNL     1      24.986  19.770  20.892  1.00  0.00    -0.398 OA
ATOM     25  H11 UNL     1      25.483  20.577  20.954  1.00  0.00     0.209 HD
ENDBRANCH  23  24
ENDBRANCH  20  23
ENDBRANCH  11  20
ENDBRANCH   8   9
ENDBRANCH   7   8
ENDBRANCH   6   7
BRANCH   1  26
HETATM   26  N1  UNL     1      23.372  21.564  19.061  1.00  0.00    -0.352 N 
HETATM   27  C2  UNL     1      22.961  22.647  19.876  1.00  0.00     0.214 C 
HETATM   28  C1  UNL     1      23.817  23.168  20.981  1.00  0.00     0.117 C 
HETATM   29  O1  UNL     1      21.845  23.178  19.657  1.00  0.00    -0.274 OA
ATOM     30  H1  UNL     1      24.275  21.118  19.222  1.00  0.00     0.163 HD
ENDBRANCH   1  26
BRANCH   5  31
HETATM   31  O6  UNL     1      20.462  19.422  17.286  1.00  0.00    -0.389 OA
ATOM     32  H6  UNL     1      20.016  20.130  16.837  1.00  0.00     0.210 HD
ENDBRANCH   5  31
BRANCH   2  33
HETATM   33  O2  UNL     1      24.136  21.909  16.501  1.00  0.00    -0.391 OA
ATOM     34  H2  UNL     1      24.263  22.120  15.583  1.00  0.00     0.210 HD
ENDBRANCH   2  33
BRANCH   4  35
HETATM   35  O4  UNL     1      22.931  19.475  14.780  1.00  0.00    -0.375 OA
ATOM     36  H4  UNL     1      23.585  19.253  15.433  1.00  0.00     0.211 HD
ENDBRANCH   4  35
BRANCH   4  37
HETATM   37  C7  UNL     1      20.643  19.645  14.593  1.00  0.00     0.277 C 
HETATM   38  O5  UNL     1      19.443  19.639  15.037  1.00  0.00    -0.268 OA
HETATM   39  N2  UNL     1      20.791  19.288  13.246  1.00  0.00    -0.253 N 
ATOM     40  H2  UNL     1      21.726  19.274  12.839  1.00  0.00     0.191 HD
BRANCH  39  41
HETATM   41  N3  UNL     1      19.685  18.946  12.434  1.00  0.00    -0.247 N 
ATOM     42  H3  UNL     1      18.732  19.052  12.780  1.00  0.00     0.207 HD
BRANCH  41  43
HETATM   43  N4  UNL     1      19.908  18.498  11.245  1.00  0.00    -0.331 N 
ATOM     44  H42 UNL     1      19.239  18.690  10.499  1.00  0.00     0.178 HD
ATOM     45  H41 UNL     1      20.755  17.957  11.079  1.00  0.00     0.178 HD
ENDBRANCH  41  43
ENDBRANCH  39  41
ENDBRANCH   4  37
BRANCH   3  46
HETATM   46  O3  UNL     1      20.833  22.238  15.464  1.00  0.00    -0.389 OA
ATOM     47  H3  UNL     1      20.258  21.849  14.816  1.00  0.00     0.210 HD
ENDBRANCH   3  46
TORSDOF 16
ENDMDL
