MODEL 1
REMARK VINA RESULT: -9.349371780      0.000      0.000
REMARK  10 active torsions:
REMARK  status: ('A' for Active; 'I' for Inactive)
REMARK    1  A    between atoms: C2_2  and  C3_3 
REMARK    2  A    between atoms: C4_4  and  C5_5 
REMARK    3  A    between atoms: C6_6  and  C7_7 
REMARK    4  A    between atoms: C15_17  and  C16_18 
REMARK    5  A    between atoms: C16_18  and  C17_19 
REMARK    6  A    between atoms: C17_19  and  C18_20 
REMARK    7  A    between atoms: C18_20  and  C20_22 
REMARK    8  A    between atoms: C20_22  and  C21_23 
REMARK    9  A    between atoms: C21_23  and  O1_24 
REMARK   10  A    between atoms: C21_23  and  C22_26 
ROOT
HETATM    1  C1  UNL     1      -2.639   7.876  20.503  1.00  0.00     0.048 C 
HETATM    2  C2  UNL     1      -2.193   7.340  19.199  1.00  0.00    -0.066 C 
HETATM    3  C15 UNL     1      -1.021   6.672  19.074  1.00  0.00    -0.020 C 
ENDROOT
BRANCH   2   4
HETATM    4  C3  UNL     1      -2.964   7.486  17.970  1.00  0.00     0.006 C 
HETATM    5  C4  UNL     1      -3.294   8.503  17.271  1.00  0.00     0.001 C 
BRANCH   5   6
HETATM    6  C5  UNL     1      -3.030   9.906  17.424  1.00  0.00     0.002 C 
HETATM    7  C6  UNL     1      -4.012  10.782  17.661  1.00  0.00     0.029 C 
BRANCH   7   8
HETATM    8  C7  UNL     1      -3.713  12.195  17.812  1.00  0.00     0.033 A 
HETATM    9  C8  UNL     1      -2.729  12.775  18.597  1.00  0.00     0.043 A 
HETATM   10  C9  UNL     1      -2.755  14.149  18.479  1.00  0.00    -0.007 A 
HETATM   11  C10 UNL     1      -2.030  15.188  19.017  1.00  0.00     0.014 A 
HETATM   12  C14 UNL     1      -3.786  14.398  17.596  1.00  0.00     0.043 A 
HETATM   13  C11 UNL     1      -2.276  16.517  18.719  1.00  0.00     0.001 A 
HETATM   14  C12 UNL     1      -3.307  16.761  17.835  1.00  0.00     0.002 A 
HETATM   15  C13 UNL     1      -4.042  15.731  17.289  1.00  0.00     0.030 A 
HETATM   16  N1  UNL     1      -4.339  13.233  17.213  1.00  0.00    -0.356 N 
ATOM     17  H1  UNL     1      -5.120  13.147  16.562  1.00  0.00     0.166 HD
ENDBRANCH   7   8
ENDBRANCH   5   6
ENDBRANCH   2   4
BRANCH   3  18
HETATM   18  C16 UNL     1      -0.059   6.384  20.128  1.00  0.00     0.032 C 
BRANCH  18  19
HETATM   19  C17 UNL     1       0.466   5.004  20.194  1.00  0.00     0.037 C 
BRANCH  19  20
HETATM   20  C18 UNL     1      -0.293   4.052  21.034  1.00  0.00    -0.081 C 
HETATM   21  C19 UNL     1       0.468   2.768  21.346  1.00  0.00     0.043 C 
BRANCH  20  22
HETATM   22  C20 UNL     1      -1.511   4.194  21.394  1.00  0.00     0.040 C 
BRANCH  22  23
HETATM   23  C21 UNL     1      -2.810   3.809  21.010  1.00  0.00     0.076 C 
BRANCH  23  24
HETATM   24  O1  UNL     1      -3.383   2.988  21.958  1.00  0.00    -0.360 OA
ATOM     25  H1  UNL     1      -3.823   2.253  21.550  1.00  0.00     0.217 HD
ENDBRANCH  23  24
BRANCH  23  26
HETATM   26  C22 UNL     1      -3.671   4.043  19.918  1.00  0.00    -0.003 A 
HETATM   27  C23 UNL     1      -3.487   3.694  18.622  1.00  0.00     0.014 A 
HETATM   28  C24 UNL     1      -4.377   4.067  17.616  1.00  0.00     0.001 A 
HETATM   29  C25 UNL     1      -5.502   4.815  17.892  1.00  0.00     0.000 A 
HETATM   30  C26 UNL     1      -5.720   5.181  19.183  1.00  0.00     0.001 A 
HETATM   31  C27 UNL     1      -4.843   4.815  20.168  1.00  0.00     0.014 A 
ENDBRANCH  23  26
ENDBRANCH  22  23
ENDBRANCH  20  22
ENDBRANCH  19  20
ENDBRANCH  18  19
ENDBRANCH   3  18
TORSDOF 10
ENDMDL
MODEL 2
REMARK VINA RESULT: -9.191437398      1.699      2.187
REMARK  10 active torsions:
REMARK  status: ('A' for Active; 'I' for Inactive)
REMARK    1  A    between atoms: C2_2  and  C3_3 
REMARK    2  A    between atoms: C4_4  and  C5_5 
REMARK    3  A    between atoms: C6_6  and  C7_7 
REMARK    4  A    between atoms: C15_17  and  C16_18 
REMARK    5  A    between atoms: C16_18  and  C17_19 
REMARK    6  A    between atoms: C17_19  and  C18_20 
REMARK    7  A    between atoms: C18_20  and  C20_22 
REMARK    8  A    between atoms: C20_22  and  C21_23 
REMARK    9  A    between atoms: C21_23  and  O1_24 
REMARK   10  A    between atoms: C21_23  and  C22_26 
ROOT
HETATM    1  C1  UNL     1      -2.550   8.257  20.403  1.00  0.00     0.048 C 
HETATM    2  C2  UNL     1      -2.191   7.557  19.151  1.00  0.00    -0.066 C 
HETATM    3  C15 UNL     1      -1.090   6.771  19.071  1.00  0.00    -0.020 C 
ENDROOT
BRANCH   2   4
HETATM    4  C3  UNL     1      -2.979   7.655  17.927  1.00  0.00     0.006 C 
HETATM    5  C4  UNL     1      -3.332   8.645  17.201  1.00  0.00     0.001 C 
BRANCH   5   6
HETATM    6  C5  UNL     1      -3.085  10.056  17.308  1.00  0.00     0.002 C 
HETATM    7  C6  UNL     1      -3.962  10.879  17.891  1.00  0.00     0.029 C 
BRANCH   7   8
HETATM    8  C7  UNL     1      -3.683  12.300  17.984  1.00  0.00     0.033 A 
HETATM    9  C8  UNL     1      -2.662  12.921  18.687  1.00  0.00     0.043 A 
HETATM   10  C9  UNL     1      -2.724  14.290  18.534  1.00  0.00    -0.007 A 
HETATM   11  C10 UNL     1      -1.987  15.358  18.994  1.00  0.00     0.014 A 
HETATM   12  C14 UNL     1      -3.816  14.495  17.715  1.00  0.00     0.043 A 
HETATM   13  C11 UNL     1      -2.280  16.673  18.678  1.00  0.00     0.001 A 
HETATM   14  C12 UNL     1      -3.373  16.873  17.859  1.00  0.00     0.002 A 
HETATM   15  C13 UNL     1      -4.120  15.813  17.390  1.00  0.00     0.030 A 
HETATM   16  N1  UNL     1      -4.369  13.310  17.400  1.00  0.00    -0.356 N 
ATOM     17  H1  UNL     1      -5.190  13.190  16.806  1.00  0.00     0.166 HD
ENDBRANCH   7   8
ENDBRANCH   5   6
ENDBRANCH   2   4
BRANCH   3  18
HETATM   18  C16 UNL     1      -0.130   6.498  20.131  1.00  0.00     0.032 C 
BRANCH  18  19
HETATM   19  C17 UNL     1       0.741   5.317  19.954  1.00  0.00     0.037 C 
BRANCH  19  20
HETATM   20  C18 UNL     1       0.082   3.996  20.048  1.00  0.00    -0.081 C 
HETATM   21  C19 UNL     1      -0.248   3.575  21.476  1.00  0.00     0.043 C 
BRANCH  20  22
HETATM   22  C20 UNL     1      -0.109   3.195  19.071  1.00  0.00     0.040 C 
BRANCH  22  23
HETATM   23  C21 UNL     1      -0.739   3.147  17.812  1.00  0.00     0.076 C 
BRANCH  23  24
HETATM   24  O1  UNL     1      -0.115   2.240  16.982  1.00  0.00    -0.360 OA
ATOM     25  H1  UNL     1       0.795   2.473  16.846  1.00  0.00     0.217 HD
ENDBRANCH  23  24
BRANCH  23  26
HETATM   26  C22 UNL     1      -1.833   3.778  17.185  1.00  0.00    -0.003 A 
HETATM   27  C23 UNL     1      -3.088   3.942  17.667  1.00  0.00     0.014 A 
HETATM   28  C24 UNL     1      -4.111   4.506  16.906  1.00  0.00     0.001 A 
HETATM   29  C25 UNL     1      -3.895   4.930  15.613  1.00  0.00     0.000 A 
HETATM   30  C26 UNL     1      -2.646   4.782  15.097  1.00  0.00     0.001 A 
HETATM   31  C27 UNL     1      -1.644   4.227  15.846  1.00  0.00     0.014 A 
ENDBRANCH  23  26
ENDBRANCH  22  23
ENDBRANCH  20  22
ENDBRANCH  19  20
ENDBRANCH  18  19
ENDBRANCH   3  18
TORSDOF 10
ENDMDL
MODEL 3
REMARK VINA RESULT: -9.126385906      1.764      2.220
REMARK  10 active torsions:
REMARK  status: ('A' for Active; 'I' for Inactive)
REMARK    1  A    between atoms: C2_2  and  C3_3 
REMARK    2  A    between atoms: C4_4  and  C5_5 
REMARK    3  A    between atoms: C6_6  and  C7_7 
REMARK    4  A    between atoms: C15_17  and  C16_18 
REMARK    5  A    between atoms: C16_18  and  C17_19 
REMARK    6  A    between atoms: C17_19  and  C18_20 
REMARK    7  A    between atoms: C18_20  and  C20_22 
REMARK    8  A    between atoms: C20_22  and  C21_23 
REMARK    9  A    between atoms: C21_23  and  O1_24 
REMARK   10  A    between atoms: C21_23  and  C22_26 
ROOT
HETATM    1  C1  UNL     1      -2.553   7.729  17.874  1.00  0.00     0.048 C 
HETATM    2  C2  UNL     1      -2.600   7.487  19.331  1.00  0.00    -0.066 C 
HETATM    3  C15 UNL     1      -1.533   6.985  19.999  1.00  0.00    -0.020 C 
ENDROOT
BRANCH   2   4
HETATM    4  C3  UNL     1      -3.775   7.765  20.150  1.00  0.00     0.006 C 
HETATM    5  C4  UNL     1      -4.343   8.852  20.509  1.00  0.00     0.001 C 
BRANCH   5   6
HETATM    6  C5  UNL     1      -4.043  10.230  20.241  1.00  0.00     0.002 C 
HETATM    7  C6  UNL     1      -4.076  10.727  19.000  1.00  0.00     0.029 C 
BRANCH   7   8
HETATM    8  C7  UNL     1      -3.769  12.125  18.762  1.00  0.00     0.033 A 
HETATM    9  C8  UNL     1      -2.689  12.851  19.241  1.00  0.00     0.043 A 
HETATM   10  C9  UNL     1      -2.741  14.156  18.798  1.00  0.00    -0.007 A 
HETATM   11  C10 UNL     1      -1.955  15.274  18.964  1.00  0.00     0.014 A 
HETATM   12  C14 UNL     1      -3.887  14.213  18.032  1.00  0.00     0.043 A 
HETATM   13  C11 UNL     1      -2.250  16.499  18.390  1.00  0.00     0.001 A 
HETATM   14  C12 UNL     1      -3.397  16.551  17.624  1.00  0.00     0.002 A 
HETATM   15  C13 UNL     1      -4.193  15.439  17.450  1.00  0.00     0.030 A 
HETATM   16  N1  UNL     1      -4.480  13.006  18.021  1.00  0.00    -0.356 N 
ATOM     17  H1  UNL     1      -5.344  12.786  17.524  1.00  0.00     0.166 HD
ENDBRANCH   7   8
ENDBRANCH   5   6
ENDBRANCH   2   4
BRANCH   3  18
HETATM   18  C16 UNL     1      -0.241   6.619  19.437  1.00  0.00     0.032 C 
BRANCH  18  19
HETATM   19  C17 UNL     1       0.556   5.627  20.188  1.00  0.00     0.037 C 
BRANCH  19  20
HETATM   20  C18 UNL     1       0.225   4.204  19.954  1.00  0.00    -0.081 C 
HETATM   21  C19 UNL     1       0.156   3.372  21.229  1.00  0.00     0.043 C 
BRANCH  20  22
HETATM   22  C20 UNL     1       0.111   3.653  18.807  1.00  0.00     0.040 C 
BRANCH  22  23
HETATM   23  C21 UNL     1      -0.673   3.723  17.639  1.00  0.00     0.076 C 
BRANCH  23  24
HETATM   24  O1  UNL     1       0.071   3.402  16.524  1.00  0.00    -0.360 OA
ATOM     25  H1  UNL     1       0.992   3.589  16.663  1.00  0.00     0.217 HD
ENDBRANCH  23  24
BRANCH  23  26
HETATM   26  C22 UNL     1      -2.011   4.033  17.315  1.00  0.00    -0.003 A 
HETATM   27  C23 UNL     1      -2.496   4.500  16.141  1.00  0.00     0.014 A 
HETATM   28  C24 UNL     1      -3.834   4.857  15.976  1.00  0.00     0.001 A 
HETATM   29  C25 UNL     1      -4.739   4.748  17.009  1.00  0.00     0.000 A 
HETATM   30  C26 UNL     1      -4.287   4.279  18.203  1.00  0.00     0.001 A 
HETATM   31  C27 UNL     1      -2.973   3.932  18.362  1.00  0.00     0.014 A 
ENDBRANCH  23  26
ENDBRANCH  22  23
ENDBRANCH  20  22
ENDBRANCH  19  20
ENDBRANCH  18  19
ENDBRANCH   3  18
TORSDOF 10
ENDMDL
MODEL 4
REMARK VINA RESULT: -9.117972387      1.846      2.470
REMARK  10 active torsions:
REMARK  status: ('A' for Active; 'I' for Inactive)
REMARK    1  A    between atoms: C2_2  and  C3_3 
REMARK    2  A    between atoms: C4_4  and  C5_5 
REMARK    3  A    between atoms: C6_6  and  C7_7 
REMARK    4  A    between atoms: C15_17  and  C16_18 
REMARK    5  A    between atoms: C16_18  and  C17_19 
REMARK    6  A    between atoms: C17_19  and  C18_20 
REMARK    7  A    between atoms: C18_20  and  C20_22 
REMARK    8  A    between atoms: C20_22  and  C21_23 
REMARK    9  A    between atoms: C21_23  and  O1_24 
REMARK   10  A    between atoms: C21_23  and  C22_26 
ROOT
HETATM    1  C1  UNL     1      -2.542   7.786  17.925  1.00  0.00     0.048 C 
HETATM    2  C2  UNL     1      -2.554   7.516  19.379  1.00  0.00    -0.066 C 
HETATM    3  C15 UNL     1      -1.475   6.992  20.010  1.00  0.00    -0.020 C 
ENDROOT
BRANCH   2   4
HETATM    4  C3  UNL     1      -3.706   7.788  20.232  1.00  0.00     0.006 C 
HETATM    5  C4  UNL     1      -4.274   8.872  20.600  1.00  0.00     0.001 C 
BRANCH   5   6
HETATM    6  C5  UNL     1      -3.999  10.251  20.310  1.00  0.00     0.002 C 
HETATM    7  C6  UNL     1      -4.014  10.721  19.059  1.00  0.00     0.029 C 
BRANCH   7   8
HETATM    8  C7  UNL     1      -3.732  12.121  18.799  1.00  0.00     0.033 A 
HETATM    9  C8  UNL     1      -4.470  13.008  18.030  1.00  0.00     0.043 A 
HETATM   10  C9  UNL     1      -3.882  14.255  18.020  1.00  0.00    -0.007 A 
HETATM   11  C10 UNL     1      -4.175  15.467  17.438  1.00  0.00     0.014 A 
HETATM   12  C14 UNL     1      -2.757  14.110  18.806  1.00  0.00     0.043 A 
HETATM   13  C11 UNL     1      -3.387  16.594  17.595  1.00  0.00     0.001 A 
HETATM   14  C12 UNL     1      -2.264  16.445  18.383  1.00  0.00     0.002 A 
HETATM   15  C13 UNL     1      -1.958  15.237  18.972  1.00  0.00     0.030 A 
HETATM   16  N1  UNL     1      -2.685  12.845  19.258  1.00  0.00    -0.356 N 
ATOM     17  H1  UNL     1      -1.946  12.483  19.861  1.00  0.00     0.166 HD
ENDBRANCH   7   8
ENDBRANCH   5   6
ENDBRANCH   2   4
BRANCH   3  18
HETATM   18  C16 UNL     1      -0.201   6.626  19.408  1.00  0.00     0.032 C 
BRANCH  18  19
HETATM   19  C17 UNL     1       0.615   5.627  20.129  1.00  0.00     0.037 C 
BRANCH  19  20
HETATM   20  C18 UNL     1       0.272   4.207  19.897  1.00  0.00    -0.081 C 
HETATM   21  C19 UNL     1       0.221   3.372  21.172  1.00  0.00     0.043 C 
BRANCH  20  22
HETATM   22  C20 UNL     1       0.134   3.659  18.751  1.00  0.00     0.040 C 
BRANCH  22  23
HETATM   23  C21 UNL     1      -0.666   3.741  17.595  1.00  0.00     0.076 C 
BRANCH  23  24
HETATM   24  O1  UNL     1       0.060   3.417  16.468  1.00  0.00    -0.360 OA
ATOM     25  H1  UNL     1      -0.264   3.886  15.709  1.00  0.00     0.217 HD
ENDBRANCH  23  24
BRANCH  23  26
HETATM   26  C22 UNL     1      -2.005   4.065  17.292  1.00  0.00    -0.003 A 
HETATM   27  C23 UNL     1      -2.502   4.543  16.127  1.00  0.00     0.014 A 
HETATM   28  C24 UNL     1      -3.839   4.913  15.983  1.00  0.00     0.001 A 
HETATM   29  C25 UNL     1      -4.731   4.806  17.027  1.00  0.00     0.000 A 
HETATM   30  C26 UNL     1      -4.266   4.326  18.212  1.00  0.00     0.001 A 
HETATM   31  C27 UNL     1      -2.953   3.966  18.351  1.00  0.00     0.014 A 
ENDBRANCH  23  26
ENDBRANCH  22  23
ENDBRANCH  20  22
ENDBRANCH  19  20
ENDBRANCH  18  19
ENDBRANCH   3  18
TORSDOF 10
ENDMDL
MODEL 5
REMARK VINA RESULT: -9.022642775      2.020      3.912
REMARK  10 active torsions:
REMARK  status: ('A' for Active; 'I' for Inactive)
REMARK    1  A    between atoms: C2_2  and  C3_3 
REMARK    2  A    between atoms: C4_4  and  C5_5 
REMARK    3  A    between atoms: C6_6  and  C7_7 
REMARK    4  A    between atoms: C15_17  and  C16_18 
REMARK    5  A    between atoms: C16_18  and  C17_19 
REMARK    6  A    between atoms: C17_19  and  C18_20 
REMARK    7  A    between atoms: C18_20  and  C20_22 
REMARK    8  A    between atoms: C20_22  and  C21_23 
REMARK    9  A    between atoms: C21_23  and  O1_24 
REMARK   10  A    between atoms: C21_23  and  C22_26 
ROOT
HETATM    1  C1  UNL     1      -1.168   7.358  19.102  1.00  0.00     0.048 C 
HETATM    2  C2  UNL     1      -2.632   7.233  19.268  1.00  0.00    -0.066 C 
HETATM    3  C15 UNL     1      -3.422   6.789  18.260  1.00  0.00    -0.020 C 
ENDROOT
BRANCH   2   4
HETATM    4  C3  UNL     1      -3.328   7.570  20.505  1.00  0.00     0.006 C 
HETATM    5  C4  UNL     1      -3.834   8.658  20.944  1.00  0.00     0.001 C 
BRANCH   5   6
HETATM    6  C5  UNL     1      -3.915   9.978  20.387  1.00  0.00     0.002 C 
HETATM    7  C6  UNL     1      -2.833  10.610  19.918  1.00  0.00     0.029 C 
BRANCH   7   8
HETATM    8  C7  UNL     1      -2.949  11.944  19.360  1.00  0.00     0.033 A 
HETATM    9  C8  UNL     1      -3.863  12.396  18.422  1.00  0.00     0.043 A 
HETATM   10  C9  UNL     1      -3.656  13.730  18.138  1.00  0.00    -0.007 A 
HETATM   11  C10 UNL     1      -4.250  14.655  17.309  1.00  0.00     0.014 A 
HETATM   12  C14 UNL     1      -2.584  14.087  18.931  1.00  0.00     0.043 A 
HETATM   13  C11 UNL     1      -3.826  15.969  17.215  1.00  0.00     0.001 A 
HETATM   14  C12 UNL     1      -2.754  16.321  18.009  1.00  0.00     0.002 A 
HETATM   15  C13 UNL     1      -2.150  15.406  18.844  1.00  0.00     0.030 A 
HETATM   16  N1  UNL     1      -2.180  13.021  19.645  1.00  0.00    -0.356 N 
ATOM     17  H1  UNL     1      -1.404  13.024  20.308  1.00  0.00     0.166 HD
ENDBRANCH   7   8
ENDBRANCH   5   6
ENDBRANCH   2   4
BRANCH   3  18
HETATM   18  C16 UNL     1      -2.998   6.387  16.927  1.00  0.00     0.032 C 
BRANCH  18  19
HETATM   19  C17 UNL     1      -3.505   5.091  16.428  1.00  0.00     0.037 C 
BRANCH  19  20
HETATM   20  C18 UNL     1      -2.508   4.188  15.813  1.00  0.00    -0.081 C 
HETATM   21  C19 UNL     1      -3.007   3.489  14.553  1.00  0.00     0.043 C 
BRANCH  20  22
HETATM   22  C20 UNL     1      -1.367   3.899  16.313  1.00  0.00     0.040 C 
BRANCH  22  23
HETATM   23  C21 UNL     1      -0.797   3.369  17.485  1.00  0.00     0.076 C 
BRANCH  23  24
HETATM   24  O1  UNL     1      -0.027   2.260  17.203  1.00  0.00    -0.360 OA
ATOM     25  H1  UNL     1       0.898   2.458  17.287  1.00  0.00     0.217 HD
ENDBRANCH  23  24
BRANCH  23  26
HETATM   26  C22 UNL     1      -0.806   3.673  18.863  1.00  0.00    -0.003 A 
HETATM   27  C23 UNL     1      -1.862   3.665  19.711  1.00  0.00     0.014 A 
HETATM   28  C24 UNL     1      -1.755   4.078  21.038  1.00  0.00     0.001 A 
HETATM   29  C25 UNL     1      -0.558   4.517  21.560  1.00  0.00     0.000 A 
HETATM   30  C26 UNL     1       0.524   4.537  20.738  1.00  0.00     0.001 A 
HETATM   31  C27 UNL     1       0.416   4.132  19.435  1.00  0.00     0.014 A 
ENDBRANCH  23  26
ENDBRANCH  22  23
ENDBRANCH  20  22
ENDBRANCH  19  20
ENDBRANCH  18  19
ENDBRANCH   3  18
TORSDOF 10
ENDMDL
