MODEL 1
REMARK VINA RESULT: -10.192393968      0.000      0.000
REMARK  8 active torsions:
REMARK  status: ('A' for Active; 'I' for Inactive)
REMARK    1  A    between atoms: C2_2  and  C5_5 
REMARK    2  A    between atoms: C5_5  and  N1_6 
REMARK    3  A    between atoms: N1_6  and  C6_8 
REMARK    4  A    between atoms: C6_8  and  C7_9 
REMARK    5  A    between atoms: C10_12  and  C11_13 
REMARK    6  A    between atoms: C14_16  and  C15_17 
REMARK    7  A    between atoms: C16_18  and  C17_19 
REMARK    8  A    between atoms: C18_20  and  C19_21 
ROOT
HETATM    1  C11 UNL     1      -2.391   8.186  19.352  1.00  0.00    -0.026 A 
HETATM    2  C12 UNL     1      -2.911   9.050  20.282  1.00  0.00     0.013 A 
HETATM    3  C13 UNL     1      -3.513  10.219  19.825  1.00  0.00     0.012 A 
HETATM    4  C14 UNL     1      -3.621  10.562  18.498  1.00  0.00    -0.036 A 
HETATM    5  C25 UNL     1      -3.071   9.643  17.572  1.00  0.00     0.012 A 
HETATM    6  C26 UNL     1      -2.481   8.498  18.016  1.00  0.00     0.013 A 
ENDROOT
BRANCH   1   7
HETATM    7  C10 UNL     1      -1.758   6.974  19.832  1.00  0.00    -0.026 A 
HETATM    8  C9  UNL     1      -0.430   6.755  19.565  1.00  0.00     0.013 A 
HETATM    9  C8  UNL     1       0.181   5.593  20.020  1.00  0.00     0.013 A 
HETATM   10  C7  UNL     1      -0.518   4.649  20.740  1.00  0.00    -0.021 A 
HETATM   11  C28 UNL     1      -1.838   4.884  20.998  1.00  0.00     0.013 A 
HETATM   12  C27 UNL     1      -2.475   6.048  20.547  1.00  0.00     0.013 A 
BRANCH  10  13
HETATM   13  C6  UNL     1       0.160   3.396  21.228  1.00  0.00     0.098 C 
BRANCH  13  14
HETATM   14  N1  UNL     1      -0.265   2.289  20.496  1.00  0.00    -0.377 N 
ATOM     15  H1  UNL     1      -0.982   1.695  20.912  1.00  0.00     0.164 HD
BRANCH  14  16
HETATM   16  C5  UNL     1       0.212   1.937  19.247  1.00  0.00     0.069 C 
BRANCH  16  17
HETATM   17  C2  UNL     1      -0.769   2.034  18.118  1.00  0.00    -0.019 C 
HETATM   18  C1  UNL     1      -0.436   3.296  17.276  1.00  0.00     0.020 C 
HETATM   19  C3  UNL     1      -2.193   2.122  18.549  1.00  0.00     0.020 C 
HETATM   20  C4  UNL     1      -0.571   0.890  17.141  1.00  0.00     0.020 C 
ENDBRANCH  16  17
ENDBRANCH  14  16
ENDBRANCH  13  14
ENDBRANCH  10  13
ENDBRANCH   1   7
BRANCH   4  21
HETATM   21  C15 UNL     1      -4.289  11.709  17.971  1.00  0.00     0.011 C 
HETATM   22  C16 UNL     1      -4.008  12.961  17.949  1.00  0.00     0.001 C 
BRANCH  22  23
HETATM   23  C17 UNL     1      -2.921  13.729  18.449  1.00  0.00     0.001 C 
HETATM   24  C18 UNL     1      -2.685  14.982  18.371  1.00  0.00     0.011 C 
BRANCH  24  25
HETATM   25  C19 UNL     1      -3.342  16.095  17.812  1.00  0.00    -0.036 A 
HETATM   26  C20 UNL     1      -3.139  17.382  18.367  1.00  0.00     0.011 A 
HETATM   27  C21 UNL     1      -3.769  18.509  17.961  1.00  0.00     0.001 A 
HETATM   28  C22 UNL     1      -4.677  18.411  16.931  1.00  0.00     0.000 A 
HETATM   29  C23 UNL     1      -4.923  17.203  16.352  1.00  0.00     0.001 A 
HETATM   30  C24 UNL     1      -4.252  16.062  16.801  1.00  0.00     0.011 A 
ENDBRANCH  24  25
ENDBRANCH  22  23
ENDBRANCH   4  21
TORSDOF 8
ENDMDL
MODEL 2
REMARK VINA RESULT: -10.155593306      0.253      1.490
REMARK  8 active torsions:
REMARK  status: ('A' for Active; 'I' for Inactive)
REMARK    1  A    between atoms: C2_2  and  C5_5 
REMARK    2  A    between atoms: C5_5  and  N1_6 
REMARK    3  A    between atoms: N1_6  and  C6_8 
REMARK    4  A    between atoms: C6_8  and  C7_9 
REMARK    5  A    between atoms: C10_12  and  C11_13 
REMARK    6  A    between atoms: C14_16  and  C15_17 
REMARK    7  A    between atoms: C16_18  and  C17_19 
REMARK    8  A    between atoms: C18_20  and  C19_21 
ROOT
HETATM    1  C11 UNL     1      -2.377   8.058  19.377  1.00  0.00    -0.026 A 
HETATM    2  C12 UNL     1      -2.500   8.280  18.029  1.00  0.00     0.013 A 
HETATM    3  C13 UNL     1      -3.209   9.403  17.612  1.00  0.00     0.012 A 
HETATM    4  C14 UNL     1      -3.794  10.307  18.468  1.00  0.00    -0.036 A 
HETATM    5  C25 UNL     1      -3.644  10.039  19.850  1.00  0.00     0.012 A 
HETATM    6  C26 UNL     1      -2.951   8.941  20.262  1.00  0.00     0.013 A 
ENDROOT
BRANCH   1   7
HETATM    7  C10 UNL     1      -1.646   6.883  19.808  1.00  0.00    -0.026 A 
HETATM    8  C9  UNL     1      -2.293   5.913  20.531  1.00  0.00     0.013 A 
HETATM    9  C8  UNL     1      -1.595   4.786  20.948  1.00  0.00     0.013 A 
HETATM   10  C7  UNL     1      -0.261   4.617  20.651  1.00  0.00    -0.021 A 
HETATM   11  C28 UNL     1       0.367   5.593  19.931  1.00  0.00     0.013 A 
HETATM   12  C27 UNL     1      -0.317   6.738  19.500  1.00  0.00     0.013 A 
BRANCH  10  13
HETATM   13  C6  UNL     1       0.481   3.389  21.110  1.00  0.00     0.098 C 
BRANCH  13  14
HETATM   14  N1  UNL     1       0.005   2.254  20.454  1.00  0.00    -0.377 N 
ATOM     15  H1  UNL     1      -0.682   1.680  20.942  1.00  0.00     0.164 HD
BRANCH  14  16
HETATM   16  C5  UNL     1       0.396   1.849  19.192  1.00  0.00     0.069 C 
BRANCH  16  17
HETATM   17  C2  UNL     1      -0.630   1.994  18.109  1.00  0.00    -0.019 C 
HETATM   18  C1  UNL     1      -0.549   0.754  17.177  1.00  0.00     0.020 C 
HETATM   19  C3  UNL     1      -0.473   3.218  17.274  1.00  0.00     0.020 C 
HETATM   20  C4  UNL     1      -2.031   1.913  18.688  1.00  0.00     0.020 C 
ENDBRANCH  16  17
ENDBRANCH  14  16
ENDBRANCH  13  14
ENDBRANCH  10  13
ENDBRANCH   1   7
BRANCH   4  21
HETATM   21  C15 UNL     1      -4.469  11.510  18.097  1.00  0.00     0.011 C 
HETATM   22  C16 UNL     1      -4.140  12.750  18.125  1.00  0.00     0.001 C 
BRANCH  22  23
HETATM   23  C17 UNL     1      -2.974  13.444  18.547  1.00  0.00     0.001 C 
HETATM   24  C18 UNL     1      -2.657  14.677  18.437  1.00  0.00     0.011 C 
BRANCH  24  25
HETATM   25  C19 UNL     1      -3.269  15.827  17.903  1.00  0.00    -0.036 A 
HETATM   26  C20 UNL     1      -2.970  17.099  18.449  1.00  0.00     0.011 A 
HETATM   27  C21 UNL     1      -3.547  18.262  18.067  1.00  0.00     0.001 A 
HETATM   28  C22 UNL     1      -4.498  18.219  17.071  1.00  0.00     0.000 A 
HETATM   29  C23 UNL     1      -4.835  17.029  16.502  1.00  0.00     0.001 A 
HETATM   30  C24 UNL     1      -4.216  15.849  16.926  1.00  0.00     0.011 A 
ENDBRANCH  24  25
ENDBRANCH  22  23
ENDBRANCH   4  21
TORSDOF 8
ENDMDL
MODEL 3
REMARK VINA RESULT: -10.091981630      1.415      2.282
REMARK  8 active torsions:
REMARK  status: ('A' for Active; 'I' for Inactive)
REMARK    1  A    between atoms: C2_2  and  C5_5 
REMARK    2  A    between atoms: C5_5  and  N1_6 
REMARK    3  A    between atoms: N1_6  and  C6_8 
REMARK    4  A    between atoms: C6_8  and  C7_9 
REMARK    5  A    between atoms: C10_12  and  C11_13 
REMARK    6  A    between atoms: C14_16  and  C15_17 
REMARK    7  A    between atoms: C16_18  and  C17_19 
REMARK    8  A    between atoms: C18_20  and  C19_21 
ROOT
HETATM    1  C11 UNL     1      -2.257   7.986  18.987  1.00  0.00    -0.026 A 
HETATM    2  C12 UNL     1      -2.573   8.751  20.081  1.00  0.00     0.013 A 
HETATM    3  C13 UNL     1      -3.248   9.949  19.869  1.00  0.00     0.012 A 
HETATM    4  C14 UNL     1      -3.623  10.415  18.631  1.00  0.00    -0.036 A 
HETATM    5  C25 UNL     1      -3.276   9.595  17.529  1.00  0.00     0.012 A 
HETATM    6  C26 UNL     1      -2.615   8.422  17.732  1.00  0.00     0.013 A 
ENDROOT
BRANCH   1   7
HETATM    7  C10 UNL     1      -1.546   6.743  19.210  1.00  0.00    -0.026 A 
HETATM    8  C9  UNL     1      -2.148   5.553  18.888  1.00  0.00     0.013 A 
HETATM    9  C8  UNL     1      -1.471   4.359  19.102  1.00  0.00     0.013 A 
HETATM   10  C7  UNL     1      -0.200   4.340  19.633  1.00  0.00    -0.021 A 
HETATM   11  C28 UNL     1       0.385   5.534  19.947  1.00  0.00     0.013 A 
HETATM   12  C27 UNL     1      -0.280   6.750  19.739  1.00  0.00     0.013 A 
BRANCH  10  13
HETATM   13  C6  UNL     1       0.522   3.037  19.857  1.00  0.00     0.098 C 
BRANCH  13  14
HETATM   14  N1  UNL     1       0.679   2.790  21.220  1.00  0.00    -0.377 N 
ATOM     15  H1  UNL     1       1.626   2.805  21.597  1.00  0.00     0.164 HD
BRANCH  14  16
HETATM   16  C5  UNL     1      -0.355   2.527  22.100  1.00  0.00     0.069 C 
BRANCH  16  17
HETATM   17  C2  UNL     1      -0.606   1.082  22.403  1.00  0.00    -0.019 C 
HETATM   18  C1  UNL     1      -1.592   0.988  23.599  1.00  0.00     0.020 C 
HETATM   19  C3  UNL     1       0.619   0.304  22.744  1.00  0.00     0.020 C 
HETATM   20  C4  UNL     1      -1.362   0.422  21.265  1.00  0.00     0.020 C 
ENDBRANCH  16  17
ENDBRANCH  14  16
ENDBRANCH  13  14
ENDBRANCH  10  13
ENDBRANCH   1   7
BRANCH   4  21
HETATM   21  C15 UNL     1      -4.377  11.597  18.363  1.00  0.00     0.011 C 
HETATM   22  C16 UNL     1      -4.085  12.847  18.354  1.00  0.00     0.001 C 
BRANCH  22  23
HETATM   23  C17 UNL     1      -2.894  13.576  18.619  1.00  0.00     0.001 C 
HETATM   24  C18 UNL     1      -2.605  14.801  18.401  1.00  0.00     0.011 C 
BRANCH  24  25
HETATM   25  C19 UNL     1      -3.280  15.910  17.856  1.00  0.00    -0.036 A 
HETATM   26  C20 UNL     1      -3.045  17.204  18.382  1.00  0.00     0.011 A 
HETATM   27  C21 UNL     1      -3.685  18.329  17.989  1.00  0.00     0.001 A 
HETATM   28  C22 UNL     1      -4.639  18.222  17.001  1.00  0.00     0.000 A 
HETATM   29  C23 UNL     1      -4.917  17.009  16.451  1.00  0.00     0.001 A 
HETATM   30  C24 UNL     1      -4.234  15.869  16.887  1.00  0.00     0.011 A 
ENDBRANCH  24  25
ENDBRANCH  22  23
ENDBRANCH   4  21
TORSDOF 8
ENDMDL
MODEL 4
REMARK VINA RESULT: -10.083513607      1.628      2.522
REMARK  8 active torsions:
REMARK  status: ('A' for Active; 'I' for Inactive)
REMARK    1  A    between atoms: C2_2  and  C5_5 
REMARK    2  A    between atoms: C5_5  and  N1_6 
REMARK    3  A    between atoms: N1_6  and  C6_8 
REMARK    4  A    between atoms: C6_8  and  C7_9 
REMARK    5  A    between atoms: C10_12  and  C11_13 
REMARK    6  A    between atoms: C14_16  and  C15_17 
REMARK    7  A    between atoms: C16_18  and  C17_19 
REMARK    8  A    between atoms: C18_20  and  C19_21 
ROOT
HETATM    1  C11 UNL     1      -2.349   7.878  19.439  1.00  0.00    -0.026 A 
HETATM    2  C12 UNL     1      -2.468   8.154  18.100  1.00  0.00     0.013 A 
HETATM    3  C13 UNL     1      -3.190   9.284  17.727  1.00  0.00     0.012 A 
HETATM    4  C14 UNL     1      -3.792  10.144  18.616  1.00  0.00    -0.036 A 
HETATM    5  C25 UNL     1      -3.646   9.820  19.987  1.00  0.00     0.012 A 
HETATM    6  C26 UNL     1      -2.940   8.716  20.356  1.00  0.00     0.013 A 
ENDROOT
BRANCH   1   7
HETATM    7  C10 UNL     1      -1.604   6.696  19.825  1.00  0.00    -0.026 A 
HETATM    8  C9  UNL     1      -0.289   6.577  19.454  1.00  0.00     0.013 A 
HETATM    9  C8  UNL     1       0.429   5.444  19.820  1.00  0.00     0.013 A 
HETATM   10  C7  UNL     1      -0.152   4.432  20.551  1.00  0.00    -0.021 A 
HETATM   11  C28 UNL     1      -1.462   4.568  20.912  1.00  0.00     0.013 A 
HETATM   12  C27 UNL     1      -2.205   5.701  20.554  1.00  0.00     0.013 A 
BRANCH  10  13
HETATM   13  C6  UNL     1       0.640   3.212  20.941  1.00  0.00     0.098 C 
BRANCH  13  14
HETATM   14  N1  UNL     1       0.018   2.535  21.989  1.00  0.00    -0.377 N 
ATOM     15  H1  UNL     1      -0.771   2.992  22.444  1.00  0.00     0.164 HD
BRANCH  14  16
HETATM   16  C5  UNL     1       0.390   1.288  22.456  1.00  0.00     0.069 C 
BRANCH  16  17
HETATM   17  C2  UNL     1      -0.729   0.367  22.833  1.00  0.00    -0.019 C 
HETATM   18  C1  UNL     1      -0.343  -0.378  24.140  1.00  0.00     0.020 C 
HETATM   19  C3  UNL     1      -1.062  -0.651  21.795  1.00  0.00     0.020 C 
HETATM   20  C4  UNL     1      -1.962   1.158  23.225  1.00  0.00     0.020 C 
ENDBRANCH  16  17
ENDBRANCH  14  16
ENDBRANCH  13  14
ENDBRANCH  10  13
ENDBRANCH   1   7
BRANCH   4  21
HETATM   21  C15 UNL     1      -4.481  11.352  18.292  1.00  0.00     0.011 C 
HETATM   22  C16 UNL     1      -4.145  12.590  18.306  1.00  0.00     0.001 C 
BRANCH  22  23
HETATM   23  C17 UNL     1      -2.952  13.276  18.660  1.00  0.00     0.001 C 
HETATM   24  C18 UNL     1      -2.618  14.499  18.498  1.00  0.00     0.011 C 
BRANCH  24  25
HETATM   25  C19 UNL     1      -3.231  15.643  17.951  1.00  0.00    -0.036 A 
HETATM   26  C20 UNL     1      -2.911  16.924  18.463  1.00  0.00     0.011 A 
HETATM   27  C21 UNL     1      -3.486  18.083  18.066  1.00  0.00     0.001 A 
HETATM   28  C22 UNL     1      -4.456  18.026  17.091  1.00  0.00     0.000 A 
HETATM   29  C23 UNL     1      -4.815  16.827  16.556  1.00  0.00     0.001 A 
HETATM   30  C24 UNL     1      -4.198  15.652  16.994  1.00  0.00     0.011 A 
ENDBRANCH  24  25
ENDBRANCH  22  23
ENDBRANCH   4  21
TORSDOF 8
ENDMDL
MODEL 5
REMARK VINA RESULT: -10.078095814      1.604      2.285
REMARK  8 active torsions:
REMARK  status: ('A' for Active; 'I' for Inactive)
REMARK    1  A    between atoms: C2_2  and  C5_5 
REMARK    2  A    between atoms: C5_5  and  N1_6 
REMARK    3  A    between atoms: N1_6  and  C6_8 
REMARK    4  A    between atoms: C6_8  and  C7_9 
REMARK    5  A    between atoms: C10_12  and  C11_13 
REMARK    6  A    between atoms: C14_16  and  C15_17 
REMARK    7  A    between atoms: C16_18  and  C17_19 
REMARK    8  A    between atoms: C18_20  and  C19_21 
ROOT
HETATM    1  C11 UNL     1      -2.453   8.220  19.344  1.00  0.00    -0.026 A 
HETATM    2  C12 UNL     1      -2.891   9.157  20.245  1.00  0.00     0.013 A 
HETATM    3  C13 UNL     1      -3.459  10.327  19.750  1.00  0.00     0.012 A 
HETATM    4  C14 UNL     1      -3.612  10.603  18.412  1.00  0.00    -0.036 A 
HETATM    5  C25 UNL     1      -3.145   9.610  17.516  1.00  0.00     0.012 A 
HETATM    6  C26 UNL     1      -2.588   8.464  17.997  1.00  0.00     0.013 A 
ENDROOT
BRANCH   1   7
HETATM    7  C10 UNL     1      -1.853   7.007  19.863  1.00  0.00    -0.026 A 
HETATM    8  C9  UNL     1      -2.622   6.128  20.584  1.00  0.00     0.013 A 
HETATM    9  C8  UNL     1      -2.051   4.965  21.086  1.00  0.00     0.013 A 
HETATM   10  C7  UNL     1      -0.722   4.669  20.875  1.00  0.00    -0.021 A 
HETATM   11  C28 UNL     1       0.028   5.555  20.154  1.00  0.00     0.013 A 
HETATM   12  C27 UNL     1      -0.527   6.734  19.639  1.00  0.00     0.013 A 
BRANCH  10  13
HETATM   13  C6  UNL     1      -0.119   3.403  21.424  1.00  0.00     0.098 C 
BRANCH  13  14
HETATM   14  N1  UNL     1      -0.869   2.927  22.498  1.00  0.00    -0.377 N 
ATOM     15  H1  UNL     1      -1.348   3.612  23.081  1.00  0.00     0.164 HD
BRANCH  14  16
HETATM   16  C5  UNL     1      -1.011   1.593  22.832  1.00  0.00     0.069 C 
BRANCH  16  17
HETATM   17  C2  UNL     1      -2.301   0.948  22.427  1.00  0.00    -0.019 C 
HETATM   18  C1  UNL     1      -2.069   0.153  21.113  1.00  0.00     0.020 C 
HETATM   19  C3  UNL     1      -3.421   1.906  22.203  1.00  0.00     0.020 C 
HETATM   20  C4  UNL     1      -2.700  -0.121  23.426  1.00  0.00     0.020 C 
ENDBRANCH  16  17
ENDBRANCH  14  16
ENDBRANCH  13  14
ENDBRANCH  10  13
ENDBRANCH   1   7
BRANCH   4  21
HETATM   21  C15 UNL     1      -4.250  11.750  17.851  1.00  0.00     0.011 C 
HETATM   22  C16 UNL     1      -3.964  13.002  17.839  1.00  0.00     0.001 C 
BRANCH  22  23
HETATM   23  C17 UNL     1      -2.900  13.767  18.387  1.00  0.00     0.001 C 
HETATM   24  C18 UNL     1      -2.673  15.024  18.343  1.00  0.00     0.011 C 
BRANCH  24  25
HETATM   25  C19 UNL     1      -3.324  16.143  17.789  1.00  0.00    -0.036 A 
HETATM   26  C20 UNL     1      -3.166  17.415  18.390  1.00  0.00     0.011 A 
HETATM   27  C21 UNL     1      -3.796  18.545  17.990  1.00  0.00     0.001 A 
HETATM   28  C22 UNL     1      -4.657  18.463  16.918  1.00  0.00     0.000 A 
HETATM   29  C23 UNL     1      -4.857  17.271  16.294  1.00  0.00     0.001 A 
HETATM   30  C24 UNL     1      -4.188  16.126  16.738  1.00  0.00     0.011 A 
ENDBRANCH  24  25
ENDBRANCH  22  23
ENDBRANCH   4  21
TORSDOF 8
ENDMDL
