MODEL 1
REMARK VINA RESULT: -10.655702139      0.000      0.000
REMARK  9 active torsions:
REMARK  status: ('A' for Active; 'I' for Inactive)
REMARK    1  A    between atoms: C2_2  and  C3_3 
REMARK    2  A    between atoms: C3_3  and  C4_4 
REMARK    3  A    between atoms: C4_4  and  C5_5 
REMARK    4  A    between atoms: C5_5  and  C6_6 
REMARK    5  A    between atoms: C7_7  and  C9_9 
REMARK    6  A    between atoms: C10_10  and  N1_11 
REMARK    7  A    between atoms: C19_20  and  C20_21 
REMARK    8  A    between atoms: C21_22  and  C22_23 
REMARK    9  A    between atoms: C22_23  and  C24_25 
ROOT
HETATM    1  C4  UNL     1      -4.116   8.430  20.169  1.00  0.00     0.011 C 
ENDROOT
BRANCH   1   2
HETATM    2  C3  UNL     1      -2.378   8.634  19.964  1.00  0.00    -0.037 C 
HETATM    3  C19 UNL     1      -2.595   9.825  19.704  1.00  0.00     0.011 C 
BRANCH   2   4
HETATM    4  C2  UNL     1      -2.139   7.312  20.255  1.00  0.00     0.001 C 
HETATM    5  C1  UNL     1      -1.040   6.740  19.645  1.00  0.00     0.012 C 
ENDBRANCH   2   4
BRANCH   3   6
HETATM    6  C20 UNL     1      -3.454  10.873  20.138  1.00  0.00    -0.002 C 
HETATM    7  C21 UNL     1      -3.670  12.006  19.501  1.00  0.00    -0.018 C 
BRANCH   7   8
HETATM    8  C22 UNL     1      -3.088  12.435  18.229  1.00  0.00     0.037 C 
HETATM    9  C23 UNL     1      -4.018  11.865  17.125  1.00  0.00     0.019 C 
BRANCH   8  10
HETATM   10  C24 UNL     1      -3.130  13.936  18.157  1.00  0.00    -0.051 A 
HETATM   11  C25 UNL     1      -2.168  14.668  18.882  1.00  0.00     0.008 A 
HETATM   12  C26 UNL     1      -2.200  16.049  18.826  1.00  0.00     0.001 A 
HETATM   13  C27 UNL     1      -3.143  16.745  18.083  1.00  0.00     0.000 A 
HETATM   14  C28 UNL     1      -4.069  16.016  17.387  1.00  0.00     0.001 A 
HETATM   15  C29 UNL     1      -4.048  14.641  17.435  1.00  0.00     0.008 A 
ENDBRANCH   8  10
ENDBRANCH   7   8
ENDBRANCH   3   6
ENDBRANCH   1   2
BRANCH   1  16
HETATM   16  C5  UNL     1      -4.773   8.002  19.223  1.00  0.00     0.001 C 
BRANCH  16  17
HETATM   17  C6  UNL     1      -5.544   6.740  19.458  1.00  0.00     0.007 C 
HETATM   18  C7  UNL     1      -5.238   5.624  18.971  1.00  0.00    -0.061 C 
HETATM   19  C8  UNL     1      -6.137   4.451  19.316  1.00  0.00     0.048 C 
BRANCH  18  20
HETATM   20  C9  UNL     1      -4.123   5.341  18.102  1.00  0.00     0.024 C 
HETATM   21  C10 UNL     1      -3.957   4.201  17.470  1.00  0.00     0.097 C 
BRANCH  21  22
HETATM   22  N1  UNL     1      -2.837   3.998  16.633  1.00  0.00    -0.332 N 
HETATM   23  C11 UNL     1      -1.686   3.323  16.906  1.00  0.00     0.097 A 
HETATM   24  C12 UNL     1      -0.838   3.373  15.824  1.00  0.00     0.031 A 
HETATM   25  C13 UNL     1      -1.487   4.102  14.856  1.00  0.00    -0.008 A 
HETATM   26  C14 UNL     1      -1.110   4.468  13.583  1.00  0.00     0.014 A 
HETATM   27  C18 UNL     1      -2.709   4.481  15.358  1.00  0.00     0.048 A 
HETATM   28  C15 UNL     1      -1.934   5.224  12.763  1.00  0.00     0.001 A 
HETATM   29  C16 UNL     1      -3.158   5.607  13.255  1.00  0.00     0.002 A 
HETATM   30  C17 UNL     1      -3.548   5.236  14.551  1.00  0.00     0.031 A 
ENDBRANCH  21  22
ENDBRANCH  18  20
ENDBRANCH  16  17
ENDBRANCH   1  16
TORSDOF 9
ENDMDL
MODEL 2
REMARK VINA RESULT: -10.467942270      2.309      4.924
REMARK  9 active torsions:
REMARK  status: ('A' for Active; 'I' for Inactive)
REMARK    1  A    between atoms: C2_2  and  C3_3 
REMARK    2  A    between atoms: C3_3  and  C4_4 
REMARK    3  A    between atoms: C4_4  and  C5_5 
REMARK    4  A    between atoms: C5_5  and  C6_6 
REMARK    5  A    between atoms: C7_7  and  C9_9 
REMARK    6  A    between atoms: C10_10  and  N1_11 
REMARK    7  A    between atoms: C19_20  and  C20_21 
REMARK    8  A    between atoms: C21_22  and  C22_23 
REMARK    9  A    between atoms: C22_23  and  C24_25 
ROOT
HETATM    1  C4  UNL     1      -1.702   7.763  18.702  1.00  0.00     0.011 C 
ENDROOT
BRANCH   1   2
HETATM    2  C3  UNL     1      -3.268   7.740  17.897  1.00  0.00    -0.037 C 
HETATM    3  C19 UNL     1      -3.198   8.974  17.825  1.00  0.00     0.011 C 
BRANCH   2   4
HETATM    4  C2  UNL     1      -3.345   6.369  17.976  1.00  0.00     0.001 C 
HETATM    5  C1  UNL     1      -3.360   5.687  16.776  1.00  0.00     0.012 C 
ENDBRANCH   2   4
BRANCH   3   6
HETATM    6  C20 UNL     1      -2.215   9.974  17.583  1.00  0.00    -0.002 C 
HETATM    7  C21 UNL     1      -2.308  11.243  17.925  1.00  0.00    -0.018 C 
BRANCH   7   8
HETATM    8  C22 UNL     1      -3.419  11.899  18.613  1.00  0.00     0.037 C 
HETATM    9  C23 UNL     1      -3.200  11.624  20.125  1.00  0.00     0.019 C 
BRANCH   8  10
HETATM   10  C24 UNL     1      -3.328  13.381  18.382  1.00  0.00    -0.051 A 
HETATM   11  C25 UNL     1      -2.258  14.086  18.970  1.00  0.00     0.008 A 
HETATM   12  C26 UNL     1      -2.167  15.451  18.767  1.00  0.00     0.001 A 
HETATM   13  C27 UNL     1      -3.089  16.156  18.006  1.00  0.00     0.000 A 
HETATM   14  C28 UNL     1      -4.121  15.454  17.444  1.00  0.00     0.001 A 
HETATM   15  C29 UNL     1      -4.222  14.096  17.640  1.00  0.00     0.008 A 
ENDBRANCH   8  10
ENDBRANCH   7   8
ENDBRANCH   3   6
ENDBRANCH   1   2
BRANCH   1  16
HETATM   16  C5  UNL     1      -1.579   7.162  19.766  1.00  0.00     0.001 C 
BRANCH  16  17
HETATM   17  C6  UNL     1      -0.367   6.296  19.913  1.00  0.00     0.007 C 
HETATM   18  C7  UNL     1      -0.365   5.169  20.469  1.00  0.00    -0.061 C 
HETATM   19  C8  UNL     1       0.958   4.431  20.529  1.00  0.00     0.048 C 
BRANCH  18  20
HETATM   20  C9  UNL     1      -1.494   4.507  21.073  1.00  0.00     0.024 C 
HETATM   21  C10 UNL     1      -2.145   3.512  20.516  1.00  0.00     0.097 C 
BRANCH  21  22
HETATM   22  N1  UNL     1      -3.244   2.912  21.172  1.00  0.00    -0.332 N 
HETATM   23  C11 UNL     1      -3.239   1.895  22.078  1.00  0.00     0.097 A 
HETATM   24  C12 UNL     1      -4.524   1.597  22.464  1.00  0.00     0.031 A 
HETATM   25  C13 UNL     1      -5.346   2.456  21.774  1.00  0.00    -0.008 A 
HETATM   26  C14 UNL     1      -6.715   2.600  21.767  1.00  0.00     0.014 A 
HETATM   27  C18 UNL     1      -4.556   3.258  20.985  1.00  0.00     0.048 A 
HETATM   28  C15 UNL     1      -7.350   3.547  20.976  1.00  0.00     0.001 A 
HETATM   29  C16 UNL     1      -6.568   4.354  20.185  1.00  0.00     0.002 A 
HETATM   30  C17 UNL     1      -5.172   4.212  20.189  1.00  0.00     0.031 A 
ENDBRANCH  21  22
ENDBRANCH  18  20
ENDBRANCH  16  17
ENDBRANCH   1  16
TORSDOF 9
ENDMDL
MODEL 3
REMARK VINA RESULT: -10.425470718      3.214      9.663
REMARK  9 active torsions:
REMARK  status: ('A' for Active; 'I' for Inactive)
REMARK    1  A    between atoms: C2_2  and  C3_3 
REMARK    2  A    between atoms: C3_3  and  C4_4 
REMARK    3  A    between atoms: C4_4  and  C5_5 
REMARK    4  A    between atoms: C5_5  and  C6_6 
REMARK    5  A    between atoms: C7_7  and  C9_9 
REMARK    6  A    between atoms: C10_10  and  N1_11 
REMARK    7  A    between atoms: C19_20  and  C20_21 
REMARK    8  A    between atoms: C21_22  and  C22_23 
REMARK    9  A    between atoms: C22_23  and  C24_25 
ROOT
HETATM    1  C4  UNL     1      -3.981  10.468  20.379  1.00  0.00     0.011 C 
ENDROOT
BRANCH   1   2
HETATM    2  C3  UNL     1      -4.366   9.244  21.586  1.00  0.00    -0.037 C 
HETATM    3  C19 UNL     1      -3.652   8.458  20.951  1.00  0.00     0.011 C 
BRANCH   2   4
HETATM    4  C2  UNL     1      -5.159  10.119  22.292  1.00  0.00     0.001 C 
HETATM    5  C1  UNL     1      -5.405   9.793  23.611  1.00  0.00     0.012 C 
ENDBRANCH   2   4
BRANCH   3   6
HETATM    6  C20 UNL     1      -2.426   8.477  20.227  1.00  0.00    -0.002 C 
HETATM    7  C21 UNL     1      -1.884   7.449  19.606  1.00  0.00    -0.018 C 
BRANCH   7   8
HETATM    8  C22 UNL     1      -2.405   6.085  19.520  1.00  0.00     0.037 C 
HETATM    9  C23 UNL     1      -2.502   5.765  18.005  1.00  0.00     0.019 C 
BRANCH   8  10
HETATM   10  C24 UNL     1      -1.412   5.145  20.142  1.00  0.00    -0.051 A 
HETATM   11  C25 UNL     1      -0.041   5.356  19.890  1.00  0.00     0.008 A 
HETATM   12  C26 UNL     1       0.881   4.494  20.453  1.00  0.00     0.001 A 
HETATM   13  C27 UNL     1       0.511   3.427  21.260  1.00  0.00     0.000 A 
HETATM   14  C28 UNL     1      -0.824   3.239  21.494  1.00  0.00     0.001 A 
HETATM   15  C29 UNL     1      -1.752   4.090  20.937  1.00  0.00     0.008 A 
ENDBRANCH   8  10
ENDBRANCH   7   8
ENDBRANCH   3   6
ENDBRANCH   1   2
BRANCH   1  16
HETATM   16  C5  UNL     1      -4.826  10.745  19.532  1.00  0.00     0.001 C 
BRANCH  16  17
HETATM   17  C6  UNL     1      -4.472  10.452  18.108  1.00  0.00     0.007 C 
HETATM   18  C7  UNL     1      -3.834  11.237  17.362  1.00  0.00    -0.061 C 
HETATM   19  C8  UNL     1      -3.564  10.774  15.943  1.00  0.00     0.048 C 
BRANCH  18  20
HETATM   20  C9  UNL     1      -3.342  12.546  17.712  1.00  0.00     0.024 C 
HETATM   21  C10 UNL     1      -4.012  13.658  17.516  1.00  0.00     0.097 C 
BRANCH  21  22
HETATM   22  N1  UNL     1      -3.462  14.906  17.887  1.00  0.00    -0.332 N 
HETATM   23  C11 UNL     1      -2.360  15.154  18.647  1.00  0.00     0.097 A 
HETATM   24  C12 UNL     1      -2.173  16.510  18.785  1.00  0.00     0.031 A 
HETATM   25  C13 UNL     1      -3.192  17.114  18.087  1.00  0.00    -0.008 A 
HETATM   26  C14 UNL     1      -3.501  18.441  17.889  1.00  0.00     0.014 A 
HETATM   27  C18 UNL     1      -3.977  16.127  17.540  1.00  0.00     0.048 A 
HETATM   28  C15 UNL     1      -4.599  18.836  17.140  1.00  0.00     0.001 A 
HETATM   29  C16 UNL     1      -5.389  17.856  16.589  1.00  0.00     0.002 A 
HETATM   30  C17 UNL     1      -5.079  16.502  16.786  1.00  0.00     0.031 A 
ENDBRANCH  21  22
ENDBRANCH  18  20
ENDBRANCH  16  17
ENDBRANCH   1  16
TORSDOF 9
ENDMDL
MODEL 4
REMARK VINA RESULT: -10.381933737      0.609      1.585
REMARK  9 active torsions:
REMARK  status: ('A' for Active; 'I' for Inactive)
REMARK    1  A    between atoms: C2_2  and  C3_3 
REMARK    2  A    between atoms: C3_3  and  C4_4 
REMARK    3  A    between atoms: C4_4  and  C5_5 
REMARK    4  A    between atoms: C5_5  and  C6_6 
REMARK    5  A    between atoms: C7_7  and  C9_9 
REMARK    6  A    between atoms: C10_10  and  N1_11 
REMARK    7  A    between atoms: C19_20  and  C20_21 
REMARK    8  A    between atoms: C21_22  and  C22_23 
REMARK    9  A    between atoms: C22_23  and  C24_25 
ROOT
HETATM    1  C4  UNL     1      -3.952   8.364  20.264  1.00  0.00     0.011 C 
ENDROOT
BRANCH   1   2
HETATM    2  C3  UNL     1      -2.287   8.620  19.749  1.00  0.00    -0.037 C 
HETATM    3  C19 UNL     1      -2.603   9.782  19.461  1.00  0.00     0.011 C 
BRANCH   2   4
HETATM    4  C2  UNL     1      -1.937   7.330  20.070  1.00  0.00     0.001 C 
HETATM    5  C1  UNL     1      -1.052   6.705  19.215  1.00  0.00     0.012 C 
ENDBRANCH   2   4
BRANCH   3   6
HETATM    6  C20 UNL     1      -3.426  10.823  19.977  1.00  0.00    -0.002 C 
HETATM    7  C21 UNL     1      -3.652  11.984  19.396  1.00  0.00    -0.018 C 
BRANCH   7   8
HETATM    8  C22 UNL     1      -3.120  12.458  18.119  1.00  0.00     0.037 C 
HETATM    9  C23 UNL     1      -4.100  11.936  17.034  1.00  0.00     0.019 C 
BRANCH   8  10
HETATM   10  C24 UNL     1      -3.153  13.960  18.105  1.00  0.00    -0.051 A 
HETATM   11  C25 UNL     1      -2.167  14.658  18.833  1.00  0.00     0.008 A 
HETATM   12  C26 UNL     1      -2.191  16.040  18.832  1.00  0.00     0.001 A 
HETATM   13  C27 UNL     1      -3.147  16.770  18.140  1.00  0.00     0.000 A 
HETATM   14  C28 UNL     1      -4.096  16.075  17.440  1.00  0.00     0.001 A 
HETATM   15  C29 UNL     1      -4.083  14.699  17.435  1.00  0.00     0.008 A 
ENDBRANCH   8  10
ENDBRANCH   7   8
ENDBRANCH   3   6
ENDBRANCH   1   2
BRANCH   1  16
HETATM   16  C5  UNL     1      -4.747   7.880  19.463  1.00  0.00     0.001 C 
BRANCH  16  17
HETATM   17  C6  UNL     1      -5.199   6.478  19.727  1.00  0.00     0.007 C 
HETATM   18  C7  UNL     1      -4.973   5.506  18.963  1.00  0.00    -0.061 C 
HETATM   19  C8  UNL     1      -5.507   4.153  19.391  1.00  0.00     0.048 C 
BRANCH  18  20
HETATM   20  C9  UNL     1      -4.267   5.546  17.707  1.00  0.00     0.024 C 
HETATM   21  C10 UNL     1      -4.343   4.606  16.793  1.00  0.00     0.097 C 
BRANCH  21  22
HETATM   22  N1  UNL     1      -3.620   4.717  15.583  1.00  0.00    -0.332 N 
HETATM   23  C11 UNL     1      -4.055   5.168  14.374  1.00  0.00     0.097 A 
HETATM   24  C12 UNL     1      -3.040   5.100  13.449  1.00  0.00     0.031 A 
HETATM   25  C13 UNL     1      -1.947   4.592  14.109  1.00  0.00    -0.008 A 
HETATM   26  C14 UNL     1      -0.670   4.309  13.678  1.00  0.00     0.014 A 
HETATM   27  C18 UNL     1      -2.309   4.360  15.415  1.00  0.00     0.048 A 
HETATM   28  C15 UNL     1       0.294   3.787  14.528  1.00  0.00     0.001 A 
HETATM   29  C16 UNL     1      -0.059   3.553  15.835  1.00  0.00     0.002 A 
HETATM   30  C17 UNL     1      -1.359   3.840  16.281  1.00  0.00     0.031 A 
ENDBRANCH  21  22
ENDBRANCH  18  20
ENDBRANCH  16  17
ENDBRANCH   1  16
TORSDOF 9
ENDMDL
MODEL 5
REMARK VINA RESULT: -10.317644836      2.900      4.460
REMARK  9 active torsions:
REMARK  status: ('A' for Active; 'I' for Inactive)
REMARK    1  A    between atoms: C2_2  and  C3_3 
REMARK    2  A    between atoms: C3_3  and  C4_4 
REMARK    3  A    between atoms: C4_4  and  C5_5 
REMARK    4  A    between atoms: C5_5  and  C6_6 
REMARK    5  A    between atoms: C7_7  and  C9_9 
REMARK    6  A    between atoms: C10_10  and  N1_11 
REMARK    7  A    between atoms: C19_20  and  C20_21 
REMARK    8  A    between atoms: C21_22  and  C22_23 
REMARK    9  A    between atoms: C22_23  and  C24_25 
ROOT
HETATM    1  C4  UNL     1      -2.330   8.093  18.588  1.00  0.00     0.011 C 
ENDROOT
BRANCH   1   2
HETATM    2  C3  UNL     1      -4.074   8.342  18.633  1.00  0.00    -0.037 C 
HETATM    3  C19 UNL     1      -3.863   9.539  18.401  1.00  0.00     0.011 C 
BRANCH   2   4
HETATM    4  C2  UNL     1      -4.307   7.011  18.890  1.00  0.00     0.001 C 
HETATM    5  C1  UNL     1      -5.307   6.729  19.799  1.00  0.00     0.012 C 
ENDBRANCH   2   4
BRANCH   3   6
HETATM    6  C20 UNL     1      -2.986  10.334  17.612  1.00  0.00    -0.002 C 
HETATM    7  C21 UNL     1      -2.645  11.583  17.860  1.00  0.00    -0.018 C 
BRANCH   7   8
HETATM    8  C22 UNL     1      -3.083  12.418  18.979  1.00  0.00     0.037 C 
HETATM    9  C23 UNL     1      -1.964  12.309  20.049  1.00  0.00     0.019 C 
BRANCH   8  10
HETATM   10  C24 UNL     1      -3.162  13.846  18.518  1.00  0.00    -0.051 A 
HETATM   11  C25 UNL     1      -2.196  14.757  18.992  1.00  0.00     0.008 A 
HETATM   12  C26 UNL     1      -2.263  16.074  18.578  1.00  0.00     0.001 A 
HETATM   13  C27 UNL     1      -3.244  16.537  17.712  1.00  0.00     0.000 A 
HETATM   14  C28 UNL     1      -4.173  15.637  17.263  1.00  0.00     0.001 A 
HETATM   15  C29 UNL     1      -4.118  14.324  17.669  1.00  0.00     0.008 A 
ENDBRANCH   8  10
ENDBRANCH   7   8
ENDBRANCH   3   6
ENDBRANCH   1   2
BRANCH   1  16
HETATM   16  C5  UNL     1      -1.765   7.704  19.607  1.00  0.00     0.001 C 
BRANCH  16  17
HETATM   17  C6  UNL     1      -0.683   6.686  19.428  1.00  0.00     0.007 C 
HETATM   18  C7  UNL     1      -0.792   5.475  19.742  1.00  0.00    -0.061 C 
HETATM   19  C8  UNL     1       0.410   4.585  19.490  1.00  0.00     0.048 C 
BRANCH  18  20
HETATM   20  C9  UNL     1      -1.943   4.841  20.334  1.00  0.00     0.024 C 
HETATM   21  C10 UNL     1      -2.594   3.841  19.783  1.00  0.00     0.097 C 
BRANCH  21  22
HETATM   22  N1  UNL     1      -3.715   3.270  20.426  1.00  0.00    -0.332 N 
HETATM   23  C11 UNL     1      -3.803   2.763  21.688  1.00  0.00     0.097 A 
HETATM   24  C12 UNL     1      -5.072   2.288  21.921  1.00  0.00     0.031 A 
HETATM   25  C13 UNL     1      -5.787   2.509  20.769  1.00  0.00    -0.008 A 
HETATM   26  C14 UNL     1      -7.095   2.231  20.439  1.00  0.00     0.014 A 
HETATM   27  C18 UNL     1      -4.951   3.110  19.858  1.00  0.00     0.048 A 
HETATM   28  C15 UNL     1      -7.620   2.541  19.193  1.00  0.00     0.001 A 
HETATM   29  C16 UNL     1      -6.792   3.142  18.276  1.00  0.00     0.002 A 
HETATM   30  C17 UNL     1      -5.458   3.429  18.608  1.00  0.00     0.031 A 
ENDBRANCH  21  22
ENDBRANCH  18  20
ENDBRANCH  16  17
ENDBRANCH   1  16
TORSDOF 9
ENDMDL
