MODEL 1
REMARK VINA RESULT: -11.422146965      0.000      0.000
REMARK  8 active torsions:
REMARK  status: ('A' for Active; 'I' for Inactive)
REMARK    1  A    between atoms: C2_2  and  C3_3 
REMARK    2  A    between atoms: C3_3  and  C4_4 
REMARK    3  A    between atoms: C7_7  and  N1_8 
REMARK    4  A    between atoms: N1_8  and  C8_10 
REMARK    5  A    between atoms: C8_10  and  C9_11 
REMARK    6  A    between atoms: C12_14  and  C13_15 
REMARK    7  A    between atoms: C13_15  and  C14_16 
REMARK    8  A    between atoms: C13_15  and  C20_22 
ROOT
HETATM    1  C9  UNL     1      -2.969  10.814  19.333  1.00  0.00    -0.041 A 
HETATM    2  C10 UNL     1      -2.817  10.307  18.056  1.00  0.00     0.009 A 
HETATM    3  C11 UNL     1      -2.617   8.957  17.807  1.00  0.00     0.009 A 
HETATM    4  C12 UNL     1      -2.561   8.050  18.866  1.00  0.00    -0.045 A 
HETATM    5  C26 UNL     1      -2.713   8.558  20.142  1.00  0.00     0.009 A 
HETATM    6  C27 UNL     1      -2.910   9.895  20.365  1.00  0.00     0.009 A 
ENDROOT
BRANCH   4   7
HETATM    7  C13 UNL     1      -2.341   6.639  18.542  1.00  0.00     0.084 C 
BRANCH   7   8
HETATM    8  C14 UNL     1      -1.461   5.919  19.480  1.00  0.00    -0.045 A 
HETATM    9  C15 UNL     1      -2.030   5.085  20.417  1.00  0.00     0.008 A 
HETATM   10  C16 UNL     1      -1.174   4.421  21.302  1.00  0.00     0.001 A 
HETATM   11  C17 UNL     1       0.190   4.601  21.230  1.00  0.00     0.000 A 
HETATM   12  C18 UNL     1       0.712   5.445  20.277  1.00  0.00     0.001 A 
HETATM   13  C19 UNL     1      -0.093   6.119  19.385  1.00  0.00     0.008 A 
ENDBRANCH   7   8
BRANCH   7  14
HETATM   14  C20 UNL     1      -3.658   5.951  18.377  1.00  0.00    -0.045 A 
HETATM   15  C21 UNL     1      -3.806   4.962  17.402  1.00  0.00     0.008 A 
HETATM   16  C22 UNL     1      -5.015   4.327  17.247  1.00  0.00     0.001 A 
HETATM   17  C23 UNL     1      -6.116   4.622  18.023  1.00  0.00     0.000 A 
HETATM   18  C24 UNL     1      -5.947   5.603  18.983  1.00  0.00     0.001 A 
HETATM   19  C25 UNL     1      -4.737   6.247  19.146  1.00  0.00     0.008 A 
ENDBRANCH   7  14
ENDBRANCH   4   7
BRANCH   1  20
HETATM   20  C8  UNL     1      -3.179  12.257  19.603  1.00  0.00     0.158 C 
BRANCH  20  21
HETATM   21  N1  UNL     1      -2.551  13.064  18.571  1.00  0.00    -0.386 N 
ATOM     22  H1  UNL     1      -1.808  12.644  18.012  1.00  0.00     0.160 HD
BRANCH  21  23
HETATM   23  C7  UNL     1      -2.915  14.392  18.306  1.00  0.00     0.028 A 
HETATM   24  C6  UNL     1      -4.054  14.658  17.576  1.00  0.00     0.029 A 
HETATM   25  C5  UNL     1      -4.406  15.966  17.316  1.00  0.00     0.009 A 
HETATM   26  C4  UNL     1      -3.640  17.042  17.774  1.00  0.00    -0.058 A 
HETATM   27  C29 UNL     1      -2.509  16.758  18.500  1.00  0.00     0.009 A 
HETATM   28  C28 UNL     1      -2.148  15.438  18.764  1.00  0.00     0.029 A 
BRANCH  26  29
HETATM   29  C3  UNL     1      -4.061  18.426  17.470  1.00  0.00     0.038 C 
BRANCH  29  30
HETATM   30  C2  UNL     1      -4.770  18.546  16.137  1.00  0.00     0.000 C 
HETATM   31  C1  UNL     1      -4.375  19.867  15.480  1.00  0.00     0.005 C 
ENDBRANCH  29  30
ENDBRANCH  26  29
ENDBRANCH  21  23
ENDBRANCH  20  21
ENDBRANCH   1  20
TORSDOF 8
ENDMDL
MODEL 2
REMARK VINA RESULT: -11.375838775      0.051      1.235
REMARK  8 active torsions:
REMARK  status: ('A' for Active; 'I' for Inactive)
REMARK    1  A    between atoms: C2_2  and  C3_3 
REMARK    2  A    between atoms: C3_3  and  C4_4 
REMARK    3  A    between atoms: C7_7  and  N1_8 
REMARK    4  A    between atoms: N1_8  and  C8_10 
REMARK    5  A    between atoms: C8_10  and  C9_11 
REMARK    6  A    between atoms: C12_14  and  C13_15 
REMARK    7  A    between atoms: C13_15  and  C14_16 
REMARK    8  A    between atoms: C13_15  and  C20_22 
ROOT
HETATM    1  C9  UNL     1      -3.001  10.788  19.337  1.00  0.00    -0.041 A 
HETATM    2  C10 UNL     1      -2.864  10.282  18.058  1.00  0.00     0.009 A 
HETATM    3  C11 UNL     1      -2.644   8.936  17.806  1.00  0.00     0.009 A 
HETATM    4  C12 UNL     1      -2.553   8.030  18.865  1.00  0.00    -0.045 A 
HETATM    5  C26 UNL     1      -2.690   8.537  20.143  1.00  0.00     0.009 A 
HETATM    6  C27 UNL     1      -2.907   9.872  20.368  1.00  0.00     0.009 A 
ENDROOT
BRANCH   4   7
HETATM    7  C13 UNL     1      -2.314   6.623  18.538  1.00  0.00     0.084 C 
BRANCH   7   8
HETATM    8  C14 UNL     1      -1.441   5.908  19.486  1.00  0.00    -0.045 A 
HETATM    9  C15 UNL     1      -0.078   6.092  19.404  1.00  0.00     0.008 A 
HETATM   10  C16 UNL     1       0.728   5.395  20.309  1.00  0.00     0.001 A 
HETATM   11  C17 UNL     1       0.170   4.556  21.247  1.00  0.00     0.000 A 
HETATM   12  C18 UNL     1      -1.197   4.403  21.291  1.00  0.00     0.001 A 
HETATM   13  C19 UNL     1      -2.030   5.070  20.420  1.00  0.00     0.008 A 
ENDBRANCH   7   8
BRANCH   7  14
HETATM   14  C20 UNL     1      -3.622   5.923  18.352  1.00  0.00    -0.045 A 
HETATM   15  C21 UNL     1      -3.740   4.924  17.383  1.00  0.00     0.008 A 
HETATM   16  C22 UNL     1      -4.940   4.277  17.208  1.00  0.00     0.001 A 
HETATM   17  C23 UNL     1      -6.061   4.570  17.957  1.00  0.00     0.000 A 
HETATM   18  C24 UNL     1      -5.920   5.562  18.912  1.00  0.00     0.001 A 
HETATM   19  C25 UNL     1      -4.719   6.217  19.095  1.00  0.00     0.008 A 
ENDBRANCH   7  14
ENDBRANCH   4   7
BRANCH   1  20
HETATM   20  C8  UNL     1      -3.232  12.227  19.609  1.00  0.00     0.158 C 
BRANCH  20  21
HETATM   21  N1  UNL     1      -2.545  13.047  18.626  1.00  0.00    -0.386 N 
ATOM     22  H1  UNL     1      -1.753  12.643  18.126  1.00  0.00     0.160 HD
BRANCH  21  23
HETATM   23  C7  UNL     1      -2.918  14.366  18.330  1.00  0.00     0.028 A 
HETATM   24  C6  UNL     1      -2.146  15.415  18.784  1.00  0.00     0.029 A 
HETATM   25  C5  UNL     1      -2.517  16.710  18.491  1.00  0.00     0.009 A 
HETATM   26  C4  UNL     1      -3.662  16.999  17.741  1.00  0.00    -0.058 A 
HETATM   27  C29 UNL     1      -4.418  15.942  17.297  1.00  0.00     0.009 A 
HETATM   28  C28 UNL     1      -4.047  14.631  17.591  1.00  0.00     0.029 A 
BRANCH  26  29
HETATM   29  C3  UNL     1      -4.016  18.405  17.454  1.00  0.00     0.038 C 
BRANCH  29  30
HETATM   30  C2  UNL     1      -4.774  18.566  16.152  1.00  0.00     0.000 C 
HETATM   31  C1  UNL     1      -4.369  19.887  15.501  1.00  0.00     0.005 C 
ENDBRANCH  29  30
ENDBRANCH  26  29
ENDBRANCH  21  23
ENDBRANCH  20  21
ENDBRANCH   1  20
TORSDOF 8
ENDMDL
MODEL 3
REMARK VINA RESULT: -11.290677964      0.114      1.735
REMARK  8 active torsions:
REMARK  status: ('A' for Active; 'I' for Inactive)
REMARK    1  A    between atoms: C2_2  and  C3_3 
REMARK    2  A    between atoms: C3_3  and  C4_4 
REMARK    3  A    between atoms: C7_7  and  N1_8 
REMARK    4  A    between atoms: N1_8  and  C8_10 
REMARK    5  A    between atoms: C8_10  and  C9_11 
REMARK    6  A    between atoms: C12_14  and  C13_15 
REMARK    7  A    between atoms: C13_15  and  C14_16 
REMARK    8  A    between atoms: C13_15  and  C20_22 
ROOT
HETATM    1  C9  UNL     1      -2.998  10.720  19.281  1.00  0.00    -0.041 A 
HETATM    2  C10 UNL     1      -2.841   9.770  20.273  1.00  0.00     0.009 A 
HETATM    3  C11 UNL     1      -2.627   8.428  19.996  1.00  0.00     0.009 A 
HETATM    4  C12 UNL     1      -2.562   7.987  18.673  1.00  0.00    -0.045 A 
HETATM    5  C26 UNL     1      -2.718   8.937  17.682  1.00  0.00     0.009 A 
HETATM    6  C27 UNL     1      -2.929  10.259  17.979  1.00  0.00     0.009 A 
ENDROOT
BRANCH   4   7
HETATM    7  C13 UNL     1      -2.340   6.558  18.442  1.00  0.00     0.084 C 
BRANCH   7   8
HETATM    8  C14 UNL     1      -1.462   5.901  19.428  1.00  0.00    -0.045 A 
HETATM    9  C15 UNL     1      -0.111   6.168  19.397  1.00  0.00     0.008 A 
HETATM   10  C16 UNL     1       0.700   5.524  20.337  1.00  0.00     0.001 A 
HETATM   11  C17 UNL     1       0.157   4.657  21.258  1.00  0.00     0.000 A 
HETATM   12  C18 UNL     1      -1.198   4.421  21.250  1.00  0.00     0.001 A 
HETATM   13  C19 UNL     1      -2.036   5.033  20.344  1.00  0.00     0.008 A 
ENDBRANCH   7   8
BRANCH   7  14
HETATM   14  C20 UNL     1      -3.657   5.860  18.320  1.00  0.00    -0.045 A 
HETATM   15  C21 UNL     1      -4.717   6.231  19.150  1.00  0.00     0.008 A 
HETATM   16  C22 UNL     1      -5.929   5.592  19.041  1.00  0.00     0.001 A 
HETATM   17  C23 UNL     1      -6.158   4.580  18.134  1.00  0.00     0.000 A 
HETATM   18  C24 UNL     1      -5.095   4.229  17.321  1.00  0.00     0.001 A 
HETATM   19  C25 UNL     1      -3.874   4.865  17.423  1.00  0.00     0.008 A 
ENDBRANCH   7  14
ENDBRANCH   4   7
BRANCH   1  20
HETATM   20  C8  UNL     1      -3.231  12.155  19.574  1.00  0.00     0.158 C 
BRANCH  20  21
HETATM   21  N1  UNL     1      -2.529  12.990  18.616  1.00  0.00    -0.386 N 
ATOM     22  H1  UNL     1      -1.726  12.596  18.126  1.00  0.00     0.160 HD
BRANCH  21  23
HETATM   23  C7  UNL     1      -2.901  14.312  18.331  1.00  0.00     0.028 A 
HETATM   24  C6  UNL     1      -2.114  15.356  18.771  1.00  0.00     0.029 A 
HETATM   25  C5  UNL     1      -2.486  16.654  18.489  1.00  0.00     0.009 A 
HETATM   26  C4  UNL     1      -3.644  16.950  17.765  1.00  0.00    -0.058 A 
HETATM   27  C29 UNL     1      -4.416  15.898  17.335  1.00  0.00     0.009 A 
HETATM   28  C28 UNL     1      -4.046  14.584  17.618  1.00  0.00     0.029 A 
BRANCH  26  29
HETATM   29  C3  UNL     1      -3.998  18.358  17.488  1.00  0.00     0.038 C 
BRANCH  29  30
HETATM   30  C2  UNL     1      -4.835  18.520  16.236  1.00  0.00     0.000 C 
HETATM   31  C1  UNL     1      -4.397  19.787  15.504  1.00  0.00     0.005 C 
ENDBRANCH  29  30
ENDBRANCH  26  29
ENDBRANCH  21  23
ENDBRANCH  20  21
ENDBRANCH   1  20
TORSDOF 8
ENDMDL
MODEL 4
REMARK VINA RESULT: -11.146609353      0.871      3.533
REMARK  8 active torsions:
REMARK  status: ('A' for Active; 'I' for Inactive)
REMARK    1  A    between atoms: C2_2  and  C3_3 
REMARK    2  A    between atoms: C3_3  and  C4_4 
REMARK    3  A    between atoms: C7_7  and  N1_8 
REMARK    4  A    between atoms: N1_8  and  C8_10 
REMARK    5  A    between atoms: C8_10  and  C9_11 
REMARK    6  A    between atoms: C12_14  and  C13_15 
REMARK    7  A    between atoms: C13_15  and  C14_16 
REMARK    8  A    between atoms: C13_15  and  C20_22 
ROOT
HETATM    1  C9  UNL     1      -3.021  10.249  18.240  1.00  0.00    -0.041 A 
HETATM    2  C10 UNL     1      -2.925  10.051  19.604  1.00  0.00     0.009 A 
HETATM    3  C11 UNL     1      -2.981   8.791  20.182  1.00  0.00     0.009 A 
HETATM    4  C12 UNL     1      -3.139   7.659  19.382  1.00  0.00    -0.045 A 
HETATM    5  C26 UNL     1      -3.234   7.858  18.018  1.00  0.00     0.009 A 
HETATM    6  C27 UNL     1      -3.176   9.112  17.468  1.00  0.00     0.009 A 
ENDROOT
BRANCH   4   7
HETATM    7  C13 UNL     1      -3.197   6.357  20.049  1.00  0.00     0.084 C 
BRANCH   7   8
HETATM    8  C14 UNL     1      -4.079   5.369  19.402  1.00  0.00    -0.045 A 
HETATM    9  C15 UNL     1      -3.514   4.384  18.622  1.00  0.00     0.008 A 
HETATM   10  C16 UNL     1      -4.374   3.465  18.012  1.00  0.00     0.001 A 
HETATM   11  C17 UNL     1      -5.737   3.550  18.191  1.00  0.00     0.000 A 
HETATM   12  C18 UNL     1      -6.255   4.552  18.979  1.00  0.00     0.001 A 
HETATM   13  C19 UNL     1      -5.447   5.479  19.600  1.00  0.00     0.008 A 
ENDBRANCH   7   8
BRANCH   7  14
HETATM   14  C20 UNL     1      -1.811   5.826  20.234  1.00  0.00    -0.045 A 
HETATM   15  C21 UNL     1      -1.547   4.927  21.270  1.00  0.00     0.008 A 
HETATM   16  C22 UNL     1      -0.275   4.436  21.443  1.00  0.00     0.001 A 
HETATM   17  C23 UNL     1       0.779   4.794  20.630  1.00  0.00     0.000 A 
HETATM   18  C24 UNL     1       0.495   5.686  19.611  1.00  0.00     0.001 A 
HETATM   19  C25 UNL     1      -0.780   6.184  19.428  1.00  0.00     0.008 A 
ENDBRANCH   7  14
ENDBRANCH   4   7
BRANCH   1  20
HETATM   20  C8  UNL     1      -2.966  11.595  17.619  1.00  0.00     0.158 C 
BRANCH  20  21
HETATM   21  N1  UNL     1      -2.751  12.613  18.631  1.00  0.00    -0.386 N 
ATOM     22  H1  UNL     1      -2.426  12.320  19.553  1.00  0.00     0.160 HD
BRANCH  21  23
HETATM   23  C7  UNL     1      -2.967  13.980  18.405  1.00  0.00     0.028 A 
HETATM   24  C6  UNL     1      -4.057  14.389  17.665  1.00  0.00     0.029 A 
HETATM   25  C5  UNL     1      -4.264  15.734  17.444  1.00  0.00     0.009 A 
HETATM   26  C4  UNL     1      -3.397  16.708  17.951  1.00  0.00    -0.058 A 
HETATM   27  C29 UNL     1      -2.317  16.282  18.686  1.00  0.00     0.009 A 
HETATM   28  C28 UNL     1      -2.103  14.924  18.911  1.00  0.00     0.029 A 
BRANCH  26  29
HETATM   29  C3  UNL     1      -3.664  18.138  17.687  1.00  0.00     0.038 C 
BRANCH  29  30
HETATM   30  C2  UNL     1      -4.834  18.354  16.749  1.00  0.00     0.000 C 
HETATM   31  C1  UNL     1      -4.496  19.492  15.787  1.00  0.00     0.005 C 
ENDBRANCH  29  30
ENDBRANCH  26  29
ENDBRANCH  21  23
ENDBRANCH  20  21
ENDBRANCH   1  20
TORSDOF 8
ENDMDL
MODEL 5
REMARK VINA RESULT: -11.069595260      0.895      3.536
REMARK  8 active torsions:
REMARK  status: ('A' for Active; 'I' for Inactive)
REMARK    1  A    between atoms: C2_2  and  C3_3 
REMARK    2  A    between atoms: C3_3  and  C4_4 
REMARK    3  A    between atoms: C7_7  and  N1_8 
REMARK    4  A    between atoms: N1_8  and  C8_10 
REMARK    5  A    between atoms: C8_10  and  C9_11 
REMARK    6  A    between atoms: C12_14  and  C13_15 
REMARK    7  A    between atoms: C13_15  and  C14_16 
REMARK    8  A    between atoms: C13_15  and  C20_22 
ROOT
HETATM    1  C9  UNL     1      -3.116  10.192  18.226  1.00  0.00    -0.041 A 
HETATM    2  C10 UNL     1      -3.160  10.011  19.595  1.00  0.00     0.009 A 
HETATM    3  C11 UNL     1      -3.198   8.754  20.182  1.00  0.00     0.009 A 
HETATM    4  C12 UNL     1      -3.194   7.608  19.385  1.00  0.00    -0.045 A 
HETATM    5  C26 UNL     1      -3.150   7.791  18.016  1.00  0.00     0.009 A 
HETATM    6  C27 UNL     1      -3.113   9.042  17.458  1.00  0.00     0.009 A 
ENDROOT
BRANCH   4   7
HETATM    7  C13 UNL     1      -3.242   6.310  20.060  1.00  0.00     0.084 C 
BRANCH   7   8
HETATM    8  C14 UNL     1      -4.100   5.304  19.407  1.00  0.00    -0.045 A 
HETATM    9  C15 UNL     1      -5.463   5.370  19.598  1.00  0.00     0.008 A 
HETATM   10  C16 UNL     1      -6.253   4.398  18.975  1.00  0.00     0.001 A 
HETATM   11  C17 UNL     1      -5.679   3.415  18.199  1.00  0.00     0.000 A 
HETATM   12  C18 UNL     1      -4.313   3.391  18.039  1.00  0.00     0.001 A 
HETATM   13  C19 UNL     1      -3.495   4.327  18.633  1.00  0.00     0.008 A 
ENDBRANCH   7   8
BRANCH   7  14
HETATM   14  C20 UNL     1      -1.851   5.801  20.268  1.00  0.00    -0.045 A 
HETATM   15  C21 UNL     1      -0.813   6.278  19.465  1.00  0.00     0.008 A 
HETATM   16  C22 UNL     1       0.467   5.813  19.653  1.00  0.00     0.001 A 
HETATM   17  C23 UNL     1       0.787   4.878  20.615  1.00  0.00     0.000 A 
HETATM   18  C24 UNL     1      -0.257   4.421  21.399  1.00  0.00     0.001 A 
HETATM   19  C25 UNL     1      -1.546   4.881  21.218  1.00  0.00     0.008 A 
ENDBRANCH   7  14
ENDBRANCH   4   7
BRANCH   1  20
HETATM   20  C8  UNL     1      -3.080  11.534  17.595  1.00  0.00     0.158 C 
BRANCH  20  21
HETATM   21  N1  UNL     1      -2.777  12.553  18.586  1.00  0.00    -0.386 N 
ATOM     22  H1  UNL     1      -2.389  12.257  19.482  1.00  0.00     0.160 HD
BRANCH  21  23
HETATM   23  C7  UNL     1      -2.990  13.922  18.370  1.00  0.00     0.028 A 
HETATM   24  C6  UNL     1      -2.107  14.844  18.892  1.00  0.00     0.029 A 
HETATM   25  C5  UNL     1      -2.323  16.189  18.679  1.00  0.00     0.009 A 
HETATM   26  C4  UNL     1      -3.418  16.654  17.943  1.00  0.00    -0.058 A 
HETATM   27  C29 UNL     1      -4.286  15.721  17.431  1.00  0.00     0.009 A 
HETATM   28  C28 UNL     1      -4.073  14.361  17.645  1.00  0.00     0.029 A 
BRANCH  26  29
HETATM   29  C3  UNL     1      -3.604  18.107  17.742  1.00  0.00     0.038 C 
BRANCH  29  30
HETATM   30  C2  UNL     1      -4.828  18.434  16.912  1.00  0.00     0.000 C 
HETATM   31  C1  UNL     1      -4.441  19.438  15.828  1.00  0.00     0.005 C 
ENDBRANCH  29  30
ENDBRANCH  26  29
ENDBRANCH  21  23
ENDBRANCH  20  21
ENDBRANCH   1  20
TORSDOF 8
ENDMDL
