MODEL 1
REMARK VINA RESULT: -5.791086369      0.000      0.000
REMARK  2 active torsions:
REMARK  status: ('A' for Active; 'I' for Inactive)
REMARK    1  A    between atoms: C3_4  and  N1_5 
REMARK    2  A    between atoms: N1_5  and  C4_8 
ROOT
HETATM    1  C4  UNL     1      16.107  47.555  69.550  1.00  0.00     0.192 C 
HETATM    2  C5  UNL     1      15.420  48.465  68.578  1.00  0.00     0.060 C 
HETATM    3  C6  UNL     1      14.666  49.478  69.427  1.00  0.00     0.234 C 
HETATM    4  N2  UNL     1      13.583  48.723  70.024  1.00  0.00    -0.075 N 
ATOM      5  H21 UNL     1      13.019  48.258  69.312  1.00  0.00     0.277 HD
ATOM      6  H22 UNL     1      12.871  49.341  70.413  1.00  0.00     0.277 HD
HETATM    7  C7  UNL     1      14.056  47.788  71.007  1.00  0.00     0.234 C 
HETATM    8  C8  UNL     1      15.288  47.056  70.673  1.00  0.00     0.060 C 
ENDROOT
BRANCH   1   9
HETATM    9  N1  UNL     1      16.725  46.426  68.842  1.00  0.00    -0.044 N 
ATOM     10  H12 UNL     1      16.191  46.168  68.012  1.00  0.00     0.280 HD
ATOM     11  H11 UNL     1      16.628  45.557  69.368  1.00  0.00     0.280 HD
BRANCH   9  12
HETATM   12  C3  UNL     1      18.107  46.700  68.520  1.00  0.00     0.321 C 
HETATM   13  O1  UNL     1      18.335  46.208  67.253  1.00  0.00    -0.359 OA
HETATM   14  C2  UNL     1      19.675  45.962  67.117  1.00  0.00     0.170 C 
HETATM   15  C1  UNL     1      20.277  45.843  68.479  1.00  0.00     0.030 C 
HETATM   16  C9  UNL     1      19.069  45.931  69.387  1.00  0.00     0.063 C 
ENDBRANCH   9  12
ENDBRANCH   1   9
TORSDOF 2
ENDMDL
MODEL 2
REMARK VINA RESULT: -5.770520440      3.193      4.698
REMARK  2 active torsions:
REMARK  status: ('A' for Active; 'I' for Inactive)
REMARK    1  A    between atoms: C3_4  and  N1_5 
REMARK    2  A    between atoms: N1_5  and  C4_8 
ROOT
HETATM    1  C4  UNL     1      14.748  48.243  70.443  1.00  0.00     0.192 C 
HETATM    2  C5  UNL     1      15.465  47.103  69.788  1.00  0.00     0.060 C 
HETATM    3  C6  UNL     1      16.239  46.411  70.900  1.00  0.00     0.234 C 
HETATM    4  N2  UNL     1      17.298  47.338  71.244  1.00  0.00    -0.075 N 
ATOM      5  H21 UNL     1      17.855  47.583  70.426  1.00  0.00     0.277 HD
ATOM      6  H22 UNL     1      18.021  46.884  71.800  1.00  0.00     0.277 HD
HETATM    7  C7  UNL     1      16.794  48.511  71.903  1.00  0.00     0.234 C 
HETATM    8  C8  UNL     1      15.545  49.077  71.366  1.00  0.00     0.060 C 
ENDROOT
BRANCH   1   9
HETATM    9  N1  UNL     1      14.107  49.092  69.430  1.00  0.00    -0.044 N 
ATOM     10  H12 UNL     1      13.360  49.658  69.834  1.00  0.00     0.280 HD
ATOM     11  H11 UNL     1      13.551  48.541  68.777  1.00  0.00     0.280 HD
BRANCH   9  12
HETATM   12  C3  UNL     1      15.079  49.911  68.740  1.00  0.00     0.321 C 
HETATM   13  O1  UNL     1      14.606  51.206  68.757  1.00  0.00    -0.359 OA
HETATM   14  C2  UNL     1      15.171  51.888  67.715  1.00  0.00     0.170 C 
HETATM   15  C1  UNL     1      15.662  50.900  66.709  1.00  0.00     0.030 C 
HETATM   16  C9  UNL     1      15.179  49.581  67.274  1.00  0.00     0.063 C 
ENDBRANCH   9  12
ENDBRANCH   1   9
TORSDOF 2
ENDMDL
MODEL 3
REMARK VINA RESULT: -5.626711598      0.923      1.232
REMARK  2 active torsions:
REMARK  status: ('A' for Active; 'I' for Inactive)
REMARK    1  A    between atoms: C3_4  and  N1_5 
REMARK    2  A    between atoms: N1_5  and  C4_8 
ROOT
HETATM    1  C4  UNL     1      15.868  47.566  69.152  1.00  0.00     0.192 C 
HETATM    2  C5  UNL     1      15.107  48.627  68.417  1.00  0.00     0.060 C 
HETATM    3  C6  UNL     1      14.753  49.676  69.462  1.00  0.00     0.234 C 
HETATM    4  N2  UNL     1      13.751  49.042  70.294  1.00  0.00    -0.075 N 
ATOM      5  H21 UNL     1      12.963  48.711  69.738  1.00  0.00     0.277 HD
ATOM      6  H22 UNL     1      13.263  49.726  70.872  1.00  0.00     0.277 HD
HETATM    7  C7  UNL     1      14.306  47.985  71.094  1.00  0.00     0.234 C 
HETATM    8  C8  UNL     1      15.289  47.112  70.433  1.00  0.00     0.060 C 
ENDROOT
BRANCH   1   9
HETATM    9  N1  UNL     1      16.108  46.412  68.276  1.00  0.00    -0.044 N 
ATOM     10  H12 UNL     1      15.519  46.445  67.443  1.00  0.00     0.280 HD
ATOM     11  H11 UNL     1      15.751  45.549  68.687  1.00  0.00     0.280 HD
BRANCH   9  12
HETATM   12  C3  UNL     1      17.508  46.296  67.931  1.00  0.00     0.321 C 
HETATM   13  O1  UNL     1      18.149  45.738  69.016  1.00  0.00    -0.359 OA
HETATM   14  C2  UNL     1      19.471  46.087  68.965  1.00  0.00     0.170 C 
HETATM   15  C1  UNL     1      19.614  47.288  68.088  1.00  0.00     0.030 C 
HETATM   16  C9  UNL     1      18.176  47.635  67.763  1.00  0.00     0.063 C 
ENDBRANCH   9  12
ENDBRANCH   1   9
TORSDOF 2
ENDMDL
MODEL 4
REMARK VINA RESULT: -5.480356864      0.973      1.900
REMARK  2 active torsions:
REMARK  status: ('A' for Active; 'I' for Inactive)
REMARK    1  A    between atoms: C3_4  and  N1_5 
REMARK    2  A    between atoms: N1_5  and  C4_8 
ROOT
HETATM    1  C4  UNL     1      16.128  47.550  69.496  1.00  0.00     0.192 C 
HETATM    2  C5  UNL     1      15.645  47.439  70.910  1.00  0.00     0.060 C 
HETATM    3  C6  UNL     1      14.126  47.496  70.830  1.00  0.00     0.234 C 
HETATM    4  N2  UNL     1      13.828  48.866  70.465  1.00  0.00    -0.075 N 
ATOM      5  H21 UNL     1      14.246  49.524  71.124  1.00  0.00     0.277 HD
ATOM      6  H22 UNL     1      12.845  49.085  70.622  1.00  0.00     0.277 HD
HETATM    7  C7  UNL     1      14.218  49.161  69.115  1.00  0.00     0.234 C 
HETATM    8  C8  UNL     1      15.508  48.607  68.672  1.00  0.00     0.060 C 
ENDROOT
BRANCH   1   9
HETATM    9  N1  UNL     1      17.590  47.686  69.466  1.00  0.00    -0.044 N 
ATOM     10  H12 UNL     1      17.975  47.803  70.404  1.00  0.00     0.280 HD
ATOM     11  H11 UNL     1      17.874  48.580  69.066  1.00  0.00     0.280 HD
BRANCH   9  12
HETATM   12  C3  UNL     1      18.208  46.576  68.775  1.00  0.00     0.321 C 
HETATM   13  O1  UNL     1      19.425  46.346  69.380  1.00  0.00    -0.359 OA
HETATM   14  C2  UNL     1      20.241  45.711  68.484  1.00  0.00     0.170 C 
HETATM   15  C1  UNL     1      19.714  45.949  67.107  1.00  0.00     0.030 C 
HETATM   16  C9  UNL     1      18.567  46.907  67.350  1.00  0.00     0.063 C 
ENDBRANCH   9  12
ENDBRANCH   1   9
TORSDOF 2
ENDMDL
MODEL 5
REMARK VINA RESULT: -5.435673805      3.007      4.248
REMARK  2 active torsions:
REMARK  status: ('A' for Active; 'I' for Inactive)
REMARK    1  A    between atoms: C3_4  and  N1_5 
REMARK    2  A    between atoms: N1_5  and  C4_8 
ROOT
HETATM    1  C4  UNL     1      14.587  49.790  67.993  1.00  0.00     0.192 C 
HETATM    2  C5  UNL     1      14.769  51.218  68.411  1.00  0.00     0.060 C 
HETATM    3  C6  UNL     1      15.196  51.962  67.155  1.00  0.00     0.234 C 
HETATM    4  N2  UNL     1      16.544  51.500  66.893  1.00  0.00    -0.075 N 
ATOM      5  H21 UNL     1      17.149  51.646  67.702  1.00  0.00     0.277 HD
ATOM      6  H22 UNL     1      17.020  52.106  66.226  1.00  0.00     0.277 HD
HETATM    7  C7  UNL     1      16.570  50.129  66.463  1.00  0.00     0.234 C 
HETATM    8  C8  UNL     1      15.661  49.207  67.164  1.00  0.00     0.060 C 
ENDROOT
BRANCH   1   9
HETATM    9  N1  UNL     1      14.347  48.942  69.168  1.00  0.00    -0.044 N 
ATOM     10  H12 UNL     1      13.639  48.232  68.979  1.00  0.00     0.280 HD
ATOM     11  H11 UNL     1      13.864  49.453  69.906  1.00  0.00     0.280 HD
BRANCH   9  12
HETATM   12  C3  UNL     1      15.575  48.350  69.649  1.00  0.00     0.321 C 
HETATM   13  O1  UNL     1      15.309  47.026  69.924  1.00  0.00    -0.359 OA
HETATM   14  C2  UNL     1      16.224  46.580  70.839  1.00  0.00     0.170 C 
HETATM   15  C1  UNL     1      16.814  47.761  71.536  1.00  0.00     0.030 C 
HETATM   16  C9  UNL     1      16.011  48.916  70.975  1.00  0.00     0.063 C 
ENDBRANCH   9  12
ENDBRANCH   1   9
TORSDOF 2
ENDMDL
