MODEL 1
REMARK VINA RESULT: -5.826733814      0.000      0.000
REMARK  1 active torsions:
REMARK  status: ('A' for Active; 'I' for Inactive)
REMARK    1  A    between atoms: C2_2  and  C3_3 
ROOT
HETATM    1  C3  UNL     1      14.645  49.150  68.983  1.00  0.00     0.125 C 
HETATM    2  C4  UNL     1      16.088  48.712  69.146  1.00  0.00     0.104 C 
HETATM    3  C5  UNL     1      15.894  47.313  69.673  1.00  0.00     0.310 C 
HETATM    4  C6  UNL     1      14.578  47.395  70.357  1.00  0.00     0.238 C 
HETATM    5  O1  UNL     1      14.084  48.691  70.174  1.00  0.00    -0.381 OA
HETATM    6  N1  UNL     1      15.953  46.398  68.577  1.00  0.00    -0.036 N 
ATOM      7  H11 UNL     1      15.405  46.673  67.763  1.00  0.00     0.280 HD
ATOM      8  H12 UNL     1      15.469  45.514  68.733  1.00  0.00     0.280 HD
HETATM    9  C7  UNL     1      17.387  46.274  68.335  1.00  0.00     0.268 C 
HETATM   10  C8  UNL     1      18.072  46.881  69.541  1.00  0.00     0.210 C 
HETATM   11  C9  UNL     1      19.213  46.009  70.008  1.00  0.00     0.042 C 
HETATM   12  N2  UNL     1      16.979  46.885  70.520  1.00  0.00    -0.033 N 
ATOM     13  H21 UNL     1      16.831  46.013  71.028  1.00  0.00     0.280 HD
ATOM     14  H22 UNL     1      17.136  47.441  71.360  1.00  0.00     0.280 HD
ENDROOT
BRANCH   1  15
HETATM   15  C2  UNL     1      14.519  50.630  68.856  1.00  0.00     0.027 C 
HETATM   16  C1  UNL     1      15.020  51.021  67.473  1.00  0.00     0.007 C 
ENDBRANCH   1  15
TORSDOF 1
ENDMDL
MODEL 2
REMARK VINA RESULT: -5.791238753      1.418      1.661
REMARK  1 active torsions:
REMARK  status: ('A' for Active; 'I' for Inactive)
REMARK    1  A    between atoms: C2_2  and  C3_3 
ROOT
HETATM    1  C3  UNL     1      14.943  48.047  70.102  1.00  0.00     0.125 C 
HETATM    2  C4  UNL     1      16.246  48.201  69.341  1.00  0.00     0.104 C 
HETATM    3  C5  UNL     1      16.864  46.846  69.576  1.00  0.00     0.310 C 
HETATM    4  C6  UNL     1      16.271  46.431  70.874  1.00  0.00     0.238 C 
HETATM    5  O1  UNL     1      15.382  47.433  71.274  1.00  0.00    -0.381 OA
HETATM    6  N1  UNL     1      16.552  46.001  68.467  1.00  0.00    -0.036 N 
ATOM      7  H11 UNL     1      15.576  46.027  68.173  1.00  0.00     0.280 HD
ATOM      8  H12 UNL     1      16.571  45.003  68.674  1.00  0.00     0.280 HD
HETATM    9  C7  UNL     1      17.507  46.432  67.452  1.00  0.00     0.268 C 
HETATM   10  C8  UNL     1      18.533  47.281  68.172  1.00  0.00     0.210 C 
HETATM   11  C9  UNL     1      19.933  46.925  67.731  1.00  0.00     0.042 C 
HETATM   12  N2  UNL     1      18.305  46.886  69.566  1.00  0.00    -0.033 N 
ATOM     13  H21 UNL     1      18.777  46.035  69.873  1.00  0.00     0.280 HD
ATOM     14  H22 UNL     1      18.740  47.477  70.274  1.00  0.00     0.280 HD
ENDROOT
BRANCH   1  15
HETATM   15  C2  UNL     1      14.299  49.363  70.383  1.00  0.00     0.027 C 
HETATM   16  C1  UNL     1      14.566  50.272  69.193  1.00  0.00     0.007 C 
ENDBRANCH   1  15
TORSDOF 1
ENDMDL
MODEL 3
REMARK VINA RESULT: -5.713546111      1.917      4.452
REMARK  1 active torsions:
REMARK  status: ('A' for Active; 'I' for Inactive)
REMARK    1  A    between atoms: C2_2  and  C3_3 
ROOT
HETATM    1  C3  UNL     1      18.653  46.490  70.040  1.00  0.00     0.125 C 
HETATM    2  C4  UNL     1      17.863  47.289  69.022  1.00  0.00     0.104 C 
HETATM    3  C5  UNL     1      16.666  47.683  69.851  1.00  0.00     0.310 C 
HETATM    4  C6  UNL     1      16.578  46.587  70.850  1.00  0.00     0.238 C 
HETATM    5  O1  UNL     1      17.649  45.717  70.621  1.00  0.00    -0.381 OA
HETATM    6  N1  UNL     1      16.893  48.985  70.394  1.00  0.00    -0.036 N 
ATOM      7  H11 UNL     1      17.815  49.118  70.809  1.00  0.00     0.280 HD
ATOM      8  H12 UNL     1      16.368  49.189  71.244  1.00  0.00     0.280 HD
HETATM    9  C7  UNL     1      16.596  49.864  69.268  1.00  0.00     0.268 C 
HETATM   10  C8  UNL     1      15.891  49.006  68.239  1.00  0.00     0.210 C 
HETATM   11  C9  UNL     1      14.693  49.725  67.667  1.00  0.00     0.042 C 
HETATM   12  N2  UNL     1      15.476  47.860  69.056  1.00  0.00    -0.033 N 
ATOM     13  H21 UNL     1      14.605  47.973  69.575  1.00  0.00     0.280 HD
ATOM     14  H22 UNL     1      15.157  47.039  68.542  1.00  0.00     0.280 HD
ENDROOT
BRANCH   1  15
HETATM   15  C2  UNL     1      19.694  45.638  69.397  1.00  0.00     0.027 C 
HETATM   16  C1  UNL     1      19.800  46.058  67.938  1.00  0.00     0.007 C 
ENDBRANCH   1  15
TORSDOF 1
ENDMDL
MODEL 4
REMARK VINA RESULT: -5.592808056      2.613      4.376
REMARK  1 active torsions:
REMARK  status: ('A' for Active; 'I' for Inactive)
REMARK    1  A    between atoms: C2_2  and  C3_3 
ROOT
HETATM    1  C3  UNL     1      18.516  46.344  67.534  1.00  0.00     0.125 C 
HETATM    2  C4  UNL     1      18.451  46.935  68.930  1.00  0.00     0.104 C 
HETATM    3  C5  UNL     1      17.051  47.495  68.928  1.00  0.00     0.310 C 
HETATM    4  C6  UNL     1      16.810  47.779  67.490  1.00  0.00     0.238 C 
HETATM    5  O1  UNL     1      17.941  47.365  66.779  1.00  0.00    -0.381 OA
HETATM    6  N1  UNL     1      16.172  46.535  69.514  1.00  0.00    -0.036 N 
ATOM      7  H11 UNL     1      16.296  45.581  69.176  1.00  0.00     0.280 HD
ATOM      8  H12 UNL     1      15.197  46.619  69.228  1.00  0.00     0.280 HD
HETATM    9  C7  UNL     1      16.406  46.710  70.944  1.00  0.00     0.268 C 
HETATM   10  C8  UNL     1      17.173  48.008  71.089  1.00  0.00     0.210 C 
HETATM   11  C9  UNL     1      16.616  48.840  72.219  1.00  0.00     0.042 C 
HETATM   12  N2  UNL     1      16.913  48.641  69.792  1.00  0.00    -0.033 N 
ATOM     13  H21 UNL     1      16.035  49.155  69.713  1.00  0.00     0.280 HD
ATOM     14  H22 UNL     1      17.497  49.445  69.563  1.00  0.00     0.280 HD
ENDROOT
BRANCH   1  15
HETATM   15  C2  UNL     1      19.917  46.072  67.106  1.00  0.00     0.027 C 
HETATM   16  C1  UNL     1      20.666  45.505  68.303  1.00  0.00     0.007 C 
ENDBRANCH   1  15
TORSDOF 1
ENDMDL
MODEL 5
REMARK VINA RESULT: -5.499297312      1.019      1.153
REMARK  1 active torsions:
REMARK  status: ('A' for Active; 'I' for Inactive)
REMARK    1  A    between atoms: C2_2  and  C3_3 
ROOT
HETATM    1  C3  UNL     1      14.644  49.820  68.211  1.00  0.00     0.125 C 
HETATM    2  C4  UNL     1      16.000  49.152  68.340  1.00  0.00     0.104 C 
HETATM    3  C5  UNL     1      15.759  48.270  69.539  1.00  0.00     0.310 C 
HETATM    4  C6  UNL     1      14.704  49.003  70.284  1.00  0.00     0.238 C 
HETATM    5  O1  UNL     1      14.369  50.138  69.539  1.00  0.00    -0.381 OA
HETATM    6  N1  UNL     1      15.388  46.968  69.083  1.00  0.00    -0.036 N 
ATOM      7  H11 UNL     1      14.684  46.959  68.345  1.00  0.00     0.280 HD
ATOM      8  H12 UNL     1      14.844  46.422  69.750  1.00  0.00     0.280 HD
HETATM    9  C7  UNL     1      16.669  46.376  68.711  1.00  0.00     0.268 C 
HETATM   10  C8  UNL     1      17.735  47.277  69.299  1.00  0.00     0.210 C 
HETATM   11  C9  UNL     1      18.824  46.464  69.957  1.00  0.00     0.042 C 
HETATM   12  N2  UNL     1      16.961  48.024  70.296  1.00  0.00    -0.033 N 
ATOM     13  H21 UNL     1      16.835  47.566  71.198  1.00  0.00     0.280 HD
ATOM     14  H22 UNL     1      17.417  48.848  70.688  1.00  0.00     0.280 HD
ENDROOT
BRANCH   1  15
HETATM   15  C2  UNL     1      14.701  51.042  67.358  1.00  0.00     0.027 C 
HETATM   16  C1  UNL     1      15.365  52.144  68.171  1.00  0.00     0.007 C 
ENDBRANCH   1  15
TORSDOF 1
ENDMDL
