MODEL 1
REMARK VINA RESULT: -5.573117202      0.000      0.000
REMARK  3 active torsions:
REMARK  status: ('A' for Active; 'I' for Inactive)
REMARK    1  A    between atoms: O1_2  and  C2_3 
REMARK    2  A    between atoms: C7_8  and  N1_9 
REMARK    3  A    between atoms: N1_9  and  N2_10 
ROOT
HETATM    1  C2  UNL     1      15.623  50.504  68.057  1.00  0.00     0.058 C 
HETATM    2  C3  UNL     1      15.007  51.652  67.280  1.00  0.00     0.046 C 
HETATM    3  C4  UNL     1      15.717  49.337  67.061  1.00  0.00     0.038 C 
HETATM    4  C5  UNL     1      16.203  48.084  67.732  1.00  0.00     0.004 C 
HETATM    5  C6  UNL     1      15.705  47.955  69.151  1.00  0.00     0.023 C 
HETATM    6  C7  UNL     1      14.373  48.670  69.225  1.00  0.00     0.101 C 
HETATM    7  C8  UNL     1      14.692  50.167  69.180  1.00  0.00     0.060 C 
ENDROOT
BRANCH   6   8
HETATM    8  N1  UNL     1      13.668  48.409  70.453  1.00  0.00    -0.143 NA
BRANCH   8   9
HETATM    9  N2  UNL     1      13.658  47.074  70.811  1.00  0.00    -0.348 N 
ATOM     10  H22 UNL     1      13.722  46.323  70.123  1.00  0.00     0.172 HD
ATOM     11  H21 UNL     1      13.583  46.922  71.817  1.00  0.00     0.172 HD
ENDBRANCH   8   9
ENDBRANCH   6   8
BRANCH   1  12
HETATM   12  O1  UNL     1      16.916  50.758  68.442  1.00  0.00    -0.385 OA
HETATM   13  C1  UNL     1      17.618  51.596  67.611  1.00  0.00     0.202 C 
ENDBRANCH   1  12
TORSDOF 3
ENDMDL
MODEL 2
REMARK VINA RESULT: -5.525869830      1.949      2.701
REMARK  3 active torsions:
REMARK  status: ('A' for Active; 'I' for Inactive)
REMARK    1  A    between atoms: O1_2  and  C2_3 
REMARK    2  A    between atoms: C7_8  and  N1_9 
REMARK    3  A    between atoms: N1_9  and  N2_10 
ROOT
HETATM    1  C2  UNL     1      16.286  49.376  68.706  1.00  0.00     0.058 C 
HETATM    2  C3  UNL     1      17.225  50.553  68.518  1.00  0.00     0.046 C 
HETATM    3  C4  UNL     1      14.962  49.981  69.199  1.00  0.00     0.038 C 
HETATM    4  C5  UNL     1      13.967  48.909  69.545  1.00  0.00     0.004 C 
HETATM    5  C6  UNL     1      14.618  47.684  70.139  1.00  0.00     0.023 C 
HETATM    6  C7  UNL     1      15.872  48.143  70.851  1.00  0.00     0.101 C 
HETATM    7  C8  UNL     1      16.882  48.486  69.753  1.00  0.00     0.060 C 
ENDROOT
BRANCH   6   8
HETATM    8  N1  UNL     1      16.453  47.116  71.676  1.00  0.00    -0.143 NA
BRANCH   8   9
HETATM    9  N2  UNL     1      16.207  45.835  71.219  1.00  0.00    -0.348 N 
ATOM     10  H22 UNL     1      15.656  45.651  70.380  1.00  0.00     0.172 HD
ATOM     11  H21 UNL     1      16.627  45.108  71.798  1.00  0.00     0.172 HD
ENDBRANCH   8   9
ENDBRANCH   6   8
BRANCH   1  12
HETATM   12  O1  UNL     1      15.982  48.747  67.525  1.00  0.00    -0.385 OA
HETATM   13  C1  UNL     1      16.838  47.735  67.167  1.00  0.00     0.202 C 
ENDBRANCH   1  12
TORSDOF 3
ENDMDL
MODEL 3
REMARK VINA RESULT: -5.386458404      1.561      3.050
REMARK  3 active torsions:
REMARK  status: ('A' for Active; 'I' for Inactive)
REMARK    1  A    between atoms: O1_2  and  C2_3 
REMARK    2  A    between atoms: C7_8  and  N1_9 
REMARK    3  A    between atoms: N1_9  and  N2_10 
ROOT
HETATM    1  C2  UNL     1      16.770  48.006  68.896  1.00  0.00     0.058 C 
HETATM    2  C3  UNL     1      17.964  47.292  69.500  1.00  0.00     0.046 C 
HETATM    3  C4  UNL     1      17.065  49.506  69.054  1.00  0.00     0.038 C 
HETATM    4  C5  UNL     1      15.902  50.342  68.603  1.00  0.00     0.004 C 
HETATM    5  C6  UNL     1      14.571  49.699  68.910  1.00  0.00     0.023 C 
HETATM    6  C7  UNL     1      14.762  48.843  70.144  1.00  0.00     0.101 C 
HETATM    7  C8  UNL     1      15.562  47.619  69.693  1.00  0.00     0.060 C 
ENDROOT
BRANCH   6   8
HETATM    8  N1  UNL     1      13.517  48.375  70.695  1.00  0.00    -0.143 NA
BRANCH   8   9
HETATM    9  N2  UNL     1      13.514  47.023  70.984  1.00  0.00    -0.348 N 
ATOM     10  H22 UNL     1      12.736  46.412  70.734  1.00  0.00     0.172 HD
ATOM     11  H21 UNL     1      14.357  46.707  71.465  1.00  0.00     0.172 HD
ENDBRANCH   8   9
ENDBRANCH   6   8
BRANCH   1  12
HETATM   12  O1  UNL     1      16.656  47.797  67.544  1.00  0.00    -0.385 OA
HETATM   13  C1  UNL     1      16.804  46.493  67.142  1.00  0.00     0.202 C 
ENDBRANCH   1  12
TORSDOF 3
ENDMDL
MODEL 4
REMARK VINA RESULT: -5.383506812      2.245      2.940
REMARK  3 active torsions:
REMARK  status: ('A' for Active; 'I' for Inactive)
REMARK    1  A    between atoms: O1_2  and  C2_3 
REMARK    2  A    between atoms: C7_8  and  N1_9 
REMARK    3  A    between atoms: N1_9  and  N2_10 
ROOT
HETATM    1  C2  UNL     1      16.072  49.415  68.784  1.00  0.00     0.058 C 
HETATM    2  C3  UNL     1      16.632  50.761  68.365  1.00  0.00     0.046 C 
HETATM    3  C4  UNL     1      14.641  49.697  69.268  1.00  0.00     0.038 C 
HETATM    4  C5  UNL     1      14.001  48.460  69.830  1.00  0.00     0.004 C 
HETATM    5  C6  UNL     1      14.985  47.576  70.555  1.00  0.00     0.023 C 
HETATM    6  C7  UNL     1      16.071  48.473  71.109  1.00  0.00     0.101 C 
HETATM    7  C8  UNL     1      16.919  48.904  69.910  1.00  0.00     0.060 C 
ENDROOT
BRANCH   6   8
HETATM    8  N1  UNL     1      16.937  47.793  72.037  1.00  0.00    -0.143 NA
BRANCH   8   9
HETATM    9  N2  UNL     1      17.649  48.649  72.857  1.00  0.00    -0.348 N 
ATOM     10  H22 UNL     1      17.195  49.240  73.555  1.00  0.00     0.172 HD
ATOM     11  H21 UNL     1      18.656  48.627  72.694  1.00  0.00     0.172 HD
ENDBRANCH   8   9
ENDBRANCH   6   8
BRANCH   1  12
HETATM   12  O1  UNL     1      15.936  48.546  67.730  1.00  0.00    -0.385 OA
HETATM   13  C1  UNL     1      17.075  47.860  67.390  1.00  0.00     0.202 C 
ENDBRANCH   1  12
TORSDOF 3
ENDMDL
MODEL 5
REMARK VINA RESULT: -5.366301763      1.387      1.915
REMARK  3 active torsions:
REMARK  status: ('A' for Active; 'I' for Inactive)
REMARK    1  A    between atoms: O1_2  and  C2_3 
REMARK    2  A    between atoms: C7_8  and  N1_9 
REMARK    3  A    between atoms: N1_9  and  N2_10 
ROOT
HETATM    1  C2  UNL     1      16.373  48.613  67.962  1.00  0.00     0.058 C 
HETATM    2  C3  UNL     1      15.523  49.254  66.882  1.00  0.00     0.046 C 
HETATM    3  C4  UNL     1      16.727  47.215  67.431  1.00  0.00     0.038 C 
HETATM    4  C5  UNL     1      17.474  46.413  68.458  1.00  0.00     0.004 C 
HETATM    5  C6  UNL     1      17.009  46.697  69.866  1.00  0.00     0.023 C 
HETATM    6  C7  UNL     1      15.552  47.098  69.785  1.00  0.00     0.101 C 
HETATM    7  C8  UNL     1      15.533  48.511  69.198  1.00  0.00     0.060 C 
ENDROOT
BRANCH   6   8
HETATM    8  N1  UNL     1      14.915  47.150  71.075  1.00  0.00    -0.143 NA
BRANCH   8   9
HETATM    9  N2  UNL     1      13.534  47.140  71.011  1.00  0.00    -0.348 N 
ATOM     10  H22 UNL     1      12.951  47.596  71.713  1.00  0.00     0.172 HD
ATOM     11  H21 UNL     1      13.168  46.637  70.202  1.00  0.00     0.172 HD
ENDBRANCH   8   9
ENDBRANCH   6   8
BRANCH   1  12
HETATM   12  O1  UNL     1      17.576  49.250  68.139  1.00  0.00    -0.385 OA
HETATM   13  C1  UNL     1      17.490  50.596  68.394  1.00  0.00     0.202 C 
ENDBRANCH   1  12
TORSDOF 3
ENDMDL
