MODEL 1
REMARK VINA RESULT: -6.763565443      0.000      0.000
REMARK  6 active torsions:
REMARK  status: ('A' for Active; 'I' for Inactive)
REMARK    1  A    between atoms: O1_2  and  C2_3 
REMARK    2  A    between atoms: C2_3  and  C3_5 
REMARK    3  A    between atoms: C3_5  and  N1_7 
REMARK    4  A    between atoms: C5_8  and  N2_9 
REMARK    5  A    between atoms: N3_12  and  N4_13 
REMARK    6  A    between atoms: C8_19  and  O4_20 
ROOT
HETATM    1  N1  UNL     1      14.345  20.738  11.844  1.00  0.00    -0.150 N 
HETATM    2  C5  UNL     1      13.639  19.675  11.440  1.00  0.00     0.704 A 
HETATM    3  N3  UNL     1      12.387  19.403  11.831  1.00  0.00    -0.053 N 
HETATM    4  C6  UNL     1      11.776  20.237  12.688  1.00  0.00     0.300 A 
HETATM    5  O3  UNL     1      10.586  20.022  13.090  1.00  0.00    -0.264 OA
HETATM    6  C7  UNL     1      12.473  21.352  13.133  1.00  0.00     0.132 A 
HETATM    7  C8  UNL     1      12.154  22.394  13.997  1.00  0.00     0.174 A 
HETATM    8  N5  UNL     1      13.231  23.192  14.048  1.00  0.00    -0.278 N 
ATOM      9  H5  UNL     1      13.284  24.043  14.608  1.00  0.00     0.189 HD
HETATM   10  N6  UNL     1      14.210  22.751  13.292  1.00  0.00    -0.282 N 
ATOM     11  H6  UNL     1      15.126  23.182  13.165  1.00  0.00     0.188 HD
HETATM   12  C9  UNL     1      13.761  21.608  12.714  1.00  0.00     0.159 A 
ENDROOT
BRANCH   1  13
HETATM   13  C3  UNL     1      15.669  20.938  11.370  1.00  0.00     0.205 C 
HETATM   14  C4  UNL     1      15.809  22.290  10.766  1.00  0.00     0.044 C 
BRANCH  13  15
HETATM   15  C2  UNL     1      16.722  20.663  12.366  1.00  0.00     0.282 C 
HETATM   16  O2  UNL     1      17.131  21.628  13.065  1.00  0.00    -0.263 OA
BRANCH  15  17
HETATM   17  O1  UNL     1      17.284  19.434  12.583  1.00  0.00    -0.325 OA
HETATM   18  C1  UNL     1      17.759  18.669  11.493  1.00  0.00     0.213 C 
ENDBRANCH  15  17
ENDBRANCH  13  15
ENDBRANCH   1  13
BRANCH   2  19
HETATM   19  N2  UNL     1      14.167  18.814  10.602  1.00  0.00    -0.232 N 
ATOM     20  H22 UNL     1      13.916  17.838  10.761  1.00  0.00     0.174 HD
ATOM     21  H21 UNL     1      14.782  19.137   9.856  1.00  0.00     0.174 HD
ENDBRANCH   2  19
BRANCH   3  22
HETATM   22  N4  UNL     1      11.683  18.265  11.373  1.00  0.00    -0.321 N 
ATOM     23  H42 UNL     1      12.207  17.509  10.932  1.00  0.00     0.178 HD
ATOM     24  H41 UNL     1      10.672  18.175  11.468  1.00  0.00     0.178 HD
ENDBRANCH   3  22
BRANCH   7  25
HETATM   25  O4  UNL     1      10.952  22.548  14.659  1.00  0.00    -0.344 OA
ATOM     26  H4  UNL     1      10.281  23.186  14.445  1.00  0.00     0.219 HD
ENDBRANCH   7  25
TORSDOF 6
ENDMDL
MODEL 2
REMARK VINA RESULT: -6.380981529      1.759      3.496
REMARK  6 active torsions:
REMARK  status: ('A' for Active; 'I' for Inactive)
REMARK    1  A    between atoms: O1_2  and  C2_3 
REMARK    2  A    between atoms: C2_3  and  C3_5 
REMARK    3  A    between atoms: C3_5  and  N1_7 
REMARK    4  A    between atoms: C5_8  and  N2_9 
REMARK    5  A    between atoms: N3_12  and  N4_13 
REMARK    6  A    between atoms: C8_19  and  O4_20 
ROOT
HETATM    1  N1  UNL     1      14.292  21.522  12.534  1.00  0.00    -0.150 N 
HETATM    2  C5  UNL     1      13.359  22.084  13.311  1.00  0.00     0.704 A 
HETATM    3  N3  UNL     1      12.115  21.613  13.465  1.00  0.00    -0.053 N 
HETATM    4  C6  UNL     1      11.752  20.501  12.803  1.00  0.00     0.300 A 
HETATM    5  O3  UNL     1      10.581  20.013  12.915  1.00  0.00    -0.264 OA
HETATM    6  C7  UNL     1      12.690  19.886  11.985  1.00  0.00     0.132 A 
HETATM    7  C8  UNL     1      12.655  18.754  11.178  1.00  0.00     0.174 A 
HETATM    8  N5  UNL     1      13.870  18.647  10.618  1.00  0.00    -0.278 N 
ATOM      9  H5  UNL     1      14.136  17.902   9.973  1.00  0.00     0.189 HD
HETATM   10  N6  UNL     1      14.677  19.611  10.995  1.00  0.00    -0.282 N 
ATOM     11  H6  UNL     1      15.646  19.745  10.707  1.00  0.00     0.188 HD
HETATM   12  C9  UNL     1      13.965  20.394  11.846  1.00  0.00     0.159 A 
ENDROOT
BRANCH   1  13
HETATM   13  C3  UNL     1      15.586  22.101  12.438  1.00  0.00     0.205 C 
HETATM   14  C4  UNL     1      16.568  21.318  13.235  1.00  0.00     0.044 C 
BRANCH  13  15
HETATM   15  C2  UNL     1      16.050  22.334  11.058  1.00  0.00     0.282 C 
HETATM   16  O2  UNL     1      15.738  23.426  10.513  1.00  0.00    -0.263 OA
BRANCH  15  17
HETATM   17  O1  UNL     1      16.795  21.448  10.329  1.00  0.00    -0.325 OA
HETATM   18  C1  UNL     1      18.136  21.752   9.997  1.00  0.00     0.213 C 
ENDBRANCH  15  17
ENDBRANCH  13  15
ENDBRANCH   1  13
BRANCH   2  19
HETATM   19  N2  UNL     1      13.637  23.173  13.990  1.00  0.00    -0.232 N 
ATOM     20  H22 UNL     1      12.830  23.675  14.361  1.00  0.00     0.174 HD
ATOM     21  H21 UNL     1      14.606  23.462  14.119  1.00  0.00     0.174 HD
ENDBRANCH   2  19
BRANCH   3  22
HETATM   22  N4  UNL     1      11.165  22.245  14.301  1.00  0.00    -0.321 N 
ATOM     23  H42 UNL     1      11.122  21.976  15.284  1.00  0.00     0.178 HD
ATOM     24  H41 UNL     1      10.524  22.957  13.954  1.00  0.00     0.178 HD
ENDBRANCH   3  22
BRANCH   7  25
HETATM   25  O4  UNL     1      11.566  17.922  11.008  1.00  0.00    -0.344 OA
ATOM     26  H4  UNL     1      11.557  17.123  10.495  1.00  0.00     0.219 HD
ENDBRANCH   7  25
TORSDOF 6
ENDMDL
MODEL 3
REMARK VINA RESULT: -6.371730142      1.455      1.882
REMARK  6 active torsions:
REMARK  status: ('A' for Active; 'I' for Inactive)
REMARK    1  A    between atoms: O1_2  and  C2_3 
REMARK    2  A    between atoms: C2_3  and  C3_5 
REMARK    3  A    between atoms: C3_5  and  N1_7 
REMARK    4  A    between atoms: C5_8  and  N2_9 
REMARK    5  A    between atoms: N3_12  and  N4_13 
REMARK    6  A    between atoms: C8_19  and  O4_20 
ROOT
HETATM    1  N1  UNL     1      14.118  20.271  11.500  1.00  0.00    -0.150 N 
HETATM    2  C5  UNL     1      12.944  19.661  11.700  1.00  0.00     0.704 A 
HETATM    3  N3  UNL     1      11.992  20.101  12.534  1.00  0.00    -0.053 N 
HETATM    4  C6  UNL     1      12.207  21.230  13.231  1.00  0.00     0.300 A 
HETATM    5  O3  UNL     1      11.334  21.689  14.037  1.00  0.00    -0.264 OA
HETATM    6  C7  UNL     1      13.413  21.894  13.054  1.00  0.00     0.132 A 
HETATM    7  C8  UNL     1      13.951  23.055  13.599  1.00  0.00     0.174 A 
HETATM    8  N5  UNL     1      15.165  23.208  13.049  1.00  0.00    -0.278 N 
ATOM      9  H5  UNL     1      15.795  23.981  13.264  1.00  0.00     0.189 HD
HETATM   10  N6  UNL     1      15.450  22.247  12.201  1.00  0.00    -0.282 N 
ATOM     11  H6  UNL     1      16.308  22.143  11.660  1.00  0.00     0.188 HD
HETATM   12  C9  UNL     1      14.375  21.418  12.189  1.00  0.00     0.159 A 
ENDROOT
BRANCH   1  13
HETATM   13  C3  UNL     1      15.062  19.723  10.592  1.00  0.00     0.205 C 
HETATM   14  C4  UNL     1      15.499  20.751   9.609  1.00  0.00     0.044 C 
BRANCH  13  15
HETATM   15  C2  UNL     1      16.206  19.048  11.234  1.00  0.00     0.282 C 
HETATM   16  O2  UNL     1      16.521  17.904  10.811  1.00  0.00    -0.263 OA
BRANCH  15  17
HETATM   17  O1  UNL     1      16.947  19.577  12.255  1.00  0.00    -0.325 OA
HETATM   18  C1  UNL     1      18.300  19.929  12.042  1.00  0.00     0.213 C 
ENDBRANCH  15  17
ENDBRANCH  13  15
ENDBRANCH   1  13
BRANCH   2  19
HETATM   19  N2  UNL     1      12.659  18.554  11.055  1.00  0.00    -0.232 N 
ATOM     20  H22 UNL     1      13.192  18.396  10.200  1.00  0.00     0.174 HD
ATOM     21  H21 UNL     1      11.949  17.919  11.418  1.00  0.00     0.174 HD
ENDBRANCH   2  19
BRANCH   3  22
HETATM   22  N4  UNL     1      10.766  19.419  12.708  1.00  0.00    -0.321 N 
ATOM     23  H42 UNL     1      10.156  19.294  11.901  1.00  0.00     0.178 HD
ATOM     24  H41 UNL     1      10.472  19.049  13.612  1.00  0.00     0.178 HD
ENDBRANCH   3  22
BRANCH   7  25
HETATM   25  O4  UNL     1      13.330  23.870  14.525  1.00  0.00    -0.344 OA
ATOM     26  H4  UNL     1      13.562  24.773  14.709  1.00  0.00     0.219 HD
ENDBRANCH   7  25
TORSDOF 6
ENDMDL
MODEL 4
REMARK VINA RESULT: -6.357265010      1.801      3.816
REMARK  6 active torsions:
REMARK  status: ('A' for Active; 'I' for Inactive)
REMARK    1  A    between atoms: O1_2  and  C2_3 
REMARK    2  A    between atoms: C2_3  and  C3_5 
REMARK    3  A    between atoms: C3_5  and  N1_7 
REMARK    4  A    between atoms: C5_8  and  N2_9 
REMARK    5  A    between atoms: N3_12  and  N4_13 
REMARK    6  A    between atoms: C8_19  and  O4_20 
ROOT
HETATM    1  N1  UNL     1      14.275  21.539  12.541  1.00  0.00    -0.150 N 
HETATM    2  C5  UNL     1      13.347  22.096  13.328  1.00  0.00     0.704 A 
HETATM    3  N3  UNL     1      12.105  21.620  13.491  1.00  0.00    -0.053 N 
HETATM    4  C6  UNL     1      11.741  20.509  12.830  1.00  0.00     0.300 A 
HETATM    5  O3  UNL     1      10.572  20.017  12.951  1.00  0.00    -0.264 OA
HETATM    6  C7  UNL     1      12.673  19.899  12.003  1.00  0.00     0.132 A 
HETATM    7  C8  UNL     1      12.635  18.768  11.194  1.00  0.00     0.174 A 
HETATM    8  N5  UNL     1      13.845  18.666  10.622  1.00  0.00    -0.278 N 
ATOM      9  H5  UNL     1      14.108  17.924   9.974  1.00  0.00     0.189 HD
HETATM   10  N6  UNL     1      14.652  19.632  10.996  1.00  0.00    -0.282 N 
ATOM     11  H6  UNL     1      15.619  19.770  10.699  1.00  0.00     0.188 HD
HETATM   12  C9  UNL     1      13.945  20.410  11.853  1.00  0.00     0.159 A 
ENDROOT
BRANCH   1  13
HETATM   13  C3  UNL     1      15.566  22.122  12.436  1.00  0.00     0.205 C 
HETATM   14  C4  UNL     1      16.615  21.143  12.829  1.00  0.00     0.044 C 
BRANCH  13  15
HETATM   15  C2  UNL     1      15.849  22.745  11.129  1.00  0.00     0.282 C 
HETATM   16  O2  UNL     1      16.223  21.991  10.191  1.00  0.00    -0.263 OA
BRANCH  15  17
HETATM   17  O1  UNL     1      15.735  24.083  10.866  1.00  0.00    -0.325 OA
HETATM   18  C1  UNL     1      16.168  24.601   9.623  1.00  0.00     0.213 C 
ENDBRANCH  15  17
ENDBRANCH  13  15
ENDBRANCH   1  13
BRANCH   2  19
HETATM   19  N2  UNL     1      13.627  23.184  14.007  1.00  0.00    -0.232 N 
ATOM     20  H22 UNL     1      14.467  23.680  13.712  1.00  0.00     0.174 HD
ATOM     21  H21 UNL     1      13.019  23.481  14.770  1.00  0.00     0.174 HD
ENDBRANCH   2  19
BRANCH   3  22
HETATM   22  N4  UNL     1      11.161  22.248  14.337  1.00  0.00    -0.321 N 
ATOM     23  H42 UNL     1      10.438  22.831  13.916  1.00  0.00     0.178 HD
ATOM     24  H41 UNL     1      11.179  22.137  15.350  1.00  0.00     0.178 HD
ENDBRANCH   3  22
BRANCH   7  25
HETATM   25  O4  UNL     1      11.547  17.933  11.031  1.00  0.00    -0.344 OA
ATOM     26  H4  UNL     1      11.380  17.385  10.273  1.00  0.00     0.219 HD
ENDBRANCH   7  25
TORSDOF 6
ENDMDL
MODEL 5
REMARK VINA RESULT: -6.331477426      1.286      3.239
REMARK  6 active torsions:
REMARK  status: ('A' for Active; 'I' for Inactive)
REMARK    1  A    between atoms: O1_2  and  C2_3 
REMARK    2  A    between atoms: C2_3  and  C3_5 
REMARK    3  A    between atoms: C3_5  and  N1_7 
REMARK    4  A    between atoms: C5_8  and  N2_9 
REMARK    5  A    between atoms: N3_12  and  N4_13 
REMARK    6  A    between atoms: C8_19  and  O4_20 
ROOT
HETATM    1  N1  UNL     1      14.633  20.154  11.255  1.00  0.00    -0.150 N 
HETATM    2  C5  UNL     1      14.964  21.292  11.876  1.00  0.00     0.704 A 
HETATM    3  N3  UNL     1      14.164  21.956  12.722  1.00  0.00    -0.053 N 
HETATM    4  C6  UNL     1      12.939  21.467  12.980  1.00  0.00     0.300 A 
HETATM    5  O3  UNL     1      12.141  22.060  13.776  1.00  0.00    -0.264 OA
HETATM    6  C7  UNL     1      12.556  20.288  12.356  1.00  0.00     0.132 A 
HETATM    7  C8  UNL     1      11.395  19.523  12.394  1.00  0.00     0.174 A 
HETATM    8  N5  UNL     1      11.599  18.478  11.577  1.00  0.00    -0.278 N 
ATOM      9  H5  UNL     1      10.911  17.744  11.407  1.00  0.00     0.189 HD
HETATM   10  N6  UNL     1      12.787  18.509  11.020  1.00  0.00    -0.282 N 
ATOM     11  H6  UNL     1      13.174  17.829  10.365  1.00  0.00     0.188 HD
HETATM   12  C9  UNL     1      13.400  19.625  11.490  1.00  0.00     0.159 A 
ENDROOT
BRANCH   1  13
HETATM   13  C3  UNL     1      15.555  19.527  10.375  1.00  0.00     0.205 C 
HETATM   14  C4  UNL     1      16.157  20.525   9.451  1.00  0.00     0.044 C 
BRANCH  13  15
HETATM   15  C2  UNL     1      16.578  18.704  11.048  1.00  0.00     0.282 C 
HETATM   16  O2  UNL     1      16.838  17.575  10.552  1.00  0.00    -0.263 OA
BRANCH  15  17
HETATM   17  O1  UNL     1      17.263  19.081  12.171  1.00  0.00    -0.325 OA
HETATM   18  C1  UNL     1      18.644  18.801  12.287  1.00  0.00     0.213 C 
ENDBRANCH  15  17
ENDBRANCH  13  15
ENDBRANCH   1  13
BRANCH   2  19
HETATM   19  N2  UNL     1      16.143  21.833  11.676  1.00  0.00    -0.232 N 
ATOM     20  H22 UNL     1      16.425  21.918  10.699  1.00  0.00     0.174 HD
ATOM     21  H21 UNL     1      16.708  22.136  12.469  1.00  0.00     0.174 HD
ENDBRANCH   2  19
BRANCH   3  22
HETATM   22  N4  UNL     1      14.562  23.156  13.354  1.00  0.00    -0.321 N 
ATOM     23  H42 UNL     1      15.558  23.333  13.487  1.00  0.00     0.178 HD
ATOM     24  H41 UNL     1      13.889  23.849  13.681  1.00  0.00     0.178 HD
ENDBRANCH   3  22
BRANCH   7  25
HETATM   25  O4  UNL     1      10.268  19.810  13.138  1.00  0.00    -0.344 OA
ATOM     26  H4  UNL     1       9.957  19.310  13.884  1.00  0.00     0.219 HD
ENDBRANCH   7  25
TORSDOF 6
ENDMDL
