MODEL 1
REMARK VINA RESULT: -7.254118848      0.000      0.000
REMARK  5 active torsions:
REMARK  status: ('A' for Active; 'I' for Inactive)
REMARK    1  A    between atoms: O1_2  and  C2_3 
REMARK    2  A    between atoms: C2_3  and  O2_4 
REMARK    3  A    between atoms: C2_3  and  C3_6 
REMARK    4  A    between atoms: C7_14  and  N2_15 
REMARK    5  A    between atoms: N2_15  and  O5_17 
ROOT
HETATM    1  C3  UNL     1      11.958  22.061  13.848  1.00  0.00     0.142 A 
HETATM    2  N1  UNL     1      11.286  20.969  13.461  1.00  0.00    -0.308 N 
ATOM      3  H1  UNL     1      10.349  20.806  13.830  1.00  0.00     0.170 HD
HETATM    4  C4  UNL     1      11.818  20.072  12.591  1.00  0.00     0.265 A 
HETATM    5  O3  UNL     1      11.181  19.040  12.226  1.00  0.00    -0.267 OA
HETATM    6  C5  UNL     1      13.083  20.291  12.091  1.00  0.00     0.131 A 
HETATM    7  C6  UNL     1      13.687  19.426  11.204  1.00  0.00     0.238 A 
HETATM    8  O4  UNL     1      13.096  18.388  10.813  1.00  0.00    -0.283 OA
HETATM    9  C7  UNL     1      14.964  19.667  10.713  1.00  0.00     0.194 A 
HETATM   10  N3  UNL     1      15.547  20.786  11.163  1.00  0.00    -0.279 N 
ATOM     11  H3  UNL     1      16.486  20.999  10.828  1.00  0.00     0.189 HD
HETATM   12  N4  UNL     1      14.989  21.631  12.012  1.00  0.00    -0.283 N 
ATOM     13  H4  UNL     1      15.507  22.461  12.301  1.00  0.00     0.188 HD
HETATM   14  C9  UNL     1      13.755  21.424  12.505  1.00  0.00     0.141 A 
HETATM   15  N5  UNL     1      13.193  22.301  13.377  1.00  0.00    -0.326 N 
ATOM     16  H5  UNL     1      13.705  23.133  13.672  1.00  0.00     0.169 HD
ENDROOT
BRANCH   1  17
HETATM   17  C2  UNL     1      11.300  22.987  14.803  1.00  0.00     0.325 C 
BRANCH  17  18
HETATM   18  O1  UNL     1       9.996  23.290  14.414  1.00  0.00    -0.359 OA
HETATM   19  C1  UNL     1       9.597  24.540  14.840  1.00  0.00     0.205 C 
ENDBRANCH  17  18
BRANCH  17  20
HETATM   20  O2  UNL     1      12.007  24.205  14.763  1.00  0.00    -0.365 OA
ATOM     21  H2  UNL     1      12.447  24.278  15.601  1.00  0.00     0.213 HD
ENDBRANCH  17  20
ENDBRANCH   1  17
BRANCH   9  22
HETATM   22  N2  UNL     1      15.597  18.786   9.801  1.00  0.00    -0.244 N 
HETATM   23  C8  UNL     1      16.800  18.089  10.201  1.00  0.00     0.187 C 
BRANCH  22  24
HETATM   24  O5  UNL     1      15.126  18.562   8.561  1.00  0.00    -0.286 OA
ATOM     25  H5  UNL     1      15.318  17.769   8.074  1.00  0.00     0.244 HD
ENDBRANCH  22  24
ENDBRANCH   9  22
TORSDOF 5
ENDMDL
MODEL 2
REMARK VINA RESULT: -6.870852866      4.805      6.359
REMARK  5 active torsions:
REMARK  status: ('A' for Active; 'I' for Inactive)
REMARK    1  A    between atoms: O1_2  and  C2_3 
REMARK    2  A    between atoms: C2_3  and  O2_4 
REMARK    3  A    between atoms: C2_3  and  C3_6 
REMARK    4  A    between atoms: C7_14  and  N2_15 
REMARK    5  A    between atoms: N2_15  and  O5_17 
ROOT
HETATM    1  C3  UNL     1      19.012  20.529  14.387  1.00  0.00     0.142 A 
HETATM    2  N1  UNL     1      19.296  19.295  13.947  1.00  0.00    -0.308 N 
ATOM      3  H1  UNL     1      20.044  18.768  14.399  1.00  0.00     0.170 HD
HETATM    4  C4  UNL     1      18.616  18.727  12.919  1.00  0.00     0.265 A 
HETATM    5  O3  UNL     1      18.887  17.561  12.505  1.00  0.00    -0.267 OA
HETATM    6  C5  UNL     1      17.605  19.437  12.309  1.00  0.00     0.131 A 
HETATM    7  C6  UNL     1      16.872  18.926  11.260  1.00  0.00     0.238 A 
HETATM    8  O4  UNL     1      17.102  17.773  10.814  1.00  0.00    -0.283 OA
HETATM    9  C7  UNL     1      15.857  19.660  10.660  1.00  0.00     0.194 A 
HETATM   10  N3  UNL     1      15.654  20.881  11.174  1.00  0.00    -0.279 N 
ATOM     11  H3  UNL     1      14.919  21.454  10.761  1.00  0.00     0.189 HD
HETATM   12  N4  UNL     1      16.343  21.392  12.179  1.00  0.00    -0.283 N 
ATOM     13  H4  UNL     1      16.120  22.332  12.508  1.00  0.00     0.188 HD
HETATM   14  C9  UNL     1      17.331  20.706  12.779  1.00  0.00     0.141 A 
HETATM   15  N5  UNL     1      18.031  21.245  13.811  1.00  0.00    -0.326 N 
ATOM     16  H5  UNL     1      17.815  22.184  14.145  1.00  0.00     0.169 HD
ENDROOT
BRANCH   1  17
HETATM   17  C2  UNL     1      19.807  21.071  15.516  1.00  0.00     0.325 C 
BRANCH  17  18
HETATM   18  O1  UNL     1      21.147  21.237  15.173  1.00  0.00    -0.359 OA
HETATM   19  C1  UNL     1      21.699  22.368  15.737  1.00  0.00     0.205 C 
ENDBRANCH  17  18
BRANCH  17  20
HETATM   20  O2  UNL     1      19.788  20.109  16.545  1.00  0.00    -0.365 OA
ATOM     21  H2  UNL     1      18.873  19.979  16.763  1.00  0.00     0.213 HD
ENDBRANCH  17  20
ENDBRANCH   1  17
BRANCH   9  22
HETATM   22  N2  UNL     1      15.094  19.147   9.581  1.00  0.00    -0.244 N 
HETATM   23  C8  UNL     1      13.654  19.083   9.692  1.00  0.00     0.187 C 
BRANCH  22  24
HETATM   24  O5  UNL     1      15.655  18.709   8.439  1.00  0.00    -0.286 OA
ATOM     25  H5  UNL     1      16.308  18.020   8.418  1.00  0.00     0.244 HD
ENDBRANCH  22  24
ENDBRANCH   9  22
TORSDOF 5
ENDMDL
MODEL 3
REMARK VINA RESULT: -6.728621733      5.441      6.463
REMARK  5 active torsions:
REMARK  status: ('A' for Active; 'I' for Inactive)
REMARK    1  A    between atoms: O1_2  and  C2_3 
REMARK    2  A    between atoms: C2_3  and  O2_4 
REMARK    3  A    between atoms: C2_3  and  C3_6 
REMARK    4  A    between atoms: C7_14  and  N2_15 
REMARK    5  A    between atoms: N2_15  and  O5_17 
ROOT
HETATM    1  C3  UNL     1      18.863  20.145  15.860  1.00  0.00     0.142 A 
HETATM    2  N1  UNL     1      19.735  19.265  15.350  1.00  0.00    -0.308 N 
ATOM      3  H1  UNL     1      20.458  18.875  15.955  1.00  0.00     0.170 HD
HETATM    4  C4  UNL     1      19.682  18.876  14.050  1.00  0.00     0.265 A 
HETATM    5  O3  UNL     1      20.507  18.043  13.570  1.00  0.00    -0.267 OA
HETATM    6  C5  UNL     1      18.705  19.400  13.232  1.00  0.00     0.131 A 
HETATM    7  C6  UNL     1      18.589  19.053  11.903  1.00  0.00     0.238 A 
HETATM    8  O4  UNL     1      19.384  18.230  11.381  1.00  0.00    -0.283 OA
HETATM    9  C7  UNL     1      17.596  19.594  11.097  1.00  0.00     0.194 A 
HETATM   10  N3  UNL     1      16.779  20.464  11.705  1.00  0.00    -0.279 N 
ATOM     11  H3  UNL     1      16.036  20.886  11.148  1.00  0.00     0.189 HD
HETATM   12  N4  UNL     1      16.869  20.813  12.976  1.00  0.00    -0.283 N 
ATOM     13  H4  UNL     1      16.201  21.483  13.357  1.00  0.00     0.188 HD
HETATM   14  C9  UNL     1      17.819  20.306  13.781  1.00  0.00     0.141 A 
HETATM   15  N5  UNL     1      17.900  20.673  15.086  1.00  0.00    -0.326 N 
ATOM     16  H5  UNL     1      17.237  21.343  15.474  1.00  0.00     0.169 HD
ENDROOT
BRANCH   1  17
HETATM   17  C2  UNL     1      18.996  20.514  17.292  1.00  0.00     0.325 C 
BRANCH  17  18
HETATM   18  O1  UNL     1      17.984  21.384  17.697  1.00  0.00    -0.359 OA
HETATM   19  C1  UNL     1      18.475  22.481  18.374  1.00  0.00     0.205 C 
ENDBRANCH  17  18
BRANCH  17  20
HETATM   20  O2  UNL     1      20.200  21.230  17.432  1.00  0.00    -0.365 OA
ATOM     21  H2  UNL     1      20.863  20.585  17.647  1.00  0.00     0.213 HD
ENDBRANCH  17  20
ENDBRANCH   1  17
BRANCH   9  22
HETATM   22  N2  UNL     1      17.465  19.246   9.729  1.00  0.00    -0.244 N 
HETATM   23  C8  UNL     1      16.219  18.691   9.251  1.00  0.00     0.187 C 
BRANCH  22  24
HETATM   24  O5  UNL     1      18.460  19.409   8.839  1.00  0.00    -0.286 OA
ATOM     25  H5  UNL     1      18.669  20.251   8.451  1.00  0.00     0.244 HD
ENDBRANCH  22  24
ENDBRANCH   9  22
TORSDOF 5
ENDMDL
MODEL 4
REMARK VINA RESULT: -6.613459766      5.567      6.550
REMARK  5 active torsions:
REMARK  status: ('A' for Active; 'I' for Inactive)
REMARK    1  A    between atoms: O1_2  and  C2_3 
REMARK    2  A    between atoms: C2_3  and  O2_4 
REMARK    3  A    between atoms: C2_3  and  C3_6 
REMARK    4  A    between atoms: C7_14  and  N2_15 
REMARK    5  A    between atoms: N2_15  and  O5_17 
ROOT
HETATM    1  C3  UNL     1      18.848  20.399  16.573  1.00  0.00     0.142 A 
HETATM    2  N1  UNL     1      19.365  19.185  16.340  1.00  0.00    -0.308 N 
ATOM      3  H1  UNL     1      19.882  18.716  17.084  1.00  0.00     0.170 HD
HETATM    4  C4  UNL     1      19.220  18.562  15.142  1.00  0.00     0.265 A 
HETATM    5  O3  UNL     1      19.710  17.415  14.925  1.00  0.00    -0.267 OA
HETATM    6  C5  UNL     1      18.521  19.195  14.137  1.00  0.00     0.131 A 
HETATM    7  C6  UNL     1      18.333  18.625  12.897  1.00  0.00     0.238 A 
HETATM    8  O4  UNL     1      18.800  17.488  12.632  1.00  0.00    -0.283 OA
HETATM    9  C7  UNL     1      17.625  19.281  11.898  1.00  0.00     0.194 A 
HETATM   10  N3  UNL     1      17.150  20.488  12.233  1.00  0.00    -0.279 N 
ATOM     11  H3  UNL     1      16.625  21.005  11.528  1.00  0.00     0.189 HD
HETATM   12  N4  UNL     1      17.317  21.055  13.416  1.00  0.00    -0.283 N 
ATOM     13  H4  UNL     1      16.919  21.979  13.585  1.00  0.00     0.188 HD
HETATM   14  C9  UNL     1      17.998  20.445  14.401  1.00  0.00     0.141 A 
HETATM   15  N5  UNL     1      18.161  21.040  15.611  1.00  0.00    -0.326 N 
ATOM     16  H5  UNL     1      17.767  21.964  15.788  1.00  0.00     0.169 HD
ENDROOT
BRANCH   1  17
HETATM   17  C2  UNL     1      19.055  21.005  17.911  1.00  0.00     0.325 C 
BRANCH  17  18
HETATM   18  O1  UNL     1      18.259  22.134  18.096  1.00  0.00    -0.359 OA
HETATM   19  C1  UNL     1      18.661  22.890  19.178  1.00  0.00     0.205 C 
ENDBRANCH  17  18
BRANCH  17  20
HETATM   20  O2  UNL     1      20.387  21.460  17.966  1.00  0.00    -0.365 OA
ATOM     21  H2  UNL     1      20.337  22.402  18.074  1.00  0.00     0.213 HD
ENDBRANCH  17  20
ENDBRANCH   1  17
BRANCH   9  22
HETATM   22  N2  UNL     1      17.423  18.706  10.618  1.00  0.00    -0.244 N 
HETATM   23  C8  UNL     1      17.794  19.452   9.436  1.00  0.00     0.187 C 
BRANCH  22  24
HETATM   24  O5  UNL     1      16.896  17.481  10.446  1.00  0.00    -0.286 OA
ATOM     25  H5  UNL     1      16.164  17.161  10.960  1.00  0.00     0.244 HD
ENDBRANCH  22  24
ENDBRANCH   9  22
TORSDOF 5
ENDMDL
MODEL 5
REMARK VINA RESULT: -6.587069852      1.463      6.093
REMARK  5 active torsions:
REMARK  status: ('A' for Active; 'I' for Inactive)
REMARK    1  A    between atoms: O1_2  and  C2_3 
REMARK    2  A    between atoms: C2_3  and  O2_4 
REMARK    3  A    between atoms: C2_3  and  C3_6 
REMARK    4  A    between atoms: C7_14  and  N2_15 
REMARK    5  A    between atoms: N2_15  and  O5_17 
ROOT
HETATM    1  C3  UNL     1      14.777  19.173  10.747  1.00  0.00     0.142 A 
HETATM    2  N1  UNL     1      13.527  18.739  10.955  1.00  0.00    -0.308 N 
ATOM      3  H1  UNL     1      13.226  17.867  10.521  1.00  0.00     0.170 HD
HETATM    4  C4  UNL     1      12.648  19.428  11.727  1.00  0.00     0.265 A 
HETATM    5  O3  UNL     1      11.466  19.016  11.922  1.00  0.00    -0.267 OA
HETATM    6  C5  UNL     1      13.053  20.607  12.316  1.00  0.00     0.131 A 
HETATM    7  C6  UNL     1      12.217  21.360  13.112  1.00  0.00     0.238 A 
HETATM    8  O4  UNL     1      11.036  20.993  13.335  1.00  0.00    -0.283 OA
HETATM    9  C7  UNL     1      12.646  22.545  13.695  1.00  0.00     0.194 A 
HETATM   10  N3  UNL     1      13.913  22.889  13.424  1.00  0.00    -0.279 N 
ATOM     11  H3  UNL     1      14.268  23.754  13.832  1.00  0.00     0.189 HD
HETATM   12  N4  UNL     1      14.733  22.184  12.664  1.00  0.00    -0.283 N 
ATOM     13  H4  UNL     1      15.684  22.521  12.513  1.00  0.00     0.188 HD
HETATM   14  C9  UNL     1      14.346  21.034  12.087  1.00  0.00     0.141 A 
HETATM   15  N5  UNL     1      15.200  20.319  11.308  1.00  0.00    -0.326 N 
ATOM     16  H5  UNL     1      16.151  20.650  11.151  1.00  0.00     0.169 HD
ENDROOT
BRANCH   1  17
HETATM   17  C2  UNL     1      15.670  18.357   9.888  1.00  0.00     0.325 C 
BRANCH  17  18
HETATM   18  O1  UNL     1      16.828  17.974  10.563  1.00  0.00    -0.359 OA
HETATM   19  C1  UNL     1      17.966  18.518  10.004  1.00  0.00     0.205 C 
ENDBRANCH  17  18
BRANCH  17  20
HETATM   20  O2  UNL     1      16.096  19.175   8.825  1.00  0.00    -0.365 OA
ATOM     21  H2  UNL     1      15.308  19.422   8.354  1.00  0.00     0.213 HD
ENDBRANCH  17  20
ENDBRANCH   1  17
BRANCH   9  22
HETATM   22  N2  UNL     1      11.798  23.330  14.517  1.00  0.00    -0.244 N 
HETATM   23  C8  UNL     1      12.165  24.694  14.823  1.00  0.00     0.187 C 
BRANCH  22  24
HETATM   24  O5  UNL     1      10.649  22.859  15.034  1.00  0.00    -0.286 OA
ATOM     25  H5  UNL     1      10.104  23.369  15.622  1.00  0.00     0.244 HD
ENDBRANCH  22  24
ENDBRANCH   9  22
TORSDOF 5
ENDMDL
