MODEL 1
REMARK VINA RESULT: -8.221346821      0.000      0.000
REMARK  5 active torsions:
REMARK  status: ('A' for Active; 'I' for Inactive)
REMARK    1  A    between atoms: O1_2  and  C2_3 
REMARK    2  A    between atoms: C2_3  and  C3_5 
REMARK    3  A    between atoms: N3_9  and  C4_10 
REMARK    4  A    between atoms: C5_13  and  N5_14 
REMARK    5  A    between atoms: C6_19  and  N7_20 
ROOT
HETATM    1  C4  UNL     1      13.652  20.556  11.923  1.00  0.00     0.183 A 
HETATM    2  N4  UNL     1      13.881  21.668  12.645  1.00  0.00    -0.172 N 
ATOM      3  H4  UNL     1      14.777  22.140  12.521  1.00  0.00     0.186 HD
HETATM    4  C5  UNL     1      13.007  22.196  13.519  1.00  0.00     0.679 A 
HETATM    5  N6  UNL     1      11.838  21.593  13.692  1.00  0.00    -0.176 N 
ATOM      6  H6  UNL     1      11.159  21.974  14.351  1.00  0.00     0.186 HD
HETATM    7  C6  UNL     1      11.550  20.473  12.995  1.00  0.00     0.139 A 
HETATM    8  C7  UNL     1      12.433  19.920  12.095  1.00  0.00     0.136 A 
HETATM    9  C8  UNL     1      12.172  18.733  11.333  1.00  0.00     0.107 C 
HETATM   10  N8  UNL     1      11.943  17.768  10.725  1.00  0.00    -0.191 NA
ENDROOT
BRANCH   1  11
HETATM   11  N3  UNL     1      14.631  20.062  11.015  1.00  0.00    -0.159 N 
HETATM   12  N2  UNL     1      14.475  20.077   9.704  1.00  0.00     0.004 NA
HETATM   13  N1  UNL     1      15.533  19.558   9.105  1.00  0.00    -0.261 N 
HETATM   14  C3  UNL     1      16.397  19.198  10.055  1.00  0.00     0.211 A 
ATOM     15  H1  UNL     1      15.664  19.452   8.099  1.00  0.00     0.186 HD
HETATM   16  N9  UNL     1      15.811  19.522  11.232  1.00  0.00    -0.258 N 
ATOM     17  H9  UNL     1      16.224  19.371  12.152  1.00  0.00     0.190 HD
BRANCH  14  18
HETATM   18  C2  UNL     1      17.685  18.590   9.829  1.00  0.00     0.329 C 
HETATM   19  O2  UNL     1      18.217  18.570   8.685  1.00  0.00    -0.256 OA
BRANCH  18  20
HETATM   20  O1  UNL     1      18.391  18.001  10.862  1.00  0.00    -0.320 OA
HETATM   21  C1  UNL     1      19.162  18.766  11.769  1.00  0.00     0.213 C 
ENDBRANCH  18  20
ENDBRANCH  14  18
ENDBRANCH   1  11
BRANCH   7  22
HETATM   22  N7  UNL     1      10.416  19.887  13.162  1.00  0.00    -0.384 N 
ATOM     23  H72 UNL     1       9.570  20.446  13.051  1.00  0.00     0.157 HD
ATOM     24  H71 UNL     1      10.385  18.895  13.397  1.00  0.00     0.157 HD
ENDBRANCH   7  22
BRANCH   4  25
HETATM   25  N5  UNL     1      13.287  23.279  14.194  1.00  0.00    -0.234 N 
ATOM     26  H52 UNL     1      13.910  23.228  15.000  1.00  0.00     0.174 HD
ATOM     27  H51 UNL     1      12.895  24.184  13.934  1.00  0.00     0.174 HD
ENDBRANCH   4  25
TORSDOF 5
ENDMDL
MODEL 2
REMARK VINA RESULT: -7.445786509      1.021      2.664
REMARK  5 active torsions:
REMARK  status: ('A' for Active; 'I' for Inactive)
REMARK    1  A    between atoms: O1_2  and  C2_3 
REMARK    2  A    between atoms: C2_3  and  C3_5 
REMARK    3  A    between atoms: N3_9  and  C4_10 
REMARK    4  A    between atoms: C5_13  and  N5_14 
REMARK    5  A    between atoms: C6_19  and  N7_20 
ROOT
HETATM    1  C4  UNL     1      13.693  20.568  11.927  1.00  0.00     0.183 A 
HETATM    2  N4  UNL     1      12.527  19.921  12.101  1.00  0.00    -0.172 N 
ATOM      3  H4  UNL     1      12.370  19.067  11.565  1.00  0.00     0.186 HD
HETATM    4  C5  UNL     1      11.554  20.326  12.935  1.00  0.00     0.679 A 
HETATM    5  N6  UNL     1      11.741  21.435  13.639  1.00  0.00    -0.176 N 
ATOM      6  H6  UNL     1      11.017  21.763  14.278  1.00  0.00     0.186 HD
HETATM    7  C6  UNL     1      12.893  22.128  13.508  1.00  0.00     0.139 A 
HETATM    8  C7  UNL     1      13.899  21.727  12.659  1.00  0.00     0.136 A 
HETATM    9  C8  UNL     1      15.137  22.429  12.486  1.00  0.00     0.107 C 
HETATM   10  N8  UNL     1      16.135  23.013  12.356  1.00  0.00    -0.191 NA
ENDROOT
BRANCH   1  11
HETATM   11  N3  UNL     1      14.674  20.071  11.023  1.00  0.00    -0.159 N 
HETATM   12  N2  UNL     1      14.526  20.094   9.711  1.00  0.00     0.004 NA
HETATM   13  N1  UNL     1      15.583  19.571   9.116  1.00  0.00    -0.261 N 
HETATM   14  C3  UNL     1      16.439  19.200  10.068  1.00  0.00     0.211 A 
ATOM     15  H1  UNL     1      15.720  19.469   8.109  1.00  0.00     0.186 HD
HETATM   16  N9  UNL     1      15.849  19.522  11.243  1.00  0.00    -0.258 N 
ATOM     17  H9  UNL     1      16.256  19.362  12.165  1.00  0.00     0.190 HD
BRANCH  14  18
HETATM   18  C2  UNL     1      17.725  18.583   9.845  1.00  0.00     0.329 C 
HETATM   19  O2  UNL     1      18.243  18.529   8.697  1.00  0.00    -0.256 OA
BRANCH  18  20
HETATM   20  O1  UNL     1      18.442  18.024  10.888  1.00  0.00    -0.320 OA
HETATM   21  C1  UNL     1      19.210  18.817  11.773  1.00  0.00     0.213 C 
ENDBRANCH  18  20
ENDBRANCH  14  18
ENDBRANCH   1  11
BRANCH   7  22
HETATM   22  N7  UNL     1      13.076  23.204  14.191  1.00  0.00    -0.384 N 
ATOM     23  H72 UNL     1      13.121  23.122  15.206  1.00  0.00     0.157 HD
ATOM     24  H71 UNL     1      13.170  24.100  13.712  1.00  0.00     0.157 HD
ENDBRANCH   7  22
BRANCH   4  25
HETATM   25  N5  UNL     1      10.440  19.656  13.062  1.00  0.00    -0.234 N 
ATOM     26  H52 UNL     1      10.468  18.668  13.313  1.00  0.00     0.174 HD
ATOM     27  H51 UNL     1       9.533  20.098  12.916  1.00  0.00     0.174 HD
ENDBRANCH   4  25
TORSDOF 5
ENDMDL
MODEL 3
REMARK VINA RESULT: -7.039636904      3.280      5.398
REMARK  5 active torsions:
REMARK  status: ('A' for Active; 'I' for Inactive)
REMARK    1  A    between atoms: O1_2  and  C2_3 
REMARK    2  A    between atoms: C2_3  and  C3_5 
REMARK    3  A    between atoms: N3_9  and  C4_10 
REMARK    4  A    between atoms: C5_13  and  N5_14 
REMARK    5  A    between atoms: C6_19  and  N7_20 
ROOT
HETATM    1  C4  UNL     1      16.124  21.005  10.929  1.00  0.00     0.183 A 
HETATM    2  N4  UNL     1      16.029  22.342  11.044  1.00  0.00    -0.172 N 
ATOM      3  H4  UNL     1      15.116  22.770  10.891  1.00  0.00     0.186 HD
HETATM    4  C5  UNL     1      17.060  23.150  11.347  1.00  0.00     0.679 A 
HETATM    5  N6  UNL     1      18.254  22.609  11.548  1.00  0.00    -0.176 N 
ATOM      6  H6  UNL     1      19.052  23.202  11.779  1.00  0.00     0.186 HD
HETATM    7  C6  UNL     1      18.412  21.272  11.447  1.00  0.00     0.139 A 
HETATM    8  C7  UNL     1      17.367  20.430  11.138  1.00  0.00     0.136 A 
HETATM    9  C8  UNL     1      17.486  19.006  11.020  1.00  0.00     0.107 C 
HETATM   10  N8  UNL     1      17.601  17.852  10.925  1.00  0.00    -0.191 NA
ENDROOT
BRANCH   1  11
HETATM   11  N3  UNL     1      14.982  20.219  10.605  1.00  0.00    -0.159 N 
HETATM   12  N2  UNL     1      14.709  19.812   9.379  1.00  0.00     0.004 NA
HETATM   13  N1  UNL     1      13.594  19.103   9.363  1.00  0.00    -0.261 N 
HETATM   14  C3  UNL     1      13.133  19.049  10.613  1.00  0.00     0.211 A 
ATOM     15  H1  UNL     1      13.163  18.675   8.543  1.00  0.00     0.186 HD
HETATM   16  N9  UNL     1      14.015  19.751  11.364  1.00  0.00    -0.258 N 
ATOM     17  H9  UNL     1      13.941  19.895  12.371  1.00  0.00     0.190 HD
BRANCH  14  18
HETATM   18  C2  UNL     1      11.933  18.368  11.035  1.00  0.00     0.329 C 
HETATM   19  O2  UNL     1      11.282  17.627  10.251  1.00  0.00    -0.256 OA
BRANCH  18  20
HETATM   20  O1  UNL     1      11.448  18.503  12.324  1.00  0.00    -0.320 OA
HETATM   21  C1  UNL     1      10.953  19.737  12.807  1.00  0.00     0.213 C 
ENDBRANCH  18  20
ENDBRANCH  14  18
ENDBRANCH   1  11
BRANCH   7  22
HETATM   22  N7  UNL     1      19.570  20.745  11.643  1.00  0.00    -0.384 N 
ATOM     23  H72 UNL     1      19.619  19.897  12.207  1.00  0.00     0.157 HD
ATOM     24  H71 UNL     1      20.400  21.178  11.238  1.00  0.00     0.157 HD
ENDBRANCH   7  22
BRANCH   4  25
HETATM   25  N5  UNL     1      16.907  24.444  11.444  1.00  0.00    -0.234 N 
ATOM     26  H52 UNL     1      16.283  24.830  12.153  1.00  0.00     0.174 HD
ATOM     27  H51 UNL     1      17.400  25.086  10.825  1.00  0.00     0.174 HD
ENDBRANCH   4  25
TORSDOF 5
ENDMDL
MODEL 4
REMARK VINA RESULT: -6.847693765      1.090      1.457
REMARK  5 active torsions:
REMARK  status: ('A' for Active; 'I' for Inactive)
REMARK    1  A    between atoms: O1_2  and  C2_3 
REMARK    2  A    between atoms: C2_3  and  C3_5 
REMARK    3  A    between atoms: N3_9  and  C4_10 
REMARK    4  A    between atoms: C5_13  and  N5_14 
REMARK    5  A    between atoms: C6_19  and  N7_20 
ROOT
HETATM    1  C4  UNL     1      13.796  21.188  12.415  1.00  0.00     0.183 A 
HETATM    2  N4  UNL     1      13.753  22.258  13.229  1.00  0.00    -0.172 N 
ATOM      3  H4  UNL     1      14.580  22.853  13.278  1.00  0.00     0.186 HD
HETATM    4  C5  UNL     1      12.692  22.594  13.982  1.00  0.00     0.679 A 
HETATM    5  N6  UNL     1      11.609  21.830  13.932  1.00  0.00    -0.176 N 
ATOM      6  H6  UNL     1      10.791  22.063  14.495  1.00  0.00     0.186 HD
HETATM    7  C6  UNL     1      11.591  20.741  13.132  1.00  0.00     0.139 A 
HETATM    8  C7  UNL     1      12.668  20.383  12.354  1.00  0.00     0.136 A 
HETATM    9  C8  UNL     1      12.697  19.238  11.492  1.00  0.00     0.107 C 
HETATM   10  N8  UNL     1      12.703  18.303  10.799  1.00  0.00    -0.191 NA
ENDROOT
BRANCH   1  11
HETATM   11  N3  UNL     1      14.961  20.901  11.648  1.00  0.00    -0.159 N 
HETATM   12  N2  UNL     1      15.279  21.556  10.546  1.00  0.00     0.004 NA
HETATM   13  N1  UNL     1      16.405  21.087  10.038  1.00  0.00    -0.261 N 
HETATM   14  C3  UNL     1      16.826  20.103  10.832  1.00  0.00     0.211 A 
ATOM     15  H1  UNL     1      16.868  21.418   9.191  1.00  0.00     0.186 HD
HETATM   16  N9  UNL     1      15.910  20.008  11.825  1.00  0.00    -0.258 N 
ATOM     17  H9  UNL     1      15.950  19.343  12.596  1.00  0.00     0.190 HD
BRANCH  14  18
HETATM   18  C2  UNL     1      18.024  19.322  10.636  1.00  0.00     0.329 C 
HETATM   19  O2  UNL     1      18.978  19.353  11.460  1.00  0.00    -0.256 OA
BRANCH  18  20
HETATM   20  O1  UNL     1      18.173  18.504   9.530  1.00  0.00    -0.320 OA
HETATM   21  C1  UNL     1      17.144  17.629   9.107  1.00  0.00     0.213 C 
ENDBRANCH  18  20
ENDBRANCH  14  18
ENDBRANCH   1  11
BRANCH   7  22
HETATM   22  N7  UNL     1      10.541  19.999  13.082  1.00  0.00    -0.384 N 
ATOM     23  H72 UNL     1       9.671  20.378  13.456  1.00  0.00     0.157 HD
ATOM     24  H71 UNL     1      10.597  19.064  12.678  1.00  0.00     0.157 HD
ENDBRANCH   7  22
BRANCH   4  25
HETATM   25  N5  UNL     1      12.709  23.646  14.756  1.00  0.00    -0.234 N 
ATOM     26  H52 UNL     1      12.573  24.574  14.354  1.00  0.00     0.174 HD
ATOM     27  H51 UNL     1      12.856  23.566  15.761  1.00  0.00     0.174 HD
ENDBRANCH   4  25
TORSDOF 5
ENDMDL
MODEL 5
REMARK VINA RESULT: -6.836297761      3.237      5.953
REMARK  5 active torsions:
REMARK  status: ('A' for Active; 'I' for Inactive)
REMARK    1  A    between atoms: O1_2  and  C2_3 
REMARK    2  A    between atoms: C2_3  and  C3_5 
REMARK    3  A    between atoms: N3_9  and  C4_10 
REMARK    4  A    between atoms: C5_13  and  N5_14 
REMARK    5  A    between atoms: C6_19  and  N7_20 
ROOT
HETATM    1  C4  UNL     1      16.944  19.868  10.910  1.00  0.00     0.183 A 
HETATM    2  N4  UNL     1      17.778  18.973  11.470  1.00  0.00    -0.172 N 
ATOM      3  H4  UNL     1      17.423  18.034  11.644  1.00  0.00     0.186 HD
HETATM    4  C5  UNL     1      19.051  19.238  11.815  1.00  0.00     0.679 A 
HETATM    5  N6  UNL     1      19.529  20.455  11.595  1.00  0.00    -0.176 N 
ATOM      6  H6  UNL     1      20.491  20.681  11.849  1.00  0.00     0.186 HD
HETATM    7  C6  UNL     1      18.739  21.397  11.035  1.00  0.00     0.139 A 
HETATM    8  C7  UNL     1      17.435  21.143  10.675  1.00  0.00     0.136 A 
HETATM    9  C8  UNL     1      16.559  22.109  10.079  1.00  0.00     0.107 C 
HETATM   10  N8  UNL     1      15.861  22.906   9.598  1.00  0.00    -0.191 NA
ENDROOT
BRANCH   1  11
HETATM   11  N3  UNL     1      15.609  19.507  10.573  1.00  0.00    -0.159 N 
HETATM   12  N2  UNL     1      15.175  19.423   9.328  1.00  0.00     0.004 NA
HETATM   13  N1  UNL     1      13.902  19.071   9.304  1.00  0.00    -0.261 N 
HETATM   14  C3  UNL     1      13.501  18.924  10.567  1.00  0.00     0.211 A 
ATOM     15  H1  UNL     1      13.329  18.937   8.470  1.00  0.00     0.186 HD
HETATM   16  N9  UNL     1      14.581  19.201  11.334  1.00  0.00    -0.258 N 
ATOM     17  H9  UNL     1      14.596  19.175  12.353  1.00  0.00     0.190 HD
BRANCH  14  18
HETATM   18  C2  UNL     1      12.173  18.543  10.985  1.00  0.00     0.329 C 
HETATM   19  O2  UNL     1      11.391  17.917  10.219  1.00  0.00    -0.256 OA
BRANCH  18  20
HETATM   20  O1  UNL     1      11.704  18.853  12.249  1.00  0.00    -0.320 OA
HETATM   21  C1  UNL     1      11.651  20.187  12.718  1.00  0.00     0.213 C 
ENDBRANCH  18  20
ENDBRANCH  14  18
ENDBRANCH   1  11
BRANCH   7  22
HETATM   22  N7  UNL     1      19.202  22.579  10.821  1.00  0.00    -0.384 N 
ATOM     23  H72 UNL     1      19.882  22.951  11.484  1.00  0.00     0.157 HD
ATOM     24  H71 UNL     1      18.885  23.111  10.010  1.00  0.00     0.157 HD
ENDBRANCH   7  22
BRANCH   4  25
HETATM   25  N5  UNL     1      19.814  18.328  12.357  1.00  0.00    -0.234 N 
ATOM     26  H52 UNL     1      19.617  17.339  12.198  1.00  0.00     0.174 HD
ATOM     27  H51 UNL     1      20.611  18.580  12.940  1.00  0.00     0.174 HD
ENDBRANCH   4  25
TORSDOF 5
ENDMDL
