MODEL 1
REMARK VINA RESULT: -9.127934671      0.000      0.000
REMARK  8 active torsions:
REMARK  status: ('A' for Active; 'I' for Inactive)
REMARK    1  A    between atoms: O1_1  and  C1_3 
REMARK    2  A    between atoms: C1_3  and  C2_4 
REMARK    3  A    between atoms: C2_4  and  C3_5 
REMARK    4  A    between atoms: C5_9  and  N2_10 
REMARK    5  A    between atoms: C11_18  and  C12_19 
REMARK    6  A    between atoms: C12_19  and  C13_20 
REMARK    7  A    between atoms: C13_20  and  C14_21 
REMARK    8  A    between atoms: C14_21  and  O2_22 
ROOT
HETATM    1  C3  UNL     1     -73.020  33.970 129.016  1.00  0.00    -0.027 A 
HETATM    2  C4  UNL     1     -74.080  33.396 128.335  1.00  0.00     0.097 A 
HETATM    3  N1  UNL     1     -75.155  34.104 127.970  1.00  0.00    -0.351 N 
ATOM      4  H1  UNL     1     -75.905  33.626 127.471  1.00  0.00     0.166 HD
HETATM    5  C5  UNL     1     -75.298  35.443 128.235  1.00  0.00     0.122 A 
HETATM    6  C11 UNL     1     -74.281  36.038 128.900  1.00  0.00     0.062 A 
HETATM    7  C20 UNL     1     -73.142  35.310 129.292  1.00  0.00     0.034 A 
ENDROOT
BRANCH   6   8
HETATM    8  C12 UNL     1     -74.340  37.447 129.253  1.00  0.00    -0.060 C 
BRANCH   8   9
HETATM    9  C13 UNL     1     -74.346  38.608 129.559  1.00  0.00    -0.063 C 
BRANCH   9  10
HETATM   10  C14 UNL     1     -74.311  40.003 129.959  1.00  0.00     0.121 C 
HETATM   11  C15 UNL     1     -73.018  40.263 130.676  1.00  0.00     0.051 C 
HETATM   12  C16 UNL     1     -72.840  41.790 130.637  1.00  0.00     0.004 C 
HETATM   13  C17 UNL     1     -74.101  42.547 130.793  1.00  0.00     0.000 C 
HETATM   14  C18 UNL     1     -75.260  41.824 131.369  1.00  0.00     0.004 C 
HETATM   15  C19 UNL     1     -75.424  40.393 130.906  1.00  0.00     0.051 C 
BRANCH  10  16
HETATM   16  O2  UNL     1     -74.357  40.862 128.861  1.00  0.00    -0.378 OA
ATOM     17  H2  UNL     1     -74.980  41.568 128.988  1.00  0.00     0.211 HD
ENDBRANCH  10  16
ENDBRANCH   9  10
ENDBRANCH   8   9
ENDBRANCH   6   8
BRANCH   5  18
HETATM   18  N2  UNL     1     -76.435  36.145 127.788  1.00  0.00    -0.364 N 
HETATM   19  C6  UNL     1     -76.973  36.088 126.432  1.00  0.00     0.127 C 
HETATM   20  C7  UNL     1     -78.361  35.465 126.463  1.00  0.00     0.058 C 
HETATM   21  C8  UNL     1     -78.986  35.617 127.834  1.00  0.00     0.191 C 
HETATM   22  F1  UNL     1     -80.345  35.429 127.812  1.00  0.00    -0.248 F 
HETATM   23  C9  UNL     1     -78.630  37.013 128.323  1.00  0.00     0.134 C 
HETATM   24 CL1  UNL     1     -79.614  37.411 129.720  1.00  0.00    -0.120 Cl
HETATM   25  C10 UNL     1     -77.152  36.994 128.717  1.00  0.00     0.147 C 
ENDBRANCH   5  18
BRANCH   1  26
HETATM   26  C2  UNL     1     -71.811  33.225 129.432  1.00  0.00     0.057 C 
HETATM   27  C21 UNL     1     -71.273  32.260 128.361  1.00  0.00     0.250 C 
HETATM   28  N3  UNL     1     -72.100  31.210 128.980  1.00  0.00    -0.073 N 
HETATM   29  C22 UNL     1     -72.025  31.976 130.221  1.00  0.00     0.250 C 
ATOM     30  H32 UNL     1     -72.999  30.942 128.579  1.00  0.00     0.277 HD
ATOM     31  H31 UNL     1     -71.820  30.230 128.948  1.00  0.00     0.277 HD
BRANCH  26  32
HETATM   32  C1  UNL     1     -70.655  34.108 129.851  1.00  0.00     0.182 C 
BRANCH  32  33
HETATM   33  O1  UNL     1     -69.699  33.447 130.580  1.00  0.00    -0.400 OA
ATOM     34  H1  UNL     1     -69.117  32.917 130.048  1.00  0.00     0.209 HD
ENDBRANCH  32  33
ENDBRANCH  26  32
ENDBRANCH   1  26
TORSDOF 8
ENDMDL
MODEL 2
REMARK VINA RESULT: -8.752312908      4.215      5.869
REMARK  8 active torsions:
REMARK  status: ('A' for Active; 'I' for Inactive)
REMARK    1  A    between atoms: O1_1  and  C1_3 
REMARK    2  A    between atoms: C1_3  and  C2_4 
REMARK    3  A    between atoms: C2_4  and  C3_5 
REMARK    4  A    between atoms: C5_9  and  N2_10 
REMARK    5  A    between atoms: C11_18  and  C12_19 
REMARK    6  A    between atoms: C12_19  and  C13_20 
REMARK    7  A    between atoms: C13_20  and  C14_21 
REMARK    8  A    between atoms: C14_21  and  O2_22 
ROOT
HETATM    1  C3  UNL     1     -78.432  35.903 127.441  1.00  0.00    -0.027 A 
HETATM    2  C4  UNL     1     -79.680  35.307 127.512  1.00  0.00     0.097 A 
HETATM    3  N1  UNL     1     -80.658  35.799 128.281  1.00  0.00    -0.351 N 
ATOM      4  H1  UNL     1     -81.556  35.316 128.293  1.00  0.00     0.166 HD
HETATM    5  C5  UNL     1     -80.510  36.923 129.056  1.00  0.00     0.122 A 
HETATM    6  C11 UNL     1     -79.303  37.531 129.012  1.00  0.00     0.062 A 
HETATM    7  C20 UNL     1     -78.262  37.029 128.209  1.00  0.00     0.034 A 
ENDROOT
BRANCH   6   8
HETATM    8  C12 UNL     1     -79.032  38.714 129.813  1.00  0.00    -0.060 C 
BRANCH   8   9
HETATM    9  C13 UNL     1     -78.784  39.708 130.439  1.00  0.00    -0.063 C 
BRANCH   9  10
HETATM   10  C14 UNL     1     -78.460  40.929 131.154  1.00  0.00     0.121 C 
HETATM   11  C15 UNL     1     -79.718  41.725 131.340  1.00  0.00     0.051 C 
HETATM   12  C16 UNL     1     -79.403  42.713 132.475  1.00  0.00     0.004 C 
HETATM   13  C17 UNL     1     -78.023  43.244 132.444  1.00  0.00     0.000 C 
HETATM   14  C18 UNL     1     -77.277  43.121 131.168  1.00  0.00     0.004 C 
HETATM   15  C19 UNL     1     -77.481  41.821 130.422  1.00  0.00     0.051 C 
BRANCH  10  16
HETATM   16  O2  UNL     1     -77.942  40.669 132.423  1.00  0.00    -0.378 OA
ATOM     17  H2  UNL     1     -77.116  41.115 132.568  1.00  0.00     0.211 HD
ENDBRANCH  10  16
ENDBRANCH   9  10
ENDBRANCH   8   9
ENDBRANCH   6   8
BRANCH   5  18
HETATM   18  N2  UNL     1     -81.591  37.417 129.814  1.00  0.00    -0.364 N 
HETATM   19  C6  UNL     1     -82.458  38.520 129.412  1.00  0.00     0.127 C 
HETATM   20  C7  UNL     1     -83.876  38.004 129.215  1.00  0.00     0.058 C 
HETATM   21  C8  UNL     1     -84.097  36.730 130.002  1.00  0.00     0.191 C 
HETATM   22  F1  UNL     1     -85.428  36.443 130.170  1.00  0.00    -0.248 F 
HETATM   23  C9  UNL     1     -83.400  36.919 131.342  1.00  0.00     0.134 C 
HETATM   24 CL1  UNL     1     -83.915  35.660 132.451  1.00  0.00    -0.120 Cl
HETATM   25  C10 UNL     1     -81.895  36.808 131.092  1.00  0.00     0.147 C 
ENDBRANCH   5  18
BRANCH   1  26
HETATM   26  C2  UNL     1     -77.326  35.396 126.598  1.00  0.00     0.057 C 
HETATM   27  C21 UNL     1     -76.795  34.017 127.028  1.00  0.00     0.250 C 
HETATM   28  N3  UNL     1     -75.804  34.726 127.856  1.00  0.00    -0.073 N 
HETATM   29  C22 UNL     1     -75.949  35.856 126.943  1.00  0.00     0.250 C 
ATOM     30  H32 UNL     1     -75.940  34.838 128.861  1.00  0.00     0.277 HD
ATOM     31  H31 UNL     1     -74.890  34.318 128.050  1.00  0.00     0.277 HD
BRANCH  26  32
HETATM   32  C1  UNL     1     -77.666  35.298 125.126  1.00  0.00     0.182 C 
BRANCH  32  33
HETATM   33  O1  UNL     1     -77.356  34.080 124.574  1.00  0.00    -0.400 OA
ATOM     34  H1  UNL     1     -77.908  33.849 123.836  1.00  0.00     0.209 HD
ENDBRANCH  32  33
ENDBRANCH  26  32
ENDBRANCH   1  26
TORSDOF 8
ENDMDL
MODEL 3
REMARK VINA RESULT: -8.660395088      0.801      1.237
REMARK  8 active torsions:
REMARK  status: ('A' for Active; 'I' for Inactive)
REMARK    1  A    between atoms: O1_1  and  C1_3 
REMARK    2  A    between atoms: C1_3  and  C2_4 
REMARK    3  A    between atoms: C2_4  and  C3_5 
REMARK    4  A    between atoms: C5_9  and  N2_10 
REMARK    5  A    between atoms: C11_18  and  C12_19 
REMARK    6  A    between atoms: C12_19  and  C13_20 
REMARK    7  A    between atoms: C13_20  and  C14_21 
REMARK    8  A    between atoms: C14_21  and  O2_22 
ROOT
HETATM    1  C3  UNL     1     -73.247  34.097 128.933  1.00  0.00    -0.027 A 
HETATM    2  C4  UNL     1     -74.270  33.528 128.193  1.00  0.00     0.097 A 
HETATM    3  N1  UNL     1     -75.364  34.216 127.850  1.00  0.00    -0.351 N 
ATOM      4  H1  UNL     1     -76.084  33.742 127.305  1.00  0.00     0.166 HD
HETATM    5  C5  UNL     1     -75.566  35.529 128.196  1.00  0.00     0.122 A 
HETATM    6  C11 UNL     1     -74.587  36.118 128.920  1.00  0.00     0.062 A 
HETATM    7  C20 UNL     1     -73.428  35.411 129.291  1.00  0.00     0.034 A 
ENDROOT
BRANCH   6   8
HETATM    8  C12 UNL     1     -74.710  37.498 129.360  1.00  0.00    -0.060 C 
BRANCH   8   9
HETATM    9  C13 UNL     1     -74.828  38.623 129.765  1.00  0.00    -0.063 C 
BRANCH   9  10
HETATM   10  C14 UNL     1     -74.985  39.963 130.300  1.00  0.00     0.121 C 
HETATM   11  C15 UNL     1     -76.109  40.641 129.572  1.00  0.00     0.051 C 
HETATM   12  C16 UNL     1     -76.523  41.813 130.477  1.00  0.00     0.004 C 
HETATM   13  C17 UNL     1     -75.390  42.474 131.160  1.00  0.00     0.000 C 
HETATM   14  C18 UNL     1     -74.034  42.245 130.604  1.00  0.00     0.004 C 
HETATM   15  C19 UNL     1     -73.761  40.835 130.128  1.00  0.00     0.051 C 
BRANCH  10  16
HETATM   16  O2  UNL     1     -75.318  39.947 131.655  1.00  0.00    -0.378 OA
ATOM     17  H2  UNL     1     -74.566  39.759 132.204  1.00  0.00     0.211 HD
ENDBRANCH  10  16
ENDBRANCH   9  10
ENDBRANCH   8   9
ENDBRANCH   6   8
BRANCH   5  18
HETATM   18  N2  UNL     1     -76.721  36.213 127.769  1.00  0.00    -0.364 N 
HETATM   19  C6  UNL     1     -77.307  36.114 126.436  1.00  0.00     0.127 C 
HETATM   20  C7  UNL     1     -78.690  35.488 126.535  1.00  0.00     0.058 C 
HETATM   21  C8  UNL     1     -79.267  35.679 127.921  1.00  0.00     0.191 C 
HETATM   22  F1  UNL     1     -80.625  35.487 127.953  1.00  0.00    -0.248 F 
HETATM   23  C9  UNL     1     -78.899  37.091 128.355  1.00  0.00     0.134 C 
HETATM   24 CL1  UNL     1     -79.835  37.528 129.774  1.00  0.00    -0.120 Cl
HETATM   25  C10 UNL     1     -77.407  37.088 128.696  1.00  0.00     0.147 C 
ENDBRANCH   5  18
BRANCH   1  26
HETATM   26  C2  UNL     1     -72.018  33.374 129.328  1.00  0.00     0.057 C 
HETATM   27  C21 UNL     1     -71.493  32.403 128.257  1.00  0.00     0.250 C 
HETATM   28  N3  UNL     1     -72.290  31.350 128.909  1.00  0.00    -0.073 N 
HETATM   29  C22 UNL     1     -72.195  32.132 130.138  1.00  0.00     0.250 C 
ATOM     30  H32 UNL     1     -73.194  31.064 128.533  1.00  0.00     0.277 HD
ATOM     31  H31 UNL     1     -71.997  30.373 128.881  1.00  0.00     0.277 HD
BRANCH  26  32
HETATM   32  C1  UNL     1     -70.865  34.278 129.707  1.00  0.00     0.182 C 
BRANCH  32  33
HETATM   33  O1  UNL     1     -69.838  33.619 130.337  1.00  0.00    -0.400 OA
ATOM     34  H1  UNL     1     -69.035  34.124 130.379  1.00  0.00     0.209 HD
ENDBRANCH  32  33
ENDBRANCH  26  32
ENDBRANCH   1  26
TORSDOF 8
ENDMDL
MODEL 4
REMARK VINA RESULT: -8.513001453      4.690      8.731
REMARK  8 active torsions:
REMARK  status: ('A' for Active; 'I' for Inactive)
REMARK    1  A    between atoms: O1_1  and  C1_3 
REMARK    2  A    between atoms: C1_3  and  C2_4 
REMARK    3  A    between atoms: C2_4  and  C3_5 
REMARK    4  A    between atoms: C5_9  and  N2_10 
REMARK    5  A    between atoms: C11_18  and  C12_19 
REMARK    6  A    between atoms: C12_19  and  C13_20 
REMARK    7  A    between atoms: C13_20  and  C14_21 
REMARK    8  A    between atoms: C14_21  and  O2_22 
ROOT
HETATM    1  C3  UNL     1     -78.007  40.664 130.374  1.00  0.00    -0.027 A 
HETATM    2  C4  UNL     1     -76.884  40.048 129.847  1.00  0.00     0.097 A 
HETATM    3  N1  UNL     1     -76.930  38.816 129.329  1.00  0.00    -0.351 N 
ATOM      4  H1  UNL     1     -76.070  38.414 128.957  1.00  0.00     0.166 HD
HETATM    5  C5  UNL     1     -78.078  38.066 129.273  1.00  0.00     0.122 A 
HETATM    6  C11 UNL     1     -79.196  38.637 129.778  1.00  0.00     0.062 A 
HETATM    7  C20 UNL     1     -79.168  39.932 130.329  1.00  0.00     0.034 A 
ENDROOT
BRANCH   6   8
HETATM    8  C12 UNL     1     -80.461  37.920 129.792  1.00  0.00    -0.060 C 
BRANCH   8   9
HETATM    9  C13 UNL     1     -81.521  37.357 129.836  1.00  0.00    -0.063 C 
BRANCH   9  10
HETATM   10  C14 UNL     1     -82.825  36.724 129.885  1.00  0.00     0.121 C 
HETATM   11  C15 UNL     1     -82.702  35.330 129.342  1.00  0.00     0.051 C 
HETATM   12  C16 UNL     1     -83.948  34.589 129.856  1.00  0.00     0.004 C 
HETATM   13  C17 UNL     1     -85.172  35.418 129.883  1.00  0.00     0.000 C 
HETATM   14  C18 UNL     1     -85.175  36.652 129.059  1.00  0.00     0.004 C 
HETATM   15  C19 UNL     1     -83.875  37.427 129.053  1.00  0.00     0.051 C 
BRANCH  10  16
HETATM   16  O2  UNL     1     -83.307  36.620 131.191  1.00  0.00    -0.378 OA
ATOM     17  H2  UNL     1     -84.210  36.907 131.260  1.00  0.00     0.211 HD
ENDBRANCH  10  16
ENDBRANCH   9  10
ENDBRANCH   8   9
ENDBRANCH   6   8
BRANCH   5  18
HETATM   18  N2  UNL     1     -78.073  36.789 128.676  1.00  0.00    -0.364 N 
HETATM   19  C6  UNL     1     -79.105  36.282 127.777  1.00  0.00     0.127 C 
HETATM   20  C7  UNL     1     -78.506  36.047 126.398  1.00  0.00     0.058 C 
HETATM   21  C8  UNL     1     -77.008  35.849 126.491  1.00  0.00     0.191 C 
HETATM   22  F1  UNL     1     -76.487  35.263 125.365  1.00  0.00    -0.248 F 
HETATM   23  C9  UNL     1     -76.757  34.994 127.725  1.00  0.00     0.134 C 
HETATM   24 CL1  UNL     1     -75.104  34.406 127.701  1.00  0.00    -0.120 Cl
HETATM   25  C10 UNL     1     -76.974  35.886 128.949  1.00  0.00     0.147 C 
ENDBRANCH   5  18
BRANCH   1  26
HETATM   26  C2  UNL     1     -78.001  42.027 130.950  1.00  0.00     0.057 C 
HETATM   27  C21 UNL     1     -77.094  42.180 132.183  1.00  0.00     0.250 C 
HETATM   28  N3  UNL     1     -78.270  41.862 133.012  1.00  0.00    -0.073 N 
HETATM   29  C22 UNL     1     -79.094  42.357 131.913  1.00  0.00     0.250 C 
ATOM     30  H32 UNL     1     -78.408  40.927 133.395  1.00  0.00     0.277 HD
ATOM     31  H31 UNL     1     -78.368  42.237 133.955  1.00  0.00     0.277 HD
BRANCH  26  32
HETATM   32  C1  UNL     1     -77.603  43.111 129.972  1.00  0.00     0.182 C 
BRANCH  32  33
HETATM   33  O1  UNL     1     -78.670  43.687 129.330  1.00  0.00    -0.400 OA
ATOM     34  H1  UNL     1     -78.713  44.630 129.441  1.00  0.00     0.209 HD
ENDBRANCH  32  33
ENDBRANCH  26  32
ENDBRANCH   1  26
TORSDOF 8
ENDMDL
MODEL 5
REMARK VINA RESULT: -8.448840558      4.429      8.560
REMARK  8 active torsions:
REMARK  status: ('A' for Active; 'I' for Inactive)
REMARK    1  A    between atoms: O1_1  and  C1_3 
REMARK    2  A    between atoms: C1_3  and  C2_4 
REMARK    3  A    between atoms: C2_4  and  C3_5 
REMARK    4  A    between atoms: C5_9  and  N2_10 
REMARK    5  A    between atoms: C11_18  and  C12_19 
REMARK    6  A    between atoms: C12_19  and  C13_20 
REMARK    7  A    between atoms: C13_20  and  C14_21 
REMARK    8  A    between atoms: C14_21  and  O2_22 
ROOT
HETATM    1  C3  UNL     1     -77.742  40.652 130.405  1.00  0.00    -0.027 A 
HETATM    2  C4  UNL     1     -76.638  40.063 129.814  1.00  0.00     0.097 A 
HETATM    3  N1  UNL     1     -76.675  38.819 129.324  1.00  0.00    -0.351 N 
ATOM      4  H1  UNL     1     -75.829  38.438 128.900  1.00  0.00     0.166 HD
HETATM    5  C5  UNL     1     -77.798  38.030 129.362  1.00  0.00     0.122 A 
HETATM    6  C11 UNL     1     -78.898  38.573 129.933  1.00  0.00     0.062 A 
HETATM    7  C20 UNL     1     -78.878  39.880 130.455  1.00  0.00     0.034 A 
ENDROOT
BRANCH   6   8
HETATM    8  C12 UNL     1     -80.133  37.815 130.049  1.00  0.00    -0.060 C 
BRANCH   8   9
HETATM    9  C13 UNL     1     -81.151  37.194 130.189  1.00  0.00    -0.063 C 
BRANCH   9  10
HETATM   10  C14 UNL     1     -82.359  36.418 130.400  1.00  0.00     0.121 C 
HETATM   11  C15 UNL     1     -83.504  37.364 130.622  1.00  0.00     0.051 C 
HETATM   12  C16 UNL     1     -84.769  36.530 130.358  1.00  0.00     0.004 C 
HETATM   13  C17 UNL     1     -84.677  35.132 130.832  1.00  0.00     0.000 C 
HETATM   14  C18 UNL     1     -83.626  34.822 131.832  1.00  0.00     0.004 C 
HETATM   15  C19 UNL     1     -82.298  35.512 131.609  1.00  0.00     0.051 C 
BRANCH  10  16
HETATM   16  O2  UNL     1     -82.677  35.636 129.289  1.00  0.00    -0.378 OA
ATOM     17  H2  UNL     1     -81.951  35.081 129.026  1.00  0.00     0.211 HD
ENDBRANCH  10  16
ENDBRANCH   9  10
ENDBRANCH   8   9
ENDBRANCH   6   8
BRANCH   5  18
HETATM   18  N2  UNL     1     -77.788  36.741 128.791  1.00  0.00    -0.364 N 
HETATM   19  C6  UNL     1     -78.843  36.195 127.942  1.00  0.00     0.127 C 
HETATM   20  C7  UNL     1     -78.290  35.944 126.546  1.00  0.00     0.058 C 
HETATM   21  C8  UNL     1     -76.786  35.778 126.587  1.00  0.00     0.191 C 
HETATM   22  F1  UNL     1     -76.295  35.178 125.454  1.00  0.00    -0.248 F 
HETATM   23  C9  UNL     1     -76.473  34.953 127.828  1.00  0.00     0.134 C 
HETATM   24 CL1  UNL     1     -74.810  34.397 127.754  1.00  0.00    -0.120 Cl
HETATM   25  C10 UNL     1     -76.663  35.866 129.041  1.00  0.00     0.147 C 
ENDBRANCH   5  18
BRANCH   1  26
HETATM   26  C2  UNL     1     -77.746  42.026 130.954  1.00  0.00     0.057 C 
HETATM   27  C21 UNL     1     -79.099  42.747 130.825  1.00  0.00     0.250 C 
HETATM   28  N3  UNL     1     -78.618  43.289 129.542  1.00  0.00    -0.073 N 
HETATM   29  C22 UNL     1     -77.262  43.115 130.054  1.00  0.00     0.250 C 
ATOM     30  H32 UNL     1     -78.905  42.876 128.655  1.00  0.00     0.277 HD
ATOM     31  H31 UNL     1     -78.940  44.193 129.198  1.00  0.00     0.277 HD
BRANCH  26  32
HETATM   32  C1  UNL     1     -77.337  42.112 132.409  1.00  0.00     0.182 C 
BRANCH  32  33
HETATM   33  O1  UNL     1     -78.178  41.430 133.253  1.00  0.00    -0.400 OA
ATOM     34  H1  UNL     1     -78.575  41.982 133.917  1.00  0.00     0.209 HD
ENDBRANCH  32  33
ENDBRANCH  26  32
ENDBRANCH   1  26
TORSDOF 8
ENDMDL
