MODEL 1
REMARK VINA RESULT: -4.609195408      0.000      0.000
REMARK  4 active torsions:
REMARK  status: ('A' for Active; 'I' for Inactive)
REMARK    1  A    between atoms: C4_6  and  C5_7 
REMARK    2  A    between atoms: C5_7  and  C6_8 
REMARK    3  A    between atoms: C6_8  and  N3_9 
REMARK    4  A    between atoms: C13_26  and  C14_27 
ROOT
HETATM    1  N1  UNL     1     -81.541  36.042 129.011  1.00  0.00    -0.195 NA
HETATM    2  C1  UNL     1     -82.679  35.971 129.330  1.00  0.00     0.087 C 
HETATM    3  C2  UNL     1     -84.097  35.871 129.771  1.00  0.00     0.168 C 
HETATM    4  C3  UNL     1     -84.803  34.887 128.923  1.00  0.00     0.087 C 
HETATM    5  N2  UNL     1     -85.375  34.084 128.272  1.00  0.00    -0.195 NA
HETATM    6  C4  UNL     1     -84.765  37.145 129.878  1.00  0.00     0.160 C 
HETATM    7  O1  UNL     1     -85.635  37.367 130.931  1.00  0.00    -0.383 OA
HETATM    8  C7  UNL     1     -85.994  36.418 131.772  1.00  0.00     0.176 C 
HETATM    9  C8  UNL     1     -85.199  35.205 131.950  1.00  0.00     0.050 C 
HETATM   10  C9  UNL     1     -83.932  35.121 131.126  1.00  0.00     0.043 C 
HETATM   11  C10 UNL     1     -83.301  35.813 132.221  1.00  0.00     0.051 C 
HETATM   12  C11 UNL     1     -81.949  35.853 132.696  1.00  0.00     0.186 C 
HETATM   13  O2  UNL     1     -81.997  35.721 134.134  1.00  0.00    -0.322 OA
HETATM   14  C12 UNL     1     -83.084  36.163 134.871  1.00  0.00     0.213 C 
HETATM   15  N4  UNL     1     -83.000  36.700 136.040  1.00  0.00    -0.365 N 
ATOM     16  H41 UNL     1     -83.800  37.025 136.582  1.00  0.00     0.159 HD
ATOM     17  H42 UNL     1     -82.087  36.821 136.479  1.00  0.00     0.159 HD
HETATM   18  N5  UNL     1     -84.385  35.991 134.244  1.00  0.00    -0.342 N 
ATOM     19  H5  UNL     1     -85.250  36.436 134.550  1.00  0.00     0.164 HD
HETATM   20  C13 UNL     1     -84.261  35.088 133.117  1.00  0.00     0.074 C 
ENDROOT
BRANCH   6  21
HETATM   21  C5  UNL     1     -85.449  37.701 128.682  1.00  0.00     0.062 C 
BRANCH  21  22
HETATM   22  C6  UNL     1     -84.775  38.593 127.736  1.00  0.00     0.232 C 
BRANCH  22  23
HETATM   23  N3  UNL     1     -85.328  38.815 126.441  1.00  0.00    -0.079 N 
ATOM     24  H33 UNL     1     -84.564  39.013 125.795  1.00  0.00     0.274 HD
ATOM     25  H32 UNL     1     -85.673  37.926 126.083  1.00  0.00     0.274 HD
ATOM     26  H31 UNL     1     -86.053  39.519 126.307  1.00  0.00     0.274 HD
ENDBRANCH  22  23
ENDBRANCH  21  22
ENDBRANCH   6  21
BRANCH  20  27
HETATM   27  C14 UNL     1     -84.082  33.744 133.571  1.00  0.00    -0.007 A 
HETATM   28  C15 UNL     1     -83.087  32.847 133.300  1.00  0.00     0.013 A 
HETATM   29  C16 UNL     1     -83.042  31.556 133.815  1.00  0.00     0.024 A 
HETATM   30  C17 UNL     1     -84.043  31.121 134.653  1.00  0.00     0.035 A 
HETATM   31 CL1  UNL     1     -83.991  29.494 135.306  1.00  0.00    -0.084 Cl
HETATM   32  C18 UNL     1     -85.061  31.998 134.947  1.00  0.00     0.048 A 
HETATM   33  C19 UNL     1     -85.091  33.272 134.428  1.00  0.00     0.044 A 
HETATM   34 CL2  UNL     1     -86.468  34.248 134.898  1.00  0.00    -0.084 Cl
ENDBRANCH  20  27
TORSDOF 4
ENDMDL
MODEL 2
REMARK VINA RESULT: -4.540174283      3.999      6.681
REMARK  4 active torsions:
REMARK  status: ('A' for Active; 'I' for Inactive)
REMARK    1  A    between atoms: C4_6  and  C5_7 
REMARK    2  A    between atoms: C5_7  and  C6_8 
REMARK    3  A    between atoms: C6_8  and  N3_9 
REMARK    4  A    between atoms: C13_26  and  C14_27 
ROOT
HETATM    1  N1  UNL     1     -85.934  34.895 129.615  1.00  0.00    -0.195 NA
HETATM    2  C1  UNL     1     -85.014  34.772 130.351  1.00  0.00     0.087 C 
HETATM    3  C2  UNL     1     -83.838  34.646 131.254  1.00  0.00     0.168 C 
HETATM    4  C3  UNL     1     -83.391  33.236 131.280  1.00  0.00     0.087 C 
HETATM    5  N2  UNL     1     -83.005  32.120 131.290  1.00  0.00    -0.195 NA
HETATM    6  C4  UNL     1     -84.039  35.224 132.560  1.00  0.00     0.160 C 
HETATM    7  O1  UNL     1     -83.004  35.916 133.162  1.00  0.00    -0.383 OA
HETATM    8  C7  UNL     1     -81.786  35.956 132.660  1.00  0.00     0.176 C 
HETATM    9  C8  UNL     1     -81.524  35.673 131.250  1.00  0.00     0.050 C 
HETATM   10  C9  UNL     1     -82.739  35.353 130.406  1.00  0.00     0.043 C 
HETATM   11  C10 UNL     1     -82.839  36.776 130.202  1.00  0.00     0.051 C 
HETATM   12  C11 UNL     1     -83.402  37.570 129.149  1.00  0.00     0.186 C 
HETATM   13  O2  UNL     1     -82.450  38.615 128.848  1.00  0.00    -0.322 OA
HETATM   14  C12 UNL     1     -81.586  39.113 129.809  1.00  0.00     0.213 C 
HETATM   15  N4  UNL     1     -81.228  40.349 129.893  1.00  0.00    -0.365 N 
ATOM     16  H41 UNL     1     -80.591  40.716 130.600  1.00  0.00     0.159 HD
ATOM     17  H42 UNL     1     -81.586  41.029 129.223  1.00  0.00     0.159 HD
HETATM   18  N5  UNL     1     -81.075  38.143 130.764  1.00  0.00    -0.342 N 
ATOM     19  H5  UNL     1     -80.602  38.370 131.639  1.00  0.00     0.164 HD
HETATM   20  C13 UNL     1     -81.342  36.803 130.280  1.00  0.00     0.074 C 
ENDROOT
BRANCH   6  21
HETATM   21  C5  UNL     1     -84.626  34.383 133.635  1.00  0.00     0.062 C 
BRANCH  21  22
HETATM   22  C6  UNL     1     -83.920  34.106 134.888  1.00  0.00     0.232 C 
BRANCH  22  23
HETATM   23  N3  UNL     1     -82.747  33.297 134.887  1.00  0.00    -0.079 N 
ATOM     24  H33 UNL     1     -82.762  32.710 134.052  1.00  0.00     0.274 HD
ATOM     25  H32 UNL     1     -81.944  33.897 134.700  1.00  0.00     0.274 HD
ATOM     26  H31 UNL     1     -82.528  32.709 135.690  1.00  0.00     0.274 HD
ENDBRANCH  22  23
ENDBRANCH  21  22
ENDBRANCH   6  21
BRANCH  20  27
HETATM   27  C14 UNL     1     -80.472  36.484 129.190  1.00  0.00    -0.007 A 
HETATM   28  C15 UNL     1     -80.725  35.809 128.028  1.00  0.00     0.013 A 
HETATM   29  C16 UNL     1     -79.771  35.566 127.047  1.00  0.00     0.024 A 
HETATM   30  C17 UNL     1     -78.483  36.017 127.221  1.00  0.00     0.035 A 
HETATM   31 CL1  UNL     1     -77.275  35.713 125.986  1.00  0.00    -0.084 Cl
HETATM   32  C18 UNL     1     -78.192  36.699 128.380  1.00  0.00     0.048 A 
HETATM   33  C19 UNL     1     -79.149  36.931 129.341  1.00  0.00     0.044 A 
HETATM   34 CL2  UNL     1     -78.600  37.804 130.759  1.00  0.00    -0.084 Cl
ENDBRANCH  20  27
TORSDOF 4
ENDMDL
MODEL 3
REMARK VINA RESULT: -3.956294434      3.413      6.441
REMARK  4 active torsions:
REMARK  status: ('A' for Active; 'I' for Inactive)
REMARK    1  A    between atoms: C4_6  and  C5_7 
REMARK    2  A    between atoms: C5_7  and  C6_8 
REMARK    3  A    between atoms: C6_8  and  N3_9 
REMARK    4  A    between atoms: C13_26  and  C14_27 
ROOT
HETATM    1  N1  UNL     1     -86.026  33.144 131.919  1.00  0.00    -0.195 NA
HETATM    2  C1  UNL     1     -85.481  34.095 132.367  1.00  0.00     0.087 C 
HETATM    3  C2  UNL     1     -84.788  35.303 132.889  1.00  0.00     0.168 C 
HETATM    4  C3  UNL     1     -83.742  34.888 133.849  1.00  0.00     0.087 C 
HETATM    5  N2  UNL     1     -82.885  34.572 134.597  1.00  0.00    -0.195 NA
HETATM    6  C4  UNL     1     -85.681  36.317 133.394  1.00  0.00     0.160 C 
HETATM    7  O1  UNL     1     -85.402  37.649 133.147  1.00  0.00    -0.383 OA
HETATM    8  C7  UNL     1     -84.278  38.052 132.591  1.00  0.00     0.176 C 
HETATM    9  C8  UNL     1     -83.447  37.150 131.795  1.00  0.00     0.050 C 
HETATM   10  C9  UNL     1     -83.971  35.738 131.637  1.00  0.00     0.043 C 
HETATM   11  C10 UNL     1     -84.685  36.246 130.494  1.00  0.00     0.051 C 
HETATM   12  C11 UNL     1     -85.168  35.625 129.295  1.00  0.00     0.186 C 
HETATM   13  O2  UNL     1     -84.822  36.495 128.194  1.00  0.00    -0.322 OA
HETATM   14  C12 UNL     1     -84.707  37.866 128.357  1.00  0.00     0.213 C 
HETATM   15  N4  UNL     1     -85.061  38.735 127.474  1.00  0.00    -0.365 N 
ATOM     16  H41 UNL     1     -84.976  39.745 127.593  1.00  0.00     0.159 HD
ATOM     17  H42 UNL     1     -85.456  38.426 126.586  1.00  0.00     0.159 HD
HETATM   18  N5  UNL     1     -84.144  38.308 129.624  1.00  0.00    -0.342 N 
ATOM     19  H5  UNL     1     -84.178  39.262 129.983  1.00  0.00     0.164 HD
HETATM   20  C13 UNL     1     -83.529  37.181 130.297  1.00  0.00     0.074 C 
ENDROOT
BRANCH   6  21
HETATM   21  C5  UNL     1     -86.101  36.262 134.818  1.00  0.00     0.062 C 
BRANCH  21  22
HETATM   22  C6  UNL     1     -85.828  37.349 135.761  1.00  0.00     0.232 C 
BRANCH  22  23
HETATM   23  N3  UNL     1     -84.485  37.736 136.040  1.00  0.00    -0.079 N 
ATOM     24  H33 UNL     1     -83.872  36.954 135.811  1.00  0.00     0.274 HD
ATOM     25  H32 UNL     1     -84.200  38.429 135.349  1.00  0.00     0.274 HD
ATOM     26  H31 UNL     1     -84.233  38.082 136.965  1.00  0.00     0.274 HD
ENDBRANCH  22  23
ENDBRANCH  21  22
ENDBRANCH   6  21
BRANCH  20  27
HETATM   27  C14 UNL     1     -82.304  36.823 129.651  1.00  0.00    -0.007 A 
HETATM   28  C15 UNL     1     -81.921  35.641 129.080  1.00  0.00     0.013 A 
HETATM   29  C16 UNL     1     -80.682  35.432 128.484  1.00  0.00     0.024 A 
HETATM   30  C17 UNL     1     -79.761  36.453 128.448  1.00  0.00     0.035 A 
HETATM   31 CL1  UNL     1     -78.197  36.193 127.698  1.00  0.00    -0.084 Cl
HETATM   32  C18 UNL     1     -80.112  37.656 129.015  1.00  0.00     0.048 A 
HETATM   33  C19 UNL     1     -81.343  37.846 129.602  1.00  0.00     0.044 A 
HETATM   34 CL2  UNL     1     -81.616  39.437 130.285  1.00  0.00    -0.084 Cl
ENDBRANCH  20  27
TORSDOF 4
ENDMDL
MODEL 4
REMARK VINA RESULT: -3.875190564      4.502      6.913
REMARK  4 active torsions:
REMARK  status: ('A' for Active; 'I' for Inactive)
REMARK    1  A    between atoms: C4_6  and  C5_7 
REMARK    2  A    between atoms: C5_7  and  C6_8 
REMARK    3  A    between atoms: C6_8  and  N3_9 
REMARK    4  A    between atoms: C13_26  and  C14_27 
ROOT
HETATM    1  N1  UNL     1     -85.170  37.696 129.170  1.00  0.00    -0.195 NA
HETATM    2  C1  UNL     1     -84.460  36.982 129.793  1.00  0.00     0.087 C 
HETATM    3  C2  UNL     1     -83.535  36.106 130.561  1.00  0.00     0.168 C 
HETATM    4  C3  UNL     1     -83.798  34.693 130.212  1.00  0.00     0.087 C 
HETATM    5  N2  UNL     1     -83.977  33.562 129.923  1.00  0.00    -0.195 NA
HETATM    6  C4  UNL     1     -83.523  36.370 131.979  1.00  0.00     0.160 C 
HETATM    7  O1  UNL     1     -82.322  36.328 132.666  1.00  0.00    -0.383 OA
HETATM    8  C7  UNL     1     -81.199  35.919 132.114  1.00  0.00     0.176 C 
HETATM    9  C8  UNL     1     -81.013  35.903 130.664  1.00  0.00     0.050 C 
HETATM   10  C9  UNL     1     -82.185  36.404 129.845  1.00  0.00     0.043 C 
HETATM   11  C10 UNL     1     -81.598  37.711 130.003  1.00  0.00     0.051 C 
HETATM   12  C11 UNL     1     -81.661  38.907 129.215  1.00  0.00     0.186 C 
HETATM   13  O2  UNL     1     -80.316  39.427 129.120  1.00  0.00    -0.322 OA
HETATM   14  C12 UNL     1     -79.379  39.212 130.117  1.00  0.00     0.213 C 
HETATM   15  N4  UNL     1     -78.493  40.075 130.480  1.00  0.00    -0.365 N 
ATOM     16  H41 UNL     1     -77.803  39.918 131.214  1.00  0.00     0.159 HD
ATOM     17  H42 UNL     1     -78.452  40.986 130.021  1.00  0.00     0.159 HD
HETATM   18  N5  UNL     1     -79.437  37.915 130.771  1.00  0.00    -0.342 N 
ATOM     19  H5  UNL     1     -78.967  37.672 131.643  1.00  0.00     0.164 HD
HETATM   20  C13 UNL     1     -80.268  37.018 129.991  1.00  0.00     0.074 C 
ENDROOT
BRANCH   6  21
HETATM   21  C5  UNL     1     -84.497  35.663 132.850  1.00  0.00     0.062 C 
BRANCH  21  22
HETATM   22  C6  UNL     1     -84.080  34.810 133.966  1.00  0.00     0.232 C 
BRANCH  22  23
HETATM   23  N3  UNL     1     -83.402  33.582 133.715  1.00  0.00    -0.079 N 
ATOM     24  H33 UNL     1     -83.308  33.467 132.706  1.00  0.00     0.274 HD
ATOM     25  H32 UNL     1     -82.429  33.689 134.000  1.00  0.00     0.274 HD
ATOM     26  H31 UNL     1     -83.758  32.710 134.106  1.00  0.00     0.274 HD
ENDBRANCH  22  23
ENDBRANCH  21  22
ENDBRANCH   6  21
BRANCH  20  27
HETATM   27  C14 UNL     1     -79.582  36.611 128.804  1.00  0.00    -0.007 A 
HETATM   28  C15 UNL     1     -80.075  36.268 127.575  1.00  0.00     0.013 A 
HETATM   29  C16 UNL     1     -79.281  35.884 126.499  1.00  0.00     0.024 A 
HETATM   30  C17 UNL     1     -77.914  35.833 126.644  1.00  0.00     0.035 A 
HETATM   31 CL1  UNL     1     -76.910  35.348 125.290  1.00  0.00    -0.084 Cl
HETATM   32  C18 UNL     1     -77.384  36.169 127.868  1.00  0.00     0.048 A 
HETATM   33  C19 UNL     1     -78.184  36.548 128.922  1.00  0.00     0.044 A 
HETATM   34 CL2  UNL     1     -77.341  36.930 130.411  1.00  0.00    -0.084 Cl
ENDBRANCH  20  27
TORSDOF 4
ENDMDL
MODEL 5
REMARK VINA RESULT: -3.233577016     11.178     13.710
REMARK  4 active torsions:
REMARK  status: ('A' for Active; 'I' for Inactive)
REMARK    1  A    between atoms: C4_6  and  C5_7 
REMARK    2  A    between atoms: C5_7  and  C6_8 
REMARK    3  A    between atoms: C6_8  and  N3_9 
REMARK    4  A    between atoms: C13_26  and  C14_27 
ROOT
HETATM    1  N1  UNL     1     -83.210  26.798 123.653  1.00  0.00    -0.195 NA
HETATM    2  C1  UNL     1     -83.130  27.344 122.605  1.00  0.00     0.087 C 
HETATM    3  C2  UNL     1     -82.990  28.044 121.300  1.00  0.00     0.168 C 
HETATM    4  C3  UNL     1     -84.147  28.945 121.104  1.00  0.00     0.087 C 
HETATM    5  N2  UNL     1     -85.050  29.689 120.945  1.00  0.00    -0.195 NA
HETATM    6  C4  UNL     1     -82.735  27.162 120.188  1.00  0.00     0.160 C 
HETATM    7  O1  UNL     1     -81.838  27.548 119.208  1.00  0.00    -0.383 OA
HETATM    8  C7  UNL     1     -81.304  28.752 119.165  1.00  0.00     0.176 C 
HETATM    9  C8  UNL     1     -81.248  29.613 120.344  1.00  0.00     0.050 C 
HETATM   10  C9  UNL     1     -81.824  29.026 121.616  1.00  0.00     0.043 C 
HETATM   11  C10 UNL     1     -80.507  28.481 121.832  1.00  0.00     0.051 C 
HETATM   12  C11 UNL     1     -79.794  28.103 123.017  1.00  0.00     0.186 C 
HETATM   13  O2  UNL     1     -78.453  28.626 122.893  1.00  0.00    -0.322 OA
HETATM   14  C12 UNL     1     -77.851  28.805 121.658  1.00  0.00     0.213 C 
HETATM   15  N4  UNL     1     -76.599  28.610 121.424  1.00  0.00    -0.365 N 
ATOM     16  H41 UNL     1     -76.156  28.742 120.515  1.00  0.00     0.159 HD
ATOM     17  H42 UNL     1     -75.983  28.302 122.177  1.00  0.00     0.159 HD
HETATM   18  N5  UNL     1     -78.729  29.243 120.584  1.00  0.00    -0.342 N 
ATOM     19  H5  UNL     1     -78.499  29.227 119.591  1.00  0.00     0.164 HD
HETATM   20  C13 UNL     1     -79.983  29.707 121.146  1.00  0.00     0.074 C 
ENDROOT
BRANCH   6  21
HETATM   21  C5  UNL     1     -83.888  26.578 119.455  1.00  0.00     0.062 C 
BRANCH  21  22
HETATM   22  C6  UNL     1     -84.579  25.370 119.912  1.00  0.00     0.232 C 
BRANCH  22  23
HETATM   23  N3  UNL     1     -85.700  25.473 120.786  1.00  0.00    -0.079 N 
ATOM     24  H33 UNL     1     -86.548  25.490 120.220  1.00  0.00     0.274 HD
ATOM     25  H32 UNL     1     -85.802  24.588 121.282  1.00  0.00     0.274 HD
ATOM     26  H31 UNL     1     -85.752  26.230 121.467  1.00  0.00     0.274 HD
ENDBRANCH  22  23
ENDBRANCH  21  22
ENDBRANCH   6  21
BRANCH  20  27
HETATM   27  C14 UNL     1     -79.805  30.974 121.784  1.00  0.00    -0.007 A 
HETATM   28  C15 UNL     1     -80.406  31.493 122.897  1.00  0.00     0.013 A 
HETATM   29  C16 UNL     1     -80.135  32.757 123.410  1.00  0.00     0.024 A 
HETATM   30  C17 UNL     1     -79.211  33.563 122.784  1.00  0.00     0.035 A 
HETATM   31 CL1  UNL     1     -78.866  35.158 123.426  1.00  0.00    -0.084 Cl
HETATM   32  C18 UNL     1     -78.588  33.073 121.659  1.00  0.00     0.048 A 
HETATM   33  C19 UNL     1     -78.868  31.820 121.166  1.00  0.00     0.044 A 
HETATM   34 CL2  UNL     1     -77.991  31.364 119.719  1.00  0.00    -0.084 Cl
ENDBRANCH  20  27
TORSDOF 4
ENDMDL
