MODEL 1
REMARK VINA RESULT: -5.786494310      0.000      0.000
REMARK  3 active torsions:
REMARK  status: ('A' for Active; 'I' for Inactive)
REMARK    1  A    between atoms: C2_2  and  C3_3 
REMARK    2  A    between atoms: C3_3  and  C4_4 
REMARK    3  A    between atoms: C4_4  and  N1_5 
ROOT
HETATM    1  N1  UNL     1      24.340   1.187  24.939  1.00  0.00    -0.181 N 
HETATM    2  C5  UNL     1      23.977   2.320  24.080  1.00  0.00     0.272 A 
HETATM    3  N2  UNL     1      25.082   3.139  23.705  1.00  0.00    -0.347 N 
ATOM      4  H2  UNL     1      24.851   3.933  23.108  1.00  0.00     0.163 HD
HETATM    5  C6  UNL     1      26.304   3.028  24.002  1.00  0.00     0.204 A 
HETATM    6  N3  UNL     1      27.323   3.921  23.558  1.00  0.00    -0.063 NA
HETATM    7  N4  UNL     1      26.714   1.954  24.826  1.00  0.00    -0.164 N 
ATOM      8  H4  UNL     1      27.691   1.829  25.090  1.00  0.00     0.187 HD
HETATM    9  C7  UNL     1      25.690   1.045  25.279  1.00  0.00     0.681 A 
HETATM   10  N5  UNL     1      26.115   0.093  26.022  1.00  0.00    -0.234 N 
ATOM     11  H51 UNL     1      27.099  -0.010  26.270  1.00  0.00     0.174 HD
ATOM     12  H52 UNL     1      25.391  -0.551  26.342  1.00  0.00     0.174 HD
ENDROOT
BRANCH   1  13
HETATM   13  C4  UNL     1      23.320   0.317  25.365  1.00  0.00     0.084 C 
BRANCH  13  14
HETATM   14  C3  UNL     1      22.952  -0.845  24.533  1.00  0.00     0.045 C 
BRANCH  14  15
HETATM   15  C2  UNL     1      22.395  -1.993  25.422  1.00  0.00     0.001 C 
HETATM   16  C1  UNL     1      22.434  -1.424  26.838  1.00  0.00     0.005 C 
ENDBRANCH  14  15
ENDBRANCH  13  14
ENDBRANCH   1  13
TORSDOF 3
ENDMDL
MODEL 2
REMARK VINA RESULT: -5.647562934      0.712      1.114
REMARK  3 active torsions:
REMARK  status: ('A' for Active; 'I' for Inactive)
REMARK    1  A    between atoms: C2_2  and  C3_3 
REMARK    2  A    between atoms: C3_3  and  C4_4 
REMARK    3  A    between atoms: C4_4  and  N1_5 
ROOT
HETATM    1  N1  UNL     1      24.426   1.520  24.586  1.00  0.00    -0.181 N 
HETATM    2  C5  UNL     1      24.159   2.647  23.684  1.00  0.00     0.272 A 
HETATM    3  N2  UNL     1      25.307   3.441  23.395  1.00  0.00    -0.347 N 
ATOM      4  H2  UNL     1      25.142   4.230  22.769  1.00  0.00     0.163 HD
HETATM    5  C6  UNL     1      26.496   3.313  23.797  1.00  0.00     0.204 A 
HETATM    6  N3  UNL     1      27.565   4.182  23.431  1.00  0.00    -0.063 NA
HETATM    7  N4  UNL     1      26.814   2.246  24.669  1.00  0.00    -0.164 N 
ATOM      8  H4  UNL     1      27.763   2.108  25.017  1.00  0.00     0.187 HD
HETATM    9  C7  UNL     1      25.739   1.361  25.043  1.00  0.00     0.681 A 
HETATM   10  N5  UNL     1      26.080   0.413  25.833  1.00  0.00    -0.234 N 
ATOM     11  H51 UNL     1      27.038   0.297  26.167  1.00  0.00     0.174 HD
ATOM     12  H52 UNL     1      25.320  -0.214  26.098  1.00  0.00     0.174 HD
ENDROOT
BRANCH   1  13
HETATM   13  C4  UNL     1      23.357   0.674  24.934  1.00  0.00     0.084 C 
BRANCH  13  14
HETATM   14  C3  UNL     1      22.500   1.010  26.088  1.00  0.00     0.045 C 
BRANCH  14  15
HETATM   15  C2  UNL     1      22.605  -0.092  27.180  1.00  0.00     0.001 C 
HETATM   16  C1  UNL     1      22.683  -1.396  26.390  1.00  0.00     0.005 C 
ENDBRANCH  14  15
ENDBRANCH  13  14
ENDBRANCH   1  13
TORSDOF 3
ENDMDL
MODEL 3
REMARK VINA RESULT: -5.492788361      0.791      2.121
REMARK  3 active torsions:
REMARK  status: ('A' for Active; 'I' for Inactive)
REMARK    1  A    between atoms: C2_2  and  C3_3 
REMARK    2  A    between atoms: C3_3  and  C4_4 
REMARK    3  A    between atoms: C4_4  and  N1_5 
ROOT
HETATM    1  N1  UNL     1      24.397   1.083  24.762  1.00  0.00    -0.181 N 
HETATM    2  C5  UNL     1      25.769   0.955  25.266  1.00  0.00     0.272 A 
HETATM    3  N2  UNL     1      26.645   1.990  24.827  1.00  0.00    -0.347 N 
ATOM      4  H2  UNL     1      27.605   1.919  25.166  1.00  0.00     0.163 HD
HETATM    5  C6  UNL     1      26.410   2.981  24.082  1.00  0.00     0.204 A 
HETATM    6  N3  UNL     1      27.382   3.957  23.714  1.00  0.00    -0.063 NA
HETATM    7  N4  UNL     1      25.105   3.157  23.567  1.00  0.00    -0.164 N 
ATOM      8  H4  UNL     1      24.874   3.945  22.961  1.00  0.00     0.187 HD
HETATM    9  C7  UNL     1      24.115   2.176  23.935  1.00  0.00     0.681 A 
HETATM   10  N5  UNL     1      22.952   2.382  23.442  1.00  0.00    -0.234 N 
ATOM     11  H51 UNL     1      22.747   3.179  22.838  1.00  0.00     0.174 HD
ATOM     12  H52 UNL     1      22.251   1.687  23.702  1.00  0.00     0.174 HD
ENDROOT
BRANCH   1  13
HETATM   13  C4  UNL     1      23.453   0.109  25.138  1.00  0.00     0.084 C 
BRANCH  13  14
HETATM   14  C3  UNL     1      23.415  -0.376  26.532  1.00  0.00     0.045 C 
BRANCH  14  15
HETATM   15  C2  UNL     1      22.508  -1.634  26.643  1.00  0.00     0.001 C 
HETATM   16  C1  UNL     1      22.254  -2.043  25.194  1.00  0.00     0.005 C 
ENDBRANCH  14  15
ENDBRANCH  13  14
ENDBRANCH   1  13
TORSDOF 3
ENDMDL
MODEL 4
REMARK VINA RESULT: -5.466065766      1.310      2.433
REMARK  3 active torsions:
REMARK  status: ('A' for Active; 'I' for Inactive)
REMARK    1  A    between atoms: C2_2  and  C3_3 
REMARK    2  A    between atoms: C3_3  and  C4_4 
REMARK    3  A    between atoms: C4_4  and  N1_5 
ROOT
HETATM    1  N1  UNL     1      24.571   1.442  24.758  1.00  0.00    -0.181 N 
HETATM    2  C5  UNL     1      25.937   1.387  25.290  1.00  0.00     0.272 A 
HETATM    3  N2  UNL     1      26.817   2.355  24.724  1.00  0.00    -0.347 N 
ATOM      4  H2  UNL     1      27.773   2.334  25.080  1.00  0.00     0.163 HD
HETATM    5  C6  UNL     1      26.590   3.235  23.849  1.00  0.00     0.204 A 
HETATM    6  N3  UNL     1      27.565   4.154  23.361  1.00  0.00    -0.063 NA
HETATM    7  N4  UNL     1      25.291   3.336  23.299  1.00  0.00    -0.164 N 
ATOM      8  H4  UNL     1      25.066   4.033  22.589  1.00  0.00     0.187 HD
HETATM    9  C7  UNL     1      24.297   2.411  23.787  1.00  0.00     0.681 A 
HETATM   10  N5  UNL     1      23.140   2.545  23.257  1.00  0.00    -0.234 N 
ATOM     11  H51 UNL     1      22.941   3.251  22.548  1.00  0.00     0.174 HD
ATOM     12  H52 UNL     1      22.437   1.891  23.602  1.00  0.00     0.174 HD
ENDROOT
BRANCH   1  13
HETATM   13  C4  UNL     1      23.623   0.527  25.253  1.00  0.00     0.084 C 
BRANCH  13  14
HETATM   14  C3  UNL     1      23.864  -0.155  26.540  1.00  0.00     0.045 C 
BRANCH  14  15
HETATM   15  C2  UNL     1      23.135   0.593  27.693  1.00  0.00     0.001 C 
HETATM   16  C1  UNL     1      23.493  -0.206  28.944  1.00  0.00     0.005 C 
ENDBRANCH  14  15
ENDBRANCH  13  14
ENDBRANCH   1  13
TORSDOF 3
ENDMDL
MODEL 5
REMARK VINA RESULT: -5.385413029      1.458      1.561
REMARK  3 active torsions:
REMARK  status: ('A' for Active; 'I' for Inactive)
REMARK    1  A    between atoms: C2_2  and  C3_3 
REMARK    2  A    between atoms: C3_3  and  C4_4 
REMARK    3  A    between atoms: C4_4  and  N1_5 
ROOT
HETATM    1  N1  UNL     1      23.590   2.215  25.082  1.00  0.00    -0.181 N 
HETATM    2  C5  UNL     1      23.796   2.269  23.630  1.00  0.00     0.272 A 
HETATM    3  N2  UNL     1      25.049   2.827  23.244  1.00  0.00    -0.347 N 
ATOM      4  H2  UNL     1      25.212   2.874  22.238  1.00  0.00     0.163 HD
HETATM    5  C6  UNL     1      25.988   3.272  23.961  1.00  0.00     0.204 A 
HETATM    6  N3  UNL     1      27.205   3.810  23.449  1.00  0.00    -0.063 NA
HETATM    7  N4  UNL     1      25.846   3.245  25.368  1.00  0.00    -0.164 N 
ATOM      8  H4  UNL     1      26.581   3.596  25.984  1.00  0.00     0.187 HD
HETATM    9  C7  UNL     1      24.619   2.702  25.896  1.00  0.00     0.681 A 
HETATM   10  N5  UNL     1      24.542   2.702  27.174  1.00  0.00    -0.234 N 
ATOM     11  H51 UNL     1      25.293   3.058  27.766  1.00  0.00     0.174 HD
ATOM     12  H52 UNL     1      23.674   2.318  27.547  1.00  0.00     0.174 HD
ENDROOT
BRANCH   1  13
HETATM   13  C4  UNL     1      22.383   1.679  25.567  1.00  0.00     0.084 C 
BRANCH  13  14
HETATM   14  C3  UNL     1      22.042   0.270  25.291  1.00  0.00     0.045 C 
BRANCH  14  15
HETATM   15  C2  UNL     1      22.957  -0.680  26.115  1.00  0.00     0.001 C 
HETATM   16  C1  UNL     1      22.357  -2.066  25.892  1.00  0.00     0.005 C 
ENDBRANCH  14  15
ENDBRANCH  13  14
ENDBRANCH   1  13
TORSDOF 3
ENDMDL
