MODEL 1
REMARK VINA RESULT: -4.937906966      0.000      0.000
REMARK  4 active torsions:
REMARK  status: ('A' for Active; 'I' for Inactive)
REMARK    1  A    between atoms: N1_1  and  C1_5 
REMARK    2  A    between atoms: C1_5  and  C2_6 
REMARK    3  A    between atoms: C1_5  and  C7_11 
REMARK    4  A    between atoms: C2_6  and  C3_7 
ROOT
HETATM    1  C1  UNL     1      24.358   0.039  25.751  1.00  0.00     0.250 C 
ENDROOT
BRANCH   1   2
HETATM    2  N1  UNL     1      24.621   0.156  27.158  1.00  0.00    -0.068 N 
ATOM      3  H13 UNL     1      24.807   1.123  27.426  1.00  0.00     0.275 HD
ATOM      4  H12 UNL     1      23.779  -0.001  27.712  1.00  0.00     0.275 HD
ATOM      5  H11 UNL     1      25.379  -0.464  27.442  1.00  0.00     0.275 HD
ENDBRANCH   1   2
BRANCH   1   6
HETATM    6  C2  UNL     1      22.867   0.016  25.475  1.00  0.00     0.045 C 
BRANCH   6   7
HETATM    7  C3  UNL     1      22.498  -0.997  24.443  1.00  0.00    -0.012 A 
HETATM    8  C4  UNL     1      21.268  -0.694  23.638  1.00  0.00     0.005 A 
HETATM    9  C5  UNL     1      20.513  -1.825  24.320  1.00  0.00     0.001 A 
HETATM   10  C6  UNL     1      21.773  -2.166  25.079  1.00  0.00     0.005 A 
ENDBRANCH   6   7
ENDBRANCH   1   6
BRANCH   1  11
HETATM   11  C7  UNL     1      24.925   1.281  25.107  1.00  0.00     0.104 C 
HETATM   12  N2  UNL     1      24.462   1.892  24.076  1.00  0.00    -0.377 N 
HETATM   13  C8  UNL     1      25.227   3.048  23.703  1.00  0.00     0.140 C 
ATOM     14  H2  UNL     1      23.631   1.586  23.570  1.00  0.00     0.160 HD
HETATM   15  C9  UNL     1      26.484   2.924  24.531  1.00  0.00     0.140 C 
HETATM   16  N3  UNL     1      26.080   1.990  25.538  1.00  0.00    -0.377 N 
ATOM     17  H3  UNL     1      26.551   1.852  26.432  1.00  0.00     0.160 HD
ENDBRANCH   1  11
TORSDOF 4
ENDMDL
MODEL 2
REMARK VINA RESULT: -4.928221038      0.301      1.124
REMARK  4 active torsions:
REMARK  status: ('A' for Active; 'I' for Inactive)
REMARK    1  A    between atoms: N1_1  and  C1_5 
REMARK    2  A    between atoms: C1_5  and  C2_6 
REMARK    3  A    between atoms: C1_5  and  C7_11 
REMARK    4  A    between atoms: C2_6  and  C3_7 
ROOT
HETATM    1  C1  UNL     1      24.268   0.211  26.036  1.00  0.00     0.250 C 
ENDROOT
BRANCH   1   2
HETATM    2  N1  UNL     1      24.320   0.621  27.412  1.00  0.00    -0.068 N 
ATOM      3  H13 UNL     1      24.142   1.620  27.513  1.00  0.00     0.275 HD
ATOM      4  H12 UNL     1      23.522   0.266  27.940  1.00  0.00     0.275 HD
ATOM      5  H11 UNL     1      25.205   0.352  27.841  1.00  0.00     0.275 HD
ENDBRANCH   1   2
BRANCH   1   6
HETATM    6  C2  UNL     1      22.835   0.124  25.547  1.00  0.00     0.045 C 
BRANCH   6   7
HETATM    7  C3  UNL     1      22.655  -0.936  24.513  1.00  0.00    -0.012 A 
HETATM    8  C4  UNL     1      21.369  -0.886  23.739  1.00  0.00     0.005 A 
HETATM    9  C5  UNL     1      20.876  -2.151  24.427  1.00  0.00     0.001 A 
HETATM   10  C6  UNL     1      22.198  -2.232  25.153  1.00  0.00     0.005 A 
ENDBRANCH   6   7
ENDBRANCH   1   6
BRANCH   1  11
HETATM   11  C7  UNL     1      24.958   1.294  25.244  1.00  0.00     0.104 C 
HETATM   12  N2  UNL     1      26.076   1.862  25.528  1.00  0.00    -0.377 N 
HETATM   13  C8  UNL     1      26.471   2.861  24.575  1.00  0.00     0.140 C 
ATOM     14  H2  UNL     1      26.630   1.626  26.351  1.00  0.00     0.160 HD
HETATM   15  C9  UNL     1      25.232   3.057  23.733  1.00  0.00     0.140 C 
HETATM   16  N3  UNL     1      24.482   1.876  24.037  1.00  0.00    -0.377 N 
ATOM     17  H3  UNL     1      23.718   1.506  23.471  1.00  0.00     0.160 HD
ENDBRANCH   1  11
TORSDOF 4
ENDMDL
MODEL 3
REMARK VINA RESULT: -4.926374832      0.744      1.524
REMARK  4 active torsions:
REMARK  status: ('A' for Active; 'I' for Inactive)
REMARK    1  A    between atoms: N1_1  and  C1_5 
REMARK    2  A    between atoms: C1_5  and  C2_6 
REMARK    3  A    between atoms: C1_5  and  C7_11 
REMARK    4  A    between atoms: C2_6  and  C3_7 
ROOT
HETATM    1  C1  UNL     1      24.153   0.107  25.843  1.00  0.00     0.250 C 
ENDROOT
BRANCH   1   2
HETATM    2  N1  UNL     1      24.622   0.107  27.200  1.00  0.00    -0.068 N 
ATOM      3  H13 UNL     1      24.075   0.736  27.787  1.00  0.00     0.275 HD
ATOM      4  H12 UNL     1      24.409  -0.772  27.671  1.00  0.00     0.275 HD
ATOM      5  H11 UNL     1      25.618   0.324  27.243  1.00  0.00     0.275 HD
ENDBRANCH   1   2
BRANCH   1   6
HETATM    6  C2  UNL     1      22.669   0.417  25.779  1.00  0.00     0.045 C 
BRANCH   6   7
HETATM    7  C3  UNL     1      21.829  -0.778  26.086  1.00  0.00    -0.012 A 
HETATM    8  C4  UNL     1      22.320  -2.084  25.533  1.00  0.00     0.005 A 
HETATM    9  C5  UNL     1      21.165  -2.128  24.542  1.00  0.00     0.001 A 
HETATM   10  C6  UNL     1      20.640  -0.847  25.147  1.00  0.00     0.005 A 
ENDBRANCH   6   7
ENDBRANCH   1   6
BRANCH   1  11
HETATM   11  C7  UNL     1      24.885   1.223  25.139  1.00  0.00     0.104 C 
HETATM   12  N2  UNL     1      25.993   1.766  25.502  1.00  0.00    -0.377 N 
HETATM   13  C8  UNL     1      26.436   2.809  24.621  1.00  0.00     0.140 C 
ATOM     14  H2  UNL     1      26.508   1.482  26.335  1.00  0.00     0.160 HD
HETATM   15  C9  UNL     1      25.237   3.061  23.737  1.00  0.00     0.140 C 
HETATM   16  N3  UNL     1      24.466   1.872  23.945  1.00  0.00    -0.377 N 
ATOM     17  H3  UNL     1      23.725   1.539  23.328  1.00  0.00     0.160 HD
ENDBRANCH   1  11
TORSDOF 4
ENDMDL
MODEL 4
REMARK VINA RESULT: -4.883211808      1.242      1.710
REMARK  4 active torsions:
REMARK  status: ('A' for Active; 'I' for Inactive)
REMARK    1  A    between atoms: N1_1  and  C1_5 
REMARK    2  A    between atoms: C1_5  and  C2_6 
REMARK    3  A    between atoms: C1_5  and  C7_11 
REMARK    4  A    between atoms: C2_6  and  C3_7 
ROOT
HETATM    1  C1  UNL     1      23.923   1.468  26.749  1.00  0.00     0.250 C 
ENDROOT
BRANCH   1   2
HETATM    2  N1  UNL     1      22.587   1.994  26.704  1.00  0.00    -0.068 N 
ATOM      3  H13 UNL     1      22.238   2.052  25.748  1.00  0.00     0.275 HD
ATOM      4  H12 UNL     1      21.909   1.329  27.077  1.00  0.00     0.275 HD
ATOM      5  H11 UNL     1      22.532   2.895  27.180  1.00  0.00     0.275 HD
ENDBRANCH   1   2
BRANCH   1   6
HETATM    6  C2  UNL     1      23.935  -0.017  26.444  1.00  0.00     0.045 C 
BRANCH   6   7
HETATM    7  C3  UNL     1      22.584  -0.527  26.067  1.00  0.00    -0.012 A 
HETATM    8  C4  UNL     1      22.274  -1.934  26.489  1.00  0.00     0.005 A 
HETATM    9  C5  UNL     1      22.323  -2.405  25.042  1.00  0.00     0.001 A 
HETATM   10  C6  UNL     1      22.570  -0.977  24.619  1.00  0.00     0.005 A 
ENDBRANCH   6   7
ENDBRANCH   1   6
BRANCH   1  11
HETATM   11  C7  UNL     1      24.692   2.168  25.656  1.00  0.00     0.104 C 
HETATM   12  N2  UNL     1      24.282   2.413  24.462  1.00  0.00    -0.377 N 
HETATM   13  C8  UNL     1      25.250   3.095  23.651  1.00  0.00     0.140 C 
ATOM     14  H2  UNL     1      23.357   2.149  24.124  1.00  0.00     0.160 HD
HETATM   15  C9  UNL     1      26.521   3.001  24.462  1.00  0.00     0.140 C 
HETATM   16  N3  UNL     1      26.015   2.677  25.762  1.00  0.00    -0.377 N 
ATOM     17  H3  UNL     1      26.529   2.794  26.636  1.00  0.00     0.160 HD
ENDBRANCH   1  11
TORSDOF 4
ENDMDL
MODEL 5
REMARK VINA RESULT: -4.763865124      2.160      3.085
REMARK  4 active torsions:
REMARK  status: ('A' for Active; 'I' for Inactive)
REMARK    1  A    between atoms: N1_1  and  C1_5 
REMARK    2  A    between atoms: C1_5  and  C2_6 
REMARK    3  A    between atoms: C1_5  and  C7_11 
REMARK    4  A    between atoms: C2_6  and  C3_7 
ROOT
HETATM    1  C1  UNL     1      24.974   1.320  25.408  1.00  0.00     0.250 C 
ENDROOT
BRANCH   1   2
HETATM    2  N1  UNL     1      25.993   2.302  25.652  1.00  0.00    -0.068 N 
ATOM      3  H13 UNL     1      25.693   2.993  26.341  1.00  0.00     0.275 HD
ATOM      4  H12 UNL     1      26.782   1.906  26.163  1.00  0.00     0.275 HD
ATOM      5  H11 UNL     1      26.292   2.744  24.783  1.00  0.00     0.275 HD
ENDBRANCH   1   2
BRANCH   1   6
HETATM    6  C2  UNL     1      24.053   1.181  26.605  1.00  0.00     0.045 C 
BRANCH   6   7
HETATM    7  C3  UNL     1      23.980  -0.225  27.102  1.00  0.00    -0.012 A 
HETATM    8  C4  UNL     1      22.764  -1.003  26.690  1.00  0.00     0.005 A 
HETATM    9  C5  UNL     1      22.238  -0.983  28.118  1.00  0.00     0.001 A 
HETATM   10  C6  UNL     1      23.494  -0.258  28.537  1.00  0.00     0.005 A 
ENDBRANCH   6   7
ENDBRANCH   1   6
BRANCH   1  11
HETATM   11  C7  UNL     1      24.151   1.840  24.255  1.00  0.00     0.104 C 
HETATM   12  N2  UNL     1      24.562   2.579  23.287  1.00  0.00    -0.377 N 
HETATM   13  C8  UNL     1      23.535   2.910  22.341  1.00  0.00     0.140 C 
ATOM     14  H2  UNL     1      25.526   2.901  23.200  1.00  0.00     0.160 HD
HETATM   15  C9  UNL     1      22.263   2.476  23.031  1.00  0.00     0.140 C 
HETATM   16  N3  UNL     1      22.766   1.596  24.043  1.00  0.00    -0.377 N 
ATOM     17  H3  UNL     1      22.212   0.898  24.540  1.00  0.00     0.160 HD
ENDBRANCH   1  11
TORSDOF 4
ENDMDL
