MODEL 1
REMARK VINA RESULT: -5.025766927      0.000      0.000
REMARK  3 active torsions:
REMARK  status: ('A' for Active; 'I' for Inactive)
REMARK    1  A    between atoms: C3_3  and  N1_4 
REMARK    2  A    between atoms: N1_4  and  C4_6 
REMARK    3  A    between atoms: C4_6  and  C5_7 
ROOT
HETATM    1  C5  UNL     1      23.671   2.218  24.091  1.00  0.00     0.228 C 
HETATM    2  C6  UNL     1      23.890   0.910  24.767  1.00  0.00     0.266 C 
HETATM    3  N2  UNL     1      25.001   1.055  25.708  1.00  0.00    -0.071 N 
ATOM      4  H21 UNL     1      25.190   0.175  26.186  1.00  0.00     0.277 HD
ATOM      5  H22 UNL     1      24.727   1.625  26.508  1.00  0.00     0.277 HD
HETATM    6  C7  UNL     1      26.187   1.569  25.103  1.00  0.00     0.259 C 
HETATM    7  C8  UNL     1      25.860   2.872  24.383  1.00  0.00     0.260 C 
HETATM    8  N3  UNL     1      24.887   2.519  23.340  1.00  0.00    -0.066 N 
ATOM      9  H31 UNL     1      24.771   3.227  22.616  1.00  0.00     0.277 HD
ATOM     10  H32 UNL     1      25.192   1.774  22.715  1.00  0.00     0.277 HD
ENDROOT
BRANCH   1  11
HETATM   11  C4  UNL     1      22.427   2.272  23.255  1.00  0.00     0.149 C 
BRANCH  11  12
HETATM   12  N1  UNL     1      22.710   3.033  22.073  1.00  0.00    -0.415 N 
ATOM     13  H1  UNL     1      23.553   2.865  21.525  1.00  0.00     0.153 HD
BRANCH  12  14
HETATM   14  C3  UNL     1      21.782   4.017  21.699  1.00  0.00     0.076 C 
HETATM   15  C2  UNL     1      20.429   3.682  21.206  1.00  0.00     0.024 C 
HETATM   16  C1  UNL     1      20.522   4.974  20.362  1.00  0.00     0.004 C 
HETATM   17  C9  UNL     1      22.030   4.792  20.431  1.00  0.00     0.024 C 
ENDBRANCH  12  14
ENDBRANCH  11  12
ENDBRANCH   1  11
TORSDOF 3
ENDMDL
MODEL 2
REMARK VINA RESULT: -4.867985985      3.968      5.566
REMARK  3 active torsions:
REMARK  status: ('A' for Active; 'I' for Inactive)
REMARK    1  A    between atoms: C3_3  and  N1_4 
REMARK    2  A    between atoms: N1_4  and  C4_6 
REMARK    3  A    between atoms: C4_6  and  C5_7 
ROOT
HETATM    1  C5  UNL     1      22.709  -0.681  25.988  1.00  0.00     0.228 C 
HETATM    2  C6  UNL     1      22.392  -2.091  26.343  1.00  0.00     0.266 C 
HETATM    3  N2  UNL     1      22.024  -2.805  25.120  1.00  0.00    -0.071 N 
ATOM      4  H21 UNL     1      21.789  -3.777  25.324  1.00  0.00     0.277 HD
ATOM      5  H22 UNL     1      22.840  -2.952  24.526  1.00  0.00     0.277 HD
HETATM    6  C7  UNL     1      20.974  -2.170  24.392  1.00  0.00     0.259 C 
HETATM    7  C8  UNL     1      21.354  -0.718  24.125  1.00  0.00     0.260 C 
HETATM    8  N3  UNL     1      21.487  -0.091  25.447  1.00  0.00    -0.066 N 
ATOM      9  H31 UNL     1      21.481   0.928  25.432  1.00  0.00     0.277 HD
ATOM     10  H32 UNL     1      20.668  -0.195  26.047  1.00  0.00     0.277 HD
ENDROOT
BRANCH   1  11
HETATM   11  C4  UNL     1      23.306   0.113  27.111  1.00  0.00     0.149 C 
BRANCH  11  12
HETATM   12  N1  UNL     1      24.652   0.456  26.757  1.00  0.00    -0.415 N 
ATOM     13  H1  UNL     1      25.442   0.161  27.331  1.00  0.00     0.153 HD
BRANCH  12  14
HETATM   14  C3  UNL     1      24.842   1.213  25.592  1.00  0.00     0.076 C 
HETATM   15  C2  UNL     1      26.187   1.502  25.047  1.00  0.00     0.024 C 
HETATM   16  C1  UNL     1      25.583   2.824  24.520  1.00  0.00     0.004 C 
HETATM   17  C9  UNL     1      24.569   2.694  25.645  1.00  0.00     0.024 C 
ENDBRANCH  12  14
ENDBRANCH  11  12
ENDBRANCH   1  11
TORSDOF 3
ENDMDL
MODEL 3
REMARK VINA RESULT: -4.865582336      1.676      2.760
REMARK  3 active torsions:
REMARK  status: ('A' for Active; 'I' for Inactive)
REMARK    1  A    between atoms: C3_3  and  N1_4 
REMARK    2  A    between atoms: N1_4  and  C4_6 
REMARK    3  A    between atoms: C4_6  and  C5_7 
ROOT
HETATM    1  C5  UNL     1      21.871   2.308  22.616  1.00  0.00     0.228 C 
HETATM    2  C6  UNL     1      23.048   3.176  22.337  1.00  0.00     0.266 C 
HETATM    3  N2  UNL     1      24.252   2.491  22.808  1.00  0.00    -0.071 N 
ATOM      4  H21 UNL     1      25.082   3.060  22.643  1.00  0.00     0.277 HD
ATOM      5  H22 UNL     1      24.474   1.695  22.211  1.00  0.00     0.277 HD
HETATM    6  C7  UNL     1      24.173   2.092  24.176  1.00  0.00     0.259 C 
HETATM    7  C8  UNL     1      22.912   1.262  24.385  1.00  0.00     0.260 C 
HETATM    8  N3  UNL     1      21.789   2.154  24.066  1.00  0.00    -0.066 N 
ATOM      9  H31 UNL     1      20.884   1.829  24.405  1.00  0.00     0.277 HD
ATOM     10  H32 UNL     1      21.789   3.033  24.584  1.00  0.00     0.277 HD
ENDROOT
BRANCH   1  11
HETATM   11  C4  UNL     1      20.595   2.791  21.995  1.00  0.00     0.149 C 
BRANCH  11  12
HETATM   12  N1  UNL     1      20.923   3.665  20.907  1.00  0.00    -0.415 N 
ATOM     13  H1  UNL     1      21.630   3.409  20.218  1.00  0.00     0.153 HD
BRANCH  12  14
HETATM   14  C3  UNL     1      20.236   4.885  20.827  1.00  0.00     0.076 C 
HETATM   15  C2  UNL     1      20.837   6.162  21.271  1.00  0.00     0.024 C 
HETATM   16  C1  UNL     1      19.398   6.605  21.624  1.00  0.00     0.004 C 
HETATM   17  C9  UNL     1      19.085   5.124  21.769  1.00  0.00     0.024 C 
ENDBRANCH  12  14
ENDBRANCH  11  12
ENDBRANCH   1  11
TORSDOF 3
ENDMDL
MODEL 4
REMARK VINA RESULT: -4.863695455      3.108      5.703
REMARK  3 active torsions:
REMARK  status: ('A' for Active; 'I' for Inactive)
REMARK    1  A    between atoms: C3_3  and  N1_4 
REMARK    2  A    between atoms: N1_4  and  C4_6 
REMARK    3  A    between atoms: C4_6  and  C5_7 
ROOT
HETATM    1  C5  UNL     1      24.457   0.767  25.271  1.00  0.00     0.228 C 
HETATM    2  C6  UNL     1      23.554   1.558  24.391  1.00  0.00     0.266 C 
HETATM    3  N2  UNL     1      24.367   2.239  23.383  1.00  0.00    -0.071 N 
ATOM      4  H21 UNL     1      23.783   2.802  22.765  1.00  0.00     0.277 HD
ATOM      5  H22 UNL     1      24.736   1.574  22.705  1.00  0.00     0.277 HD
HETATM    6  C7  UNL     1      25.417   3.026  23.946  1.00  0.00     0.259 C 
HETATM    7  C8  UNL     1      26.253   2.155  24.877  1.00  0.00     0.260 C 
HETATM    8  N3  UNL     1      25.340   1.718  25.942  1.00  0.00    -0.066 N 
ATOM      9  H31 UNL     1      25.805   1.349  26.770  1.00  0.00     0.277 HD
ATOM     10  H32 UNL     1      24.855   2.478  26.419  1.00  0.00     0.277 HD
ENDROOT
BRANCH   1  11
HETATM   11  C4  UNL     1      23.741  -0.150  26.217  1.00  0.00     0.149 C 
BRANCH  11  12
HETATM   12  N1  UNL     1      24.203   0.122  27.546  1.00  0.00    -0.415 N 
ATOM     13  H1  UNL     1      25.199   0.169  27.761  1.00  0.00     0.153 HD
BRANCH  12  14
HETATM   14  C3  UNL     1      23.234   0.321  28.541  1.00  0.00     0.076 C 
HETATM   15  C2  UNL     1      21.786   0.355  28.239  1.00  0.00     0.024 C 
HETATM   16  C1  UNL     1      21.660   1.335  29.428  1.00  0.00     0.004 C 
HETATM   17  C9  UNL     1      23.115   1.688  29.163  1.00  0.00     0.024 C 
ENDBRANCH  12  14
ENDBRANCH  11  12
ENDBRANCH   1  11
TORSDOF 3
ENDMDL
MODEL 5
REMARK VINA RESULT: -4.767220550      3.304      5.059
REMARK  3 active torsions:
REMARK  status: ('A' for Active; 'I' for Inactive)
REMARK    1  A    between atoms: C3_3  and  N1_4 
REMARK    2  A    between atoms: N1_4  and  C4_6 
REMARK    3  A    between atoms: C4_6  and  C5_7 
ROOT
HETATM    1  C5  UNL     1      23.274  -0.149  26.480  1.00  0.00     0.228 C 
HETATM    2  C6  UNL     1      22.610  -1.472  26.635  1.00  0.00     0.266 C 
HETATM    3  N2  UNL     1      21.860  -1.470  27.892  1.00  0.00    -0.071 N 
ATOM      4  H21 UNL     1      21.397  -2.366  28.040  1.00  0.00     0.277 HD
ATOM      5  H22 UNL     1      21.040  -0.868  27.824  1.00  0.00     0.277 HD
HETATM    6  C7  UNL     1      22.657  -1.117  29.021  1.00  0.00     0.259 C 
HETATM    7  C8  UNL     1      23.346   0.216  28.753  1.00  0.00     0.260 C 
HETATM    8  N3  UNL     1      24.214  -0.010  27.589  1.00  0.00    -0.066 N 
ATOM      9  H31 UNL     1      24.927   0.705  27.451  1.00  0.00     0.277 HD
ATOM     10  H32 UNL     1      24.862  -0.791  27.692  1.00  0.00     0.277 HD
ENDROOT
BRANCH   1  11
HETATM   11  C4  UNL     1      23.904   0.065  25.136  1.00  0.00     0.149 C 
BRANCH  11  12
HETATM   12  N1  UNL     1      23.630   1.409  24.717  1.00  0.00    -0.415 N 
ATOM     13  H1  UNL     1      22.709   1.678  24.373  1.00  0.00     0.153 HD
BRANCH  12  14
HETATM   14  C3  UNL     1      24.678   2.338  24.797  1.00  0.00     0.076 C 
HETATM   15  C2  UNL     1      25.143   3.109  23.624  1.00  0.00     0.024 C 
HETATM   16  C1  UNL     1      26.539   3.092  24.288  1.00  0.00     0.004 C 
HETATM   17  C9  UNL     1      26.081   1.823  24.989  1.00  0.00     0.024 C 
ENDBRANCH  12  14
ENDBRANCH  11  12
ENDBRANCH   1  11
TORSDOF 3
ENDMDL
