MODEL 1
REMARK VINA RESULT: -6.983804870      0.000      0.000
REMARK  12 active torsions:
REMARK  status: ('A' for Active; 'I' for Inactive)
REMARK    1  A    between atoms: N2_4  and  N3_6 
REMARK    2  A    between atoms: N3_6  and  C1_8 
REMARK    3  A    between atoms: C1_8  and  C2_9 
REMARK    4  A    between atoms: C1_8  and  C6_17 
REMARK    5  A    between atoms: C2_9  and  C3_10 
REMARK    6  A    between atoms: C3_10  and  C4_11 
REMARK    7  A    between atoms: C4_11  and  N4_12 
REMARK    8  A    between atoms: C6_17  and  O1_18 
REMARK    9  A    between atoms: C6_17  and  C7_20 
REMARK   10  A    between atoms: N9_25  and  C8_26 
REMARK   11  A    between atoms: C8_26  and  C9_27 
REMARK   12  A    between atoms: C12_30  and  N10_31 
ROOT
HETATM    1  C6  UNL     1      57.339  17.426  20.677  1.00  0.00     0.212 C 
ENDROOT
BRANCH   1   2
HETATM    2  C1  UNL     1      56.506  16.161  20.756  1.00  0.00     0.137 C 
BRANCH   2   3
HETATM    3  N3  UNL     1      55.660  16.233  21.909  1.00  0.00    -0.315 N 
ATOM      4  H3  UNL     1      56.045  16.539  22.803  1.00  0.00     0.182 HD
BRANCH   3   5
HETATM    5  N2  UNL     1      54.317  15.888  21.817  1.00  0.00    -0.253 N 
HETATM    6  N1  UNL     1      53.540  15.853  22.820  1.00  0.00    -0.331 N 
ATOM      7  H12 UNL     1      53.936  16.092  23.729  1.00  0.00     0.178 HD
ATOM      8  H11 UNL     1      52.554  15.600  22.752  1.00  0.00     0.178 HD
ATOM      9  H2  UNL     1      53.938  15.652  20.900  1.00  0.00     0.207 HD
ENDBRANCH   3   5
ENDBRANCH   2   3
BRANCH   2  10
HETATM   10  C2  UNL     1      57.469  14.980  20.808  1.00  0.00     0.031 C 
BRANCH  10  11
HETATM   11  C3  UNL     1      56.687  13.766  21.263  1.00  0.00     0.022 C 
BRANCH  11  12
HETATM   12  C4  UNL     1      57.306  13.256  22.557  1.00  0.00     0.122 C 
BRANCH  12  13
HETATM   13  N4  UNL     1      56.339  12.479  23.278  1.00  0.00    -0.367 N 
HETATM   14  C5  UNL     1      55.600  13.036  24.154  1.00  0.00     0.196 C 
HETATM   15  N5  UNL     1      55.732  14.413  24.418  1.00  0.00    -0.067 NA
HETATM   16  N6  UNL     1      54.655  12.268  24.855  1.00  0.00    -0.067 NA
ATOM     17  H4  UNL     1      56.243  11.481  23.089  1.00  0.00     0.161 HD
ENDBRANCH  12  13
ENDBRANCH  11  12
ENDBRANCH  10  11
ENDBRANCH   2  10
ENDBRANCH   1   2
BRANCH   1  18
HETATM   18  O1  UNL     1      58.593  17.182  20.119  1.00  0.00    -0.386 OA
ATOM     19  H1  UNL     1      59.028  17.988  19.867  1.00  0.00     0.210 HD
ENDBRANCH   1  18
BRANCH   1  20
HETATM   20  C7  UNL     1      56.642  18.359  19.731  1.00  0.00     0.144 A 
HETATM   21  N7  UNL     1      56.920  19.648  19.490  1.00  0.00    -0.270 N 
HETATM   22  N8  UNL     1      56.069  20.075  18.601  1.00  0.00    -0.225 N 
ATOM     23  H7  UNL     1      57.663  20.195  19.925  1.00  0.00     0.190 HD
HETATM   24  N9  UNL     1      55.220  19.101  18.235  1.00  0.00    -0.218 N 
ATOM     25  H8  UNL     1      56.051  21.025  18.231  1.00  0.00     0.210 HD
HETATM   26  N11 UNL     1      55.595  18.060  18.944  1.00  0.00    -0.268 N 
ATOM     27  H11 UNL     1      55.148  17.144  18.903  1.00  0.00     0.190 HD
BRANCH  24  28
HETATM   28  C8  UNL     1      54.179  19.262  17.267  1.00  0.00     0.176 C 
BRANCH  28  29
HETATM   29  C9  UNL     1      54.477  18.436  16.040  1.00  0.00     0.009 C 
HETATM   30  C10 UNL     1      53.212  17.594  15.802  1.00  0.00     0.008 C 
HETATM   31  C11 UNL     1      52.317  18.598  15.109  1.00  0.00     0.033 C 
HETATM   32  C12 UNL     1      53.206  19.530  14.354  1.00  0.00     0.184 C 
HETATM   33  C13 UNL     1      54.628  19.246  14.794  1.00  0.00     0.039 C 
BRANCH  32  34
HETATM   34  N10 UNL     1      53.126  19.261  12.932  1.00  0.00    -0.075 N 
ATOM     35 3H10 UNL     1      53.818  18.572  12.636  1.00  0.00     0.274 HD
ATOM     36 2H10 UNL     1      52.282  18.741  12.690  1.00  0.00     0.274 HD
ATOM     37 1H10 UNL     1      53.203  20.129  12.401  1.00  0.00     0.274 HD
ENDBRANCH  32  34
ENDBRANCH  28  29
ENDBRANCH  24  28
ENDBRANCH   1  20
TORSDOF 12
ENDMDL
MODEL 2
REMARK VINA RESULT: -6.975779001      4.284      6.277
REMARK  12 active torsions:
REMARK  status: ('A' for Active; 'I' for Inactive)
REMARK    1  A    between atoms: N2_4  and  N3_6 
REMARK    2  A    between atoms: N3_6  and  C1_8 
REMARK    3  A    between atoms: C1_8  and  C2_9 
REMARK    4  A    between atoms: C1_8  and  C6_17 
REMARK    5  A    between atoms: C2_9  and  C3_10 
REMARK    6  A    between atoms: C3_10  and  C4_11 
REMARK    7  A    between atoms: C4_11  and  N4_12 
REMARK    8  A    between atoms: C6_17  and  O1_18 
REMARK    9  A    between atoms: C6_17  and  C7_20 
REMARK   10  A    between atoms: N9_25  and  C8_26 
REMARK   11  A    between atoms: C8_26  and  C9_27 
REMARK   12  A    between atoms: C12_30  and  N10_31 
ROOT
HETATM    1  C6  UNL     1      55.226  16.647  19.289  1.00  0.00     0.212 C 
ENDROOT
BRANCH   1   2
HETATM    2  C1  UNL     1      56.494  16.829  20.102  1.00  0.00     0.137 C 
BRANCH   2   3
HETATM    3  N3  UNL     1      56.247  16.415  21.450  1.00  0.00    -0.315 N 
ATOM      4  H3  UNL     1      57.027  16.306  22.099  1.00  0.00     0.182 HD
BRANCH   3   5
HETATM    5  N2  UNL     1      54.950  16.159  21.880  1.00  0.00    -0.253 N 
HETATM    6  N1  UNL     1      54.632  15.128  22.548  1.00  0.00    -0.331 N 
ATOM      7  H12 UNL     1      55.375  14.465  22.771  1.00  0.00     0.178 HD
ATOM      8  H11 UNL     1      53.680  14.940  22.863  1.00  0.00     0.178 HD
ATOM      9  H2  UNL     1      54.220  16.832  21.647  1.00  0.00     0.207 HD
ENDBRANCH   3   5
ENDBRANCH   2   3
BRANCH   2  10
HETATM   10  C2  UNL     1      56.895  18.297  20.004  1.00  0.00     0.031 C 
BRANCH  10  11
HETATM   11  C3  UNL     1      58.263  18.446  20.635  1.00  0.00     0.022 C 
BRANCH  11  12
HETATM   12  C4  UNL     1      58.194  19.561  21.668  1.00  0.00     0.122 C 
BRANCH  12  13
HETATM   13  N4  UNL     1      57.499  20.687  21.112  1.00  0.00    -0.367 N 
HETATM   14  C5  UNL     1      57.901  21.870  21.361  1.00  0.00     0.196 C 
HETATM   15  N5  UNL     1      59.026  22.076  22.184  1.00  0.00    -0.067 NA
HETATM   16  N6  UNL     1      57.215  22.967  20.813  1.00  0.00    -0.067 NA
ATOM     17  H4  UNL     1      56.683  20.540  20.518  1.00  0.00     0.161 HD
ENDBRANCH  12  13
ENDBRANCH  11  12
ENDBRANCH  10  11
ENDBRANCH   2  10
ENDBRANCH   1   2
BRANCH   1  18
HETATM   18  O1  UNL     1      55.145  17.569  18.248  1.00  0.00    -0.386 OA
ATOM     19  H1  UNL     1      54.243  17.771  18.027  1.00  0.00     0.210 HD
ENDBRANCH   1  18
BRANCH   1  20
HETATM   20  C7  UNL     1      55.304  15.297  18.640  1.00  0.00     0.144 A 
HETATM   21  N7  UNL     1      55.481  14.108  19.231  1.00  0.00    -0.270 N 
HETATM   22  N8  UNL     1      55.488  13.200  18.296  1.00  0.00    -0.225 N 
ATOM     23  H7  UNL     1      55.590  13.942  20.232  1.00  0.00     0.190 HD
HETATM   24  N9  UNL     1      55.320  13.751  17.084  1.00  0.00    -0.218 N 
ATOM     25  H8  UNL     1      55.605  12.201  18.465  1.00  0.00     0.210 HD
HETATM   26  N11 UNL     1      55.211  15.039  17.325  1.00  0.00    -0.268 N 
ATOM     27  H11 UNL     1      55.073  15.749  16.607  1.00  0.00     0.190 HD
BRANCH  24  28
HETATM   28  C8  UNL     1      55.273  13.010  15.861  1.00  0.00     0.176 C 
BRANCH  28  29
HETATM   29  C9  UNL     1      56.650  12.505  15.506  1.00  0.00     0.009 C 
HETATM   30  C10 UNL     1      56.420  11.137  14.841  1.00  0.00     0.008 C 
HETATM   31  C11 UNL     1      56.032  11.553  13.439  1.00  0.00     0.033 C 
HETATM   32  C12 UNL     1      56.737  12.838  13.152  1.00  0.00     0.184 C 
HETATM   33  C13 UNL     1      57.337  13.320  14.458  1.00  0.00     0.039 C 
BRANCH  32  34
HETATM   34  N10 UNL     1      57.829  12.617  12.225  1.00  0.00    -0.075 N 
ATOM     35 3H10 UNL     1      58.686  13.076  12.531  1.00  0.00     0.274 HD
ATOM     36 2H10 UNL     1      58.158  11.651  12.248  1.00  0.00     0.274 HD
ATOM     37 1H10 UNL     1      57.559  12.904  11.284  1.00  0.00     0.274 HD
ENDBRANCH  32  34
ENDBRANCH  28  29
ENDBRANCH  24  28
ENDBRANCH   1  20
TORSDOF 12
ENDMDL
MODEL 3
REMARK VINA RESULT: -6.928617159      4.168      6.688
REMARK  12 active torsions:
REMARK  status: ('A' for Active; 'I' for Inactive)
REMARK    1  A    between atoms: N2_4  and  N3_6 
REMARK    2  A    between atoms: N3_6  and  C1_8 
REMARK    3  A    between atoms: C1_8  and  C2_9 
REMARK    4  A    between atoms: C1_8  and  C6_17 
REMARK    5  A    between atoms: C2_9  and  C3_10 
REMARK    6  A    between atoms: C3_10  and  C4_11 
REMARK    7  A    between atoms: C4_11  and  N4_12 
REMARK    8  A    between atoms: C6_17  and  O1_18 
REMARK    9  A    between atoms: C6_17  and  C7_20 
REMARK   10  A    between atoms: N9_25  and  C8_26 
REMARK   11  A    between atoms: C8_26  and  C9_27 
REMARK   12  A    between atoms: C12_30  and  N10_31 
ROOT
HETATM    1  C6  UNL     1      55.811  16.292  19.934  1.00  0.00     0.212 C 
ENDROOT
BRANCH   1   2
HETATM    2  C1  UNL     1      55.617  17.499  19.036  1.00  0.00     0.137 C 
BRANCH   2   3
HETATM    3  N3  UNL     1      56.189  18.649  19.670  1.00  0.00    -0.315 N 
ATOM      4  H3  UNL     1      56.140  19.558  19.211  1.00  0.00     0.182 HD
BRANCH   3   5
HETATM    5  N2  UNL     1      56.809  18.532  20.908  1.00  0.00    -0.253 N 
HETATM    6  N1  UNL     1      57.160  19.533  21.605  1.00  0.00    -0.331 N 
ATOM      7  H12 UNL     1      56.972  20.460  21.223  1.00  0.00     0.178 HD
ATOM      8  H11 UNL     1      57.616  19.447  22.513  1.00  0.00     0.178 HD
ATOM      9  H2  UNL     1      56.991  17.597  21.274  1.00  0.00     0.207 HD
ENDBRANCH   3   5
ENDBRANCH   2   3
BRANCH   2  10
HETATM   10  C2  UNL     1      54.120  17.650  18.787  1.00  0.00     0.031 C 
BRANCH  10  11
HETATM   11  C3  UNL     1      53.909  18.924  17.995  1.00  0.00     0.022 C 
BRANCH  11  12
HETATM   12  C4  UNL     1      54.537  18.740  16.620  1.00  0.00     0.122 C 
BRANCH  12  13
HETATM   13  N4  UNL     1      53.751  17.816  15.854  1.00  0.00    -0.367 N 
HETATM   14  C5  UNL     1      54.324  16.927  15.144  1.00  0.00     0.196 C 
HETATM   15  N5  UNL     1      55.731  16.851  15.109  1.00  0.00    -0.067 NA
HETATM   16  N6  UNL     1      53.548  16.027  14.397  1.00  0.00    -0.067 NA
ATOM     17  H4  UNL     1      52.732  17.872  15.877  1.00  0.00     0.161 HD
ENDBRANCH  12  13
ENDBRANCH  11  12
ENDBRANCH  10  11
ENDBRANCH   2  10
ENDBRANCH   1   2
BRANCH   1  18
HETATM   18  O1  UNL     1      54.825  16.219  20.916  1.00  0.00    -0.386 OA
ATOM     19  H1  UNL     1      54.396  15.370  20.920  1.00  0.00     0.210 HD
ENDBRANCH   1  18
BRANCH   1  20
HETATM   20  C7  UNL     1      55.636  15.071  19.081  1.00  0.00     0.144 A 
HETATM   21  N7  UNL     1      55.448  13.806  19.482  1.00  0.00    -0.270 N 
HETATM   22  N8  UNL     1      55.346  13.066  18.415  1.00  0.00    -0.225 N 
ATOM     23  H7  UNL     1      55.395  13.482  20.448  1.00  0.00     0.190 HD
HETATM   24  N9  UNL     1      55.461  13.804  17.299  1.00  0.00    -0.218 N 
ATOM     25  H8  UNL     1      55.196  12.057  18.426  1.00  0.00     0.210 HD
HETATM   26  N11 UNL     1      55.639  15.030  17.738  1.00  0.00    -0.268 N 
ATOM     27  H11 UNL     1      55.763  15.844  17.137  1.00  0.00     0.190 HD
BRANCH  24  28
HETATM   28  C8  UNL     1      55.381  13.276  15.972  1.00  0.00     0.176 C 
BRANCH  28  29
HETATM   29  C9  UNL     1      56.704  12.674  15.571  1.00  0.00     0.009 C 
HETATM   30  C10 UNL     1      56.358  11.302  14.967  1.00  0.00     0.008 C 
HETATM   31  C11 UNL     1      55.928  11.695  13.571  1.00  0.00     0.033 C 
HETATM   32  C12 UNL     1      56.695  12.923  13.206  1.00  0.00     0.184 C 
HETATM   33  C13 UNL     1      57.388  13.409  14.464  1.00  0.00     0.039 C 
BRANCH  32  34
HETATM   34  N10 UNL     1      57.725  12.603  12.236  1.00  0.00    -0.075 N 
ATOM     35 3H10 UNL     1      58.637  12.480  12.676  1.00  0.00     0.274 HD
ATOM     36 2H10 UNL     1      57.611  11.663  11.857  1.00  0.00     0.274 HD
ATOM     37 1H10 UNL     1      57.751  13.309  11.500  1.00  0.00     0.274 HD
ENDBRANCH  32  34
ENDBRANCH  28  29
ENDBRANCH  24  28
ENDBRANCH   1  20
TORSDOF 12
ENDMDL
MODEL 4
REMARK VINA RESULT: -6.873131413      4.198      6.152
REMARK  12 active torsions:
REMARK  status: ('A' for Active; 'I' for Inactive)
REMARK    1  A    between atoms: N2_4  and  N3_6 
REMARK    2  A    between atoms: N3_6  and  C1_8 
REMARK    3  A    between atoms: C1_8  and  C2_9 
REMARK    4  A    between atoms: C1_8  and  C6_17 
REMARK    5  A    between atoms: C2_9  and  C3_10 
REMARK    6  A    between atoms: C3_10  and  C4_11 
REMARK    7  A    between atoms: C4_11  and  N4_12 
REMARK    8  A    between atoms: C6_17  and  O1_18 
REMARK    9  A    between atoms: C6_17  and  C7_20 
REMARK   10  A    between atoms: N9_25  and  C8_26 
REMARK   11  A    between atoms: C8_26  and  C9_27 
REMARK   12  A    between atoms: C12_30  and  N10_31 
ROOT
HETATM    1  C6  UNL     1      54.877  17.156  19.262  1.00  0.00     0.212 C 
ENDROOT
BRANCH   1   2
HETATM    2  C1  UNL     1      56.267  17.070  19.863  1.00  0.00     0.137 C 
BRANCH   2   3
HETATM    3  N3  UNL     1      56.166  16.573  21.201  1.00  0.00    -0.315 N 
ATOM      4  H3  UNL     1      56.998  16.525  21.790  1.00  0.00     0.182 HD
BRANCH   3   5
HETATM    5  N2  UNL     1      54.940  16.153  21.704  1.00  0.00    -0.253 N 
HETATM    6  N1  UNL     1      54.801  15.102  22.403  1.00  0.00    -0.331 N 
ATOM      7  H12 UNL     1      55.637  14.552  22.595  1.00  0.00     0.178 HD
ATOM      8  H11 UNL     1      53.901  14.794  22.772  1.00  0.00     0.178 HD
ATOM      9  H2  UNL     1      54.114  16.715  21.501  1.00  0.00     0.207 HD
ENDBRANCH   3   5
ENDBRANCH   2   3
BRANCH   2  10
HETATM   10  C2  UNL     1      56.881  18.465  19.800  1.00  0.00     0.031 C 
BRANCH  10  11
HETATM   11  C3  UNL     1      58.210  18.418  20.524  1.00  0.00     0.022 C 
BRANCH  11  12
HETATM   12  C4  UNL     1      58.243  19.554  21.536  1.00  0.00     0.122 C 
BRANCH  12  13
HETATM   13  N4  UNL     1      57.482  20.664  21.037  1.00  0.00    -0.367 N 
HETATM   14  C5  UNL     1      57.818  21.855  21.338  1.00  0.00     0.196 C 
HETATM   15  N5  UNL     1      58.936  22.085  22.164  1.00  0.00    -0.067 NA
HETATM   16  N6  UNL     1      57.068  22.935  20.845  1.00  0.00    -0.067 NA
ATOM     17  H4  UNL     1      56.671  20.498  20.440  1.00  0.00     0.161 HD
ENDBRANCH  12  13
ENDBRANCH  11  12
ENDBRANCH  10  11
ENDBRANCH   2  10
ENDBRANCH   1   2
BRANCH   1  18
HETATM   18  O1  UNL     1      54.517  18.474  18.983  1.00  0.00    -0.386 OA
ATOM     19  H1  UNL     1      54.956  18.800  18.206  1.00  0.00     0.210 HD
ENDBRANCH   1  18
BRANCH   1  20
HETATM   20  C7  UNL     1      54.920  16.451  17.938  1.00  0.00     0.144 A 
HETATM   21  N7  UNL     1      54.913  16.996  16.714  1.00  0.00    -0.270 N 
HETATM   22  N8  UNL     1      54.962  16.023  15.850  1.00  0.00    -0.225 N 
ATOM     23  H7  UNL     1      54.875  17.992  16.498  1.00  0.00     0.190 HD
HETATM   24  N9  UNL     1      55.002  14.830  16.464  1.00  0.00    -0.218 N 
ATOM     25  H8  UNL     1      54.969  16.151  14.838  1.00  0.00     0.210 HD
HETATM   26  N11 UNL     1      54.975  15.123  17.745  1.00  0.00    -0.268 N 
ATOM     27  H11 UNL     1      54.992  14.432  18.494  1.00  0.00     0.190 HD
BRANCH  24  28
HETATM   28  C8  UNL     1      55.070  13.573  15.782  1.00  0.00     0.176 C 
BRANCH  28  29
HETATM   29  C9  UNL     1      56.502  13.109  15.689  1.00  0.00     0.009 C 
HETATM   30  C10 UNL     1      56.446  11.584  15.884  1.00  0.00     0.008 C 
HETATM   31  C11 UNL     1      56.036  11.126  14.502  1.00  0.00     0.033 C 
HETATM   32  C12 UNL     1      56.588  12.115  13.530  1.00  0.00     0.184 C 
HETATM   33  C13 UNL     1      57.105  13.292  14.334  1.00  0.00     0.039 C 
BRANCH  32  34
HETATM   34  N10 UNL     1      57.714  11.545  12.816  1.00  0.00    -0.075 N 
ATOM     35 3H10 UNL     1      58.521  11.409  13.425  1.00  0.00     0.274 HD
ATOM     36 2H10 UNL     1      57.550  10.571  12.562  1.00  0.00     0.274 HD
ATOM     37 1H10 UNL     1      57.945  12.117  12.003  1.00  0.00     0.274 HD
ENDBRANCH  32  34
ENDBRANCH  28  29
ENDBRANCH  24  28
ENDBRANCH   1  20
TORSDOF 12
ENDMDL
MODEL 5
REMARK VINA RESULT: -6.857420476      4.830      7.892
REMARK  12 active torsions:
REMARK  status: ('A' for Active; 'I' for Inactive)
REMARK    1  A    between atoms: N2_4  and  N3_6 
REMARK    2  A    between atoms: N3_6  and  C1_8 
REMARK    3  A    between atoms: C1_8  and  C2_9 
REMARK    4  A    between atoms: C1_8  and  C6_17 
REMARK    5  A    between atoms: C2_9  and  C3_10 
REMARK    6  A    between atoms: C3_10  and  C4_11 
REMARK    7  A    between atoms: C4_11  and  N4_12 
REMARK    8  A    between atoms: C6_17  and  O1_18 
REMARK    9  A    between atoms: C6_17  and  C7_20 
REMARK   10  A    between atoms: N9_25  and  C8_26 
REMARK   11  A    between atoms: C8_26  and  C9_27 
REMARK   12  A    between atoms: C12_30  and  N10_31 
ROOT
HETATM    1  C6  UNL     1      52.059  17.497  18.297  1.00  0.00     0.212 C 
ENDROOT
BRANCH   1   2
HETATM    2  C1  UNL     1      53.218  18.376  18.728  1.00  0.00     0.137 C 
BRANCH   2   3
HETATM    3  N3  UNL     1      53.165  19.607  17.999  1.00  0.00    -0.315 N 
ATOM      4  H3  UNL     1      53.602  19.670  17.079  1.00  0.00     0.182 HD
BRANCH   3   5
HETATM    5  N2  UNL     1      52.523  20.715  18.537  1.00  0.00    -0.253 N 
HETATM    6  N1  UNL     1      53.085  21.846  18.669  1.00  0.00    -0.331 N 
ATOM      7  H12 UNL     1      54.054  21.927  18.361  1.00  0.00     0.178 HD
ATOM      8  H11 UNL     1      52.613  22.659  19.064  1.00  0.00     0.178 HD
ATOM      9  H2  UNL     1      51.554  20.615  18.841  1.00  0.00     0.207 HD
ENDBRANCH   3   5
ENDBRANCH   2   3
BRANCH   2  10
HETATM   10  C2  UNL     1      54.504  17.597  18.473  1.00  0.00     0.031 C 
BRANCH  10  11
HETATM   11  C3  UNL     1      55.663  18.560  18.615  1.00  0.00     0.022 C 
BRANCH  11  12
HETATM   12  C4  UNL     1      56.571  18.055  19.727  1.00  0.00     0.122 C 
BRANCH  12  13
HETATM   13  N4  UNL     1      56.901  19.140  20.607  1.00  0.00    -0.367 N 
HETATM   14  C5  UNL     1      58.118  19.369  20.907  1.00  0.00     0.196 C 
HETATM   15  N5  UNL     1      59.141  18.557  20.378  1.00  0.00    -0.067 NA
HETATM   16  N6  UNL     1      58.433  20.434  21.768  1.00  0.00    -0.067 NA
ATOM     17  H4  UNL     1      56.162  19.728  20.992  1.00  0.00     0.161 HD
ENDBRANCH  12  13
ENDBRANCH  11  12
ENDBRANCH  10  11
ENDBRANCH   2  10
ENDBRANCH   1   2
BRANCH   1  18
HETATM   18  O1  UNL     1      52.501  16.292  17.755  1.00  0.00    -0.386 OA
ATOM     19  H1  UNL     1      53.447  16.273  17.667  1.00  0.00     0.210 HD
ENDBRANCH   1  18
BRANCH   1  20
HETATM   20  C7  UNL     1      51.290  17.136  19.534  1.00  0.00     0.144 A 
HETATM   21  N7  UNL     1      50.127  16.477  19.618  1.00  0.00    -0.270 N 
HETATM   22  N8  UNL     1      49.818  16.381  20.880  1.00  0.00    -0.225 N 
ATOM     23  H7  UNL     1      49.580  16.116  18.835  1.00  0.00     0.190 HD
HETATM   24  N9  UNL     1      50.750  16.962  21.652  1.00  0.00    -0.218 N 
ATOM     25  H8  UNL     1      48.979  15.923  21.234  1.00  0.00     0.210 HD
HETATM   26  N11 UNL     1      51.641  17.417  20.800  1.00  0.00    -0.268 N 
ATOM     27  H11 UNL     1      52.488  17.919  21.065  1.00  0.00     0.190 HD
BRANCH  24  28
HETATM   28  C8  UNL     1      50.697  17.010  23.082  1.00  0.00     0.176 C 
BRANCH  28  29
HETATM   29  C9  UNL     1      49.303  17.363  23.539  1.00  0.00     0.009 C 
HETATM   30  C10 UNL     1      49.042  16.471  24.765  1.00  0.00     0.008 C 
HETATM   31  C11 UNL     1      49.768  17.239  25.847  1.00  0.00     0.033 C 
HETATM   32  C12 UNL     1      49.708  18.684  25.474  1.00  0.00     0.184 C 
HETATM   33  C13 UNL     1      49.176  18.759  24.057  1.00  0.00     0.039 C 
BRANCH  32  34
HETATM   34  N10 UNL     1      48.771  19.386  26.329  1.00  0.00    -0.075 N 
ATOM     35 3H10 UNL     1      47.988  19.771  25.801  1.00  0.00     0.274 HD
ATOM     36 2H10 UNL     1      48.249  18.746  26.929  1.00  0.00     0.274 HD
ATOM     37 1H10 UNL     1      49.254  20.104  26.870  1.00  0.00     0.274 HD
ENDBRANCH  32  34
ENDBRANCH  28  29
ENDBRANCH  24  28
ENDBRANCH   1  20
TORSDOF 12
ENDMDL
