MODEL 1
REMARK VINA RESULT: -6.736226670      0.000      0.000
REMARK  15 active torsions:
REMARK  status: ('A' for Active; 'I' for Inactive)
REMARK    1  A    between atoms: C5_7  and  C6_8 
REMARK    2  A    between atoms: C6_8  and  O3_9 
REMARK    3  A    between atoms: C7_11  and  O4_12 
REMARK    4  A    between atoms: C8_14  and  O5_15 
REMARK    5  A    between atoms: N1_17  and  C9_18 
REMARK    6  A    between atoms: C9_18  and  C10_19 
REMARK    7  A    between atoms: C10_19  and  N2_20 
REMARK    8  A    between atoms: N2_20  and  C11_23 
REMARK    9  A    between atoms: C11_23  and  C12_24 
REMARK   10  A    between atoms: C12_24  and  N3_25 
REMARK   11  A    between atoms: N3_25  and  C13_28 
REMARK   12  A    between atoms: C13_28  and  C14_29 
REMARK   13  A    between atoms: C14_29  and  C15_30 
REMARK   14  A    between atoms: C15_30  and  C16_31 
REMARK   15  A    between atoms: C16_31  and  O6_32 
ROOT
HETATM    1  O1  UNL     1      55.291  18.968  17.848  1.00  0.00    -0.268 OA
HETATM    2  C1  UNL     1      55.772  18.135  18.686  1.00  0.00     0.253 C 
HETATM    3  C2  UNL     1      56.871  18.714  19.561  1.00  0.00     0.141 C 
HETATM    4  C3  UNL     1      57.295  17.651  20.376  1.00  0.00    -0.043 C 
HETATM    5  C4  UNL     1      57.546  16.753  20.966  1.00  0.00     0.059 C 
HETATM    6  O2  UNL     1      57.748  15.602  21.596  1.00  0.00    -0.293 OA
HETATM    7  C5  UNL     1      56.949  14.466  21.107  1.00  0.00     0.196 C 
HETATM    8  C7  UNL     1      55.683  15.078  20.518  1.00  0.00     0.199 C 
HETATM    9  C8  UNL     1      55.916  15.596  19.149  1.00  0.00     0.254 C 
HETATM   10  N1  UNL     1      55.278  16.813  18.737  1.00  0.00    -0.318 N 
ENDROOT
BRANCH  10  11
HETATM   11  C9  UNL     1      53.890  16.686  18.223  1.00  0.00     0.156 C 
BRANCH  11  12
HETATM   12  C10 UNL     1      52.969  17.711  18.773  1.00  0.00     0.252 C 
BRANCH  12  13
HETATM   13  N2  UNL     1      52.492  17.312  20.108  1.00  0.00    -0.072 N 
ATOM     14  H22 UNL     1      52.787  16.365  20.346  1.00  0.00     0.277 HD
ATOM     15  H21 UNL     1      52.979  17.817  20.849  1.00  0.00     0.277 HD
BRANCH  13  16
HETATM   16  C11 UNL     1      51.088  17.462  20.210  1.00  0.00     0.259 C 
BRANCH  16  17
HETATM   17  C12 UNL     1      50.605  17.303  21.614  1.00  0.00     0.259 C 
BRANCH  17  18
HETATM   18  N3  UNL     1      51.678  16.907  22.524  1.00  0.00    -0.074 N 
ATOM     19  H32 UNL     1      52.323  16.220  22.134  1.00  0.00     0.277 HD
ATOM     20  H31 UNL     1      52.374  17.634  22.690  1.00  0.00     0.277 HD
BRANCH  18  21
HETATM   21  C13 UNL     1      50.971  16.452  23.750  1.00  0.00     0.232 C 
BRANCH  21  22
HETATM   22  C14 UNL     1      50.465  17.643  24.501  1.00  0.00     0.029 C 
BRANCH  22  23
HETATM   23  C15 UNL     1      49.180  17.298  25.208  1.00  0.00     0.028 C 
BRANCH  23  24
HETATM   24  C16 UNL     1      49.075  15.817  25.408  1.00  0.00     0.164 C 
BRANCH  24  25
HETATM   25  O6  UNL     1      47.787  15.346  25.062  1.00  0.00    -0.401 OA
ATOM     26  H6  UNL     1      47.113  15.951  25.349  1.00  0.00     0.209 HD
ENDBRANCH  24  25
ENDBRANCH  23  24
ENDBRANCH  22  23
ENDBRANCH  21  22
ENDBRANCH  18  21
ENDBRANCH  17  18
ENDBRANCH  16  17
ENDBRANCH  13  16
ENDBRANCH  12  13
ENDBRANCH  11  12
ENDBRANCH  10  11
BRANCH   9  27
HETATM   27  O5  UNL     1      55.409  14.528  18.286  1.00  0.00    -0.374 OA
ATOM     28  H5  UNL     1      55.895  14.644  17.478  1.00  0.00     0.212 HD
ENDBRANCH   9  27
BRANCH   8  29
HETATM   29  O4  UNL     1      55.170  15.983  21.425  1.00  0.00    -0.388 OA
ATOM     30  H4  UNL     1      54.369  16.348  21.068  1.00  0.00     0.210 HD
ENDBRANCH   8  29
BRANCH   7  31
HETATM   31  C6  UNL     1      56.567  13.688  22.336  1.00  0.00     0.200 C 
BRANCH  31  32
HETATM   32  O3  UNL     1      57.642  12.926  22.775  1.00  0.00    -0.398 OA
ATOM     33  H3  UNL     1      57.809  13.092  23.695  1.00  0.00     0.209 HD
ENDBRANCH  31  32
ENDBRANCH   7  31
TORSDOF 15
ENDMDL
MODEL 2
REMARK VINA RESULT: -6.673795144      4.587      7.419
REMARK  15 active torsions:
REMARK  status: ('A' for Active; 'I' for Inactive)
REMARK    1  A    between atoms: C5_7  and  C6_8 
REMARK    2  A    between atoms: C6_8  and  O3_9 
REMARK    3  A    between atoms: C7_11  and  O4_12 
REMARK    4  A    between atoms: C8_14  and  O5_15 
REMARK    5  A    between atoms: N1_17  and  C9_18 
REMARK    6  A    between atoms: C9_18  and  C10_19 
REMARK    7  A    between atoms: C10_19  and  N2_20 
REMARK    8  A    between atoms: N2_20  and  C11_23 
REMARK    9  A    between atoms: C11_23  and  C12_24 
REMARK   10  A    between atoms: C12_24  and  N3_25 
REMARK   11  A    between atoms: N3_25  and  C13_28 
REMARK   12  A    between atoms: C13_28  and  C14_29 
REMARK   13  A    between atoms: C14_29  and  C15_30 
REMARK   14  A    between atoms: C15_30  and  C16_31 
REMARK   15  A    between atoms: C16_31  and  O6_32 
ROOT
HETATM    1  O1  UNL     1      53.430  11.401  17.448  1.00  0.00    -0.268 OA
HETATM    2  C1  UNL     1      54.159  11.535  16.409  1.00  0.00     0.253 C 
HETATM    3  C2  UNL     1      53.649  10.765  15.203  1.00  0.00     0.141 C 
HETATM    4  C3  UNL     1      54.591  11.000  14.188  1.00  0.00    -0.043 C 
HETATM    5  C4  UNL     1      55.386  11.254  13.465  1.00  0.00     0.059 C 
HETATM    6  O2  UNL     1      56.405  11.634  12.704  1.00  0.00    -0.293 OA
HETATM    7  C5  UNL     1      57.432  12.443  13.382  1.00  0.00     0.196 C 
HETATM    8  C7  UNL     1      56.709  13.156  14.518  1.00  0.00     0.199 C 
HETATM    9  C8  UNL     1      56.531  12.268  15.692  1.00  0.00     0.254 C 
HETATM   10  N1  UNL     1      55.318  12.340  16.454  1.00  0.00    -0.318 N 
ENDROOT
BRANCH  10  11
HETATM   11  C9  UNL     1      55.264  13.387  17.506  1.00  0.00     0.156 C 
BRANCH  11  12
HETATM   12  C10 UNL     1      54.639  14.650  17.041  1.00  0.00     0.252 C 
BRANCH  12  13
HETATM   13  N2  UNL     1      54.546  15.617  18.149  1.00  0.00    -0.072 N 
ATOM     14  H22 UNL     1      54.356  16.560  17.811  1.00  0.00     0.277 HD
ATOM     15  H21 UNL     1      53.700  15.476  18.702  1.00  0.00     0.277 HD
BRANCH  13  16
HETATM   16  C11 UNL     1      55.709  15.576  18.955  1.00  0.00     0.259 C 
BRANCH  16  17
HETATM   17  C12 UNL     1      55.804  16.754  19.868  1.00  0.00     0.259 C 
BRANCH  17  18
HETATM   18  N3  UNL     1      56.022  16.358  21.257  1.00  0.00    -0.074 N 
ATOM     19  H32 UNL     1      56.018  17.136  21.918  1.00  0.00     0.277 HD
ATOM     20  H31 UNL     1      55.242  15.851  21.674  1.00  0.00     0.277 HD
BRANCH  18  21
HETATM   21  C13 UNL     1      57.296  15.594  21.225  1.00  0.00     0.232 C 
BRANCH  21  22
HETATM   22  C14 UNL     1      57.124  14.313  21.981  1.00  0.00     0.029 C 
BRANCH  22  23
HETATM   23  C15 UNL     1      55.884  14.381  22.833  1.00  0.00     0.028 C 
BRANCH  23  24
HETATM   24  C16 UNL     1      55.862  13.250  23.815  1.00  0.00     0.164 C 
BRANCH  24  25
HETATM   25  O6  UNL     1      56.897  12.324  23.549  1.00  0.00    -0.401 OA
ATOM     26  H6  UNL     1      56.614  11.663  22.928  1.00  0.00     0.209 HD
ENDBRANCH  24  25
ENDBRANCH  23  24
ENDBRANCH  22  23
ENDBRANCH  21  22
ENDBRANCH  18  21
ENDBRANCH  17  18
ENDBRANCH  16  17
ENDBRANCH  13  16
ENDBRANCH  12  13
ENDBRANCH  11  12
ENDBRANCH  10  11
BRANCH   9  27
HETATM   27  O5  UNL     1      57.626  12.652  16.584  1.00  0.00    -0.374 OA
ATOM     28  H5  UNL     1      58.219  11.912  16.543  1.00  0.00     0.212 HD
ENDBRANCH   9  27
BRANCH   8  29
HETATM   29  O4  UNL     1      55.558  13.727  14.015  1.00  0.00    -0.388 OA
ATOM     30  H4  UNL     1      55.696  13.927  13.096  1.00  0.00     0.210 HD
ENDBRANCH   8  29
BRANCH   7  31
HETATM   31  C6  UNL     1      57.858  13.474  12.375  1.00  0.00     0.200 C 
BRANCH  31  32
HETATM   32  O3  UNL     1      58.399  12.856  11.254  1.00  0.00    -0.398 OA
ATOM     33  H3  UNL     1      57.920  12.061  11.054  1.00  0.00     0.209 HD
ENDBRANCH  31  32
ENDBRANCH   7  31
TORSDOF 15
ENDMDL
MODEL 3
REMARK VINA RESULT: -6.401592934      4.755      6.906
REMARK  15 active torsions:
REMARK  status: ('A' for Active; 'I' for Inactive)
REMARK    1  A    between atoms: C5_7  and  C6_8 
REMARK    2  A    between atoms: C6_8  and  O3_9 
REMARK    3  A    between atoms: C7_11  and  O4_12 
REMARK    4  A    between atoms: C8_14  and  O5_15 
REMARK    5  A    between atoms: N1_17  and  C9_18 
REMARK    6  A    between atoms: C9_18  and  C10_19 
REMARK    7  A    between atoms: C10_19  and  N2_20 
REMARK    8  A    between atoms: N2_20  and  C11_23 
REMARK    9  A    between atoms: C11_23  and  C12_24 
REMARK   10  A    between atoms: C12_24  and  N3_25 
REMARK   11  A    between atoms: N3_25  and  C13_28 
REMARK   12  A    between atoms: C13_28  and  C14_29 
REMARK   13  A    between atoms: C14_29  and  C15_30 
REMARK   14  A    between atoms: C15_30  and  C16_31 
REMARK   15  A    between atoms: C16_31  and  O6_32 
ROOT
HETATM    1  O1  UNL     1      56.124  16.952  14.519  1.00  0.00    -0.268 OA
HETATM    2  C1  UNL     1      56.422  15.770  14.144  1.00  0.00     0.253 C 
HETATM    3  C2  UNL     1      57.738  15.682  13.389  1.00  0.00     0.141 C 
HETATM    4  C3  UNL     1      57.868  14.330  13.029  1.00  0.00    -0.043 C 
HETATM    5  C4  UNL     1      57.873  13.250  12.803  1.00  0.00     0.059 C 
HETATM    6  O2  UNL     1      57.748  11.945  12.597  1.00  0.00    -0.293 OA
HETATM    7  C5  UNL     1      56.492  11.347  13.078  1.00  0.00     0.196 C 
HETATM    8  C7  UNL     1      56.035  12.227  14.236  1.00  0.00     0.199 C 
HETATM    9  C8  UNL     1      55.351  13.450  13.752  1.00  0.00     0.254 C 
HETATM   10  N1  UNL     1      55.558  14.693  14.438  1.00  0.00    -0.318 N 
ENDROOT
BRANCH  10  11
HETATM   11  C9  UNL     1      54.698  14.939  15.624  1.00  0.00     0.156 C 
BRANCH  11  12
HETATM   12  C10 UNL     1      55.376  14.642  16.909  1.00  0.00     0.252 C 
BRANCH  12  13
HETATM   13  N2  UNL     1      55.113  15.709  17.889  1.00  0.00    -0.072 N 
ATOM     14  H22 UNL     1      55.377  16.626  17.528  1.00  0.00     0.277 HD
ATOM     15  H21 UNL     1      54.113  15.872  18.010  1.00  0.00     0.277 HD
BRANCH  13  16
HETATM   16  C11 UNL     1      55.749  15.432  19.123  1.00  0.00     0.259 C 
BRANCH  16  17
HETATM   17  C12 UNL     1      56.212  16.674  19.810  1.00  0.00     0.259 C 
BRANCH  17  18
HETATM   18  N3  UNL     1      55.917  16.654  21.242  1.00  0.00    -0.074 N 
ATOM     19  H32 UNL     1      56.611  17.132  21.817  1.00  0.00     0.277 HD
ATOM     20  H31 UNL     1      55.125  17.237  21.513  1.00  0.00     0.277 HD
BRANCH  18  21
HETATM   21  C13 UNL     1      55.749  15.212  21.562  1.00  0.00     0.232 C 
BRANCH  21  22
HETATM   22  C14 UNL     1      54.850  15.070  22.750  1.00  0.00     0.029 C 
BRANCH  22  23
HETATM   23  C15 UNL     1      55.375  13.995  23.666  1.00  0.00     0.028 C 
BRANCH  23  24
HETATM   24  C16 UNL     1      56.493  13.247  23.007  1.00  0.00     0.164 C 
BRANCH  24  25
HETATM   25  O6  UNL     1      56.874  12.121  23.774  1.00  0.00    -0.401 OA
ATOM     26  H6  UNL     1      57.269  11.452  23.228  1.00  0.00     0.209 HD
ENDBRANCH  24  25
ENDBRANCH  23  24
ENDBRANCH  22  23
ENDBRANCH  21  22
ENDBRANCH  18  21
ENDBRANCH  17  18
ENDBRANCH  16  17
ENDBRANCH  13  16
ENDBRANCH  12  13
ENDBRANCH  11  12
ENDBRANCH  10  11
BRANCH   9  27
HETATM   27  O5  UNL     1      53.930  13.122  13.870  1.00  0.00    -0.374 OA
ATOM     28  H5  UNL     1      53.569  13.383  13.032  1.00  0.00     0.212 HD
ENDBRANCH   9  27
BRANCH   8  29
HETATM   29  O4  UNL     1      57.106  12.431  15.081  1.00  0.00    -0.388 OA
ATOM     30  H4  UNL     1      56.825  12.991  15.796  1.00  0.00     0.210 HD
ENDBRANCH   8  29
BRANCH   7  31
HETATM   31  C6  UNL     1      56.874  10.003  13.633  1.00  0.00     0.200 C 
BRANCH  31  32
HETATM   32  O3  UNL     1      56.500   8.996  12.752  1.00  0.00    -0.398 OA
ATOM     33  H3  UNL     1      56.991   9.068  11.942  1.00  0.00     0.209 HD
ENDBRANCH  31  32
ENDBRANCH   7  31
TORSDOF 15
ENDMDL
MODEL 4
REMARK VINA RESULT: -6.391706825      3.714      5.710
REMARK  15 active torsions:
REMARK  status: ('A' for Active; 'I' for Inactive)
REMARK    1  A    between atoms: C5_7  and  C6_8 
REMARK    2  A    between atoms: C6_8  and  O3_9 
REMARK    3  A    between atoms: C7_11  and  O4_12 
REMARK    4  A    between atoms: C8_14  and  O5_15 
REMARK    5  A    between atoms: N1_17  and  C9_18 
REMARK    6  A    between atoms: C9_18  and  C10_19 
REMARK    7  A    between atoms: C10_19  and  N2_20 
REMARK    8  A    between atoms: N2_20  and  C11_23 
REMARK    9  A    between atoms: C11_23  and  C12_24 
REMARK   10  A    between atoms: C12_24  and  N3_25 
REMARK   11  A    between atoms: N3_25  and  C13_28 
REMARK   12  A    between atoms: C13_28  and  C14_29 
REMARK   13  A    between atoms: C14_29  and  C15_30 
REMARK   14  A    between atoms: C15_30  and  C16_31 
REMARK   15  A    between atoms: C16_31  and  O6_32 
ROOT
HETATM    1  O1  UNL     1      55.671  19.342  18.363  1.00  0.00    -0.268 OA
HETATM    2  C1  UNL     1      56.111  18.390  19.090  1.00  0.00     0.253 C 
HETATM    3  C2  UNL     1      57.411  18.717  19.803  1.00  0.00     0.141 C 
HETATM    4  C3  UNL     1      57.751  17.551  20.508  1.00  0.00    -0.043 C 
HETATM    5  C4  UNL     1      57.920  16.590  21.024  1.00  0.00     0.059 C 
HETATM    6  O2  UNL     1      58.000  15.387  21.578  1.00  0.00    -0.293 OA
HETATM    7  C5  UNL     1      56.947  14.437  21.182  1.00  0.00     0.196 C 
HETATM    8  C7  UNL     1      55.740  15.292  20.815  1.00  0.00     0.199 C 
HETATM    9  C8  UNL     1      55.860  15.842  19.444  1.00  0.00     0.254 C 
HETATM   10  N1  UNL     1      55.399  17.173  19.174  1.00  0.00    -0.318 N 
ENDROOT
BRANCH  10  11
HETATM   11  C9  UNL     1      53.951  17.319  18.876  1.00  0.00     0.156 C 
BRANCH  11  12
HETATM   12  C10 UNL     1      53.683  17.740  17.479  1.00  0.00     0.252 C 
BRANCH  12  13
HETATM   13  N2  UNL     1      53.864  16.606  16.556  1.00  0.00    -0.072 N 
ATOM     14  H22 UNL     1      54.073  15.742  17.056  1.00  0.00     0.277 HD
ATOM     15  H21 UNL     1      52.982  16.326  16.126  1.00  0.00     0.277 HD
BRANCH  13  16
HETATM   16  C11 UNL     1      54.850  16.898  15.583  1.00  0.00     0.259 C 
BRANCH  16  17
HETATM   17  C12 UNL     1      55.417  15.661  14.968  1.00  0.00     0.259 C 
BRANCH  17  18
HETATM   18  N3  UNL     1      55.312  14.506  15.856  1.00  0.00    -0.074 N 
ATOM     19  H32 UNL     1      55.320  14.741  16.849  1.00  0.00     0.277 HD
ATOM     20  H31 UNL     1      54.395  14.059  15.853  1.00  0.00     0.277 HD
BRANCH  18  21
HETATM   21  C13 UNL     1      56.424  13.615  15.433  1.00  0.00     0.232 C 
BRANCH  21  22
HETATM   22  C14 UNL     1      56.724  12.643  16.531  1.00  0.00     0.029 C 
BRANCH  22  23
HETATM   23  C15 UNL     1      55.999  11.346  16.282  1.00  0.00     0.028 C 
BRANCH  23  24
HETATM   24  C16 UNL     1      54.674  11.345  16.979  1.00  0.00     0.164 C 
BRANCH  24  25
HETATM   25  O6  UNL     1      54.678  12.230  18.083  1.00  0.00    -0.401 OA
ATOM     26  H6  UNL     1      53.818  12.285  18.482  1.00  0.00     0.209 HD
ENDBRANCH  24  25
ENDBRANCH  23  24
ENDBRANCH  22  23
ENDBRANCH  21  22
ENDBRANCH  18  21
ENDBRANCH  17  18
ENDBRANCH  16  17
ENDBRANCH  13  16
ENDBRANCH  12  13
ENDBRANCH  11  12
ENDBRANCH  10  11
BRANCH   9  27
HETATM   27  O5  UNL     1      55.049  14.931  18.634  1.00  0.00    -0.374 OA
ATOM     28  H5  UNL     1      55.614  14.721  17.900  1.00  0.00     0.212 HD
ENDBRANCH   9  27
BRANCH   8  29
HETATM   29  O4  UNL     1      55.537  16.218  21.818  1.00  0.00    -0.388 OA
ATOM     30  H4  UNL     1      55.002  16.924  21.474  1.00  0.00     0.210 HD
ENDBRANCH   8  29
BRANCH   7  31
HETATM   31  C6  UNL     1      56.615  13.665  22.429  1.00  0.00     0.200 C 
BRANCH  31  32
HETATM   32  O3  UNL     1      57.708  12.910  22.832  1.00  0.00    -0.398 OA
ATOM     33  H3  UNL     1      57.949  12.291  22.152  1.00  0.00     0.209 HD
ENDBRANCH  31  32
ENDBRANCH   7  31
TORSDOF 15
ENDMDL
MODEL 5
REMARK VINA RESULT: -6.195948839      3.719      7.245
REMARK  15 active torsions:
REMARK  status: ('A' for Active; 'I' for Inactive)
REMARK    1  A    between atoms: C5_7  and  C6_8 
REMARK    2  A    between atoms: C6_8  and  O3_9 
REMARK    3  A    between atoms: C7_11  and  O4_12 
REMARK    4  A    between atoms: C8_14  and  O5_15 
REMARK    5  A    between atoms: N1_17  and  C9_18 
REMARK    6  A    between atoms: C9_18  and  C10_19 
REMARK    7  A    between atoms: C10_19  and  N2_20 
REMARK    8  A    between atoms: N2_20  and  C11_23 
REMARK    9  A    between atoms: C11_23  and  C12_24 
REMARK   10  A    between atoms: C12_24  and  N3_25 
REMARK   11  A    between atoms: N3_25  and  C13_28 
REMARK   12  A    between atoms: C13_28  and  C14_29 
REMARK   13  A    between atoms: C14_29  and  C15_30 
REMARK   14  A    between atoms: C15_30  and  C16_31 
REMARK   15  A    between atoms: C16_31  and  O6_32 
ROOT
HETATM    1  O1  UNL     1      55.687  19.251  18.331  1.00  0.00    -0.268 OA
HETATM    2  C1  UNL     1      56.116  18.309  19.076  1.00  0.00     0.253 C 
HETATM    3  C2  UNL     1      57.401  18.650  19.812  1.00  0.00     0.141 C 
HETATM    4  C3  UNL     1      57.731  17.492  20.536  1.00  0.00    -0.043 C 
HETATM    5  C4  UNL     1      57.894  16.537  21.064  1.00  0.00     0.059 C 
HETATM    6  O2  UNL     1      57.968  15.340  21.633  1.00  0.00    -0.293 OA
HETATM    7  C5  UNL     1      56.928  14.381  21.226  1.00  0.00     0.196 C 
HETATM    8  C7  UNL     1      55.724  15.227  20.825  1.00  0.00     0.199 C 
HETATM    9  C8  UNL     1      55.870  15.763  19.451  1.00  0.00     0.254 C 
HETATM   10  N1  UNL     1      55.408  17.090  19.158  1.00  0.00    -0.318 N 
ENDROOT
BRANCH  10  11
HETATM   11  C9  UNL     1      53.966  17.226  18.830  1.00  0.00     0.156 C 
BRANCH  11  12
HETATM   12  C10 UNL     1      53.723  17.600  17.415  1.00  0.00     0.252 C 
BRANCH  12  13
HETATM   13  N2  UNL     1      53.892  16.430  16.537  1.00  0.00    -0.072 N 
ATOM     14  H22 UNL     1      54.083  15.582  17.071  1.00  0.00     0.277 HD
ATOM     15  H21 UNL     1      53.009  16.148  16.110  1.00  0.00     0.277 HD
BRANCH  13  16
HETATM   16  C11 UNL     1      54.890  16.668  15.562  1.00  0.00     0.259 C 
BRANCH  16  17
HETATM   17  C12 UNL     1      55.398  15.403  14.954  1.00  0.00     0.259 C 
BRANCH  17  18
HETATM   18  N3  UNL     1      55.816  14.434  15.965  1.00  0.00    -0.074 N 
ATOM     19  H32 UNL     1      56.434  14.818  16.680  1.00  0.00     0.277 HD
ATOM     20  H31 UNL     1      55.072  14.148  16.601  1.00  0.00     0.277 HD
BRANCH  18  21
HETATM   21  C13 UNL     1      56.410  13.319  15.182  1.00  0.00     0.232 C 
BRANCH  21  22
HETATM   22  C14 UNL     1      57.251  13.881  14.080  1.00  0.00     0.029 C 
BRANCH  22  23
HETATM   23  C15 UNL     1      57.382  12.873  12.968  1.00  0.00     0.028 C 
BRANCH  23  24
HETATM   24  C16 UNL     1      58.355  13.356  11.936  1.00  0.00     0.164 C 
BRANCH  24  25
HETATM   25  O6  UNL     1      58.680  12.328  11.021  1.00  0.00    -0.401 OA
ATOM     26  H6  UNL     1      59.394  12.589  10.452  1.00  0.00     0.209 HD
ENDBRANCH  24  25
ENDBRANCH  23  24
ENDBRANCH  22  23
ENDBRANCH  21  22
ENDBRANCH  18  21
ENDBRANCH  17  18
ENDBRANCH  16  17
ENDBRANCH  13  16
ENDBRANCH  12  13
ENDBRANCH  11  12
ENDBRANCH  10  11
BRANCH   9  27
HETATM   27  O5  UNL     1      55.079  14.840  18.635  1.00  0.00    -0.374 OA
ATOM     28  H5  UNL     1      54.700  15.400  17.968  1.00  0.00     0.212 HD
ENDBRANCH   9  27
BRANCH   8  29
HETATM   29  O4  UNL     1      55.497  16.162  21.815  1.00  0.00    -0.388 OA
ATOM     30  H4  UNL     1      54.988  15.753  22.505  1.00  0.00     0.210 HD
ENDBRANCH   8  29
BRANCH   7  31
HETATM   31  C6  UNL     1      56.574  13.621  22.473  1.00  0.00     0.200 C 
BRANCH  31  32
HETATM   32  O3  UNL     1      57.654  12.855  22.891  1.00  0.00    -0.398 OA
ATOM     33  H3  UNL     1      57.461  11.930  22.789  1.00  0.00     0.209 HD
ENDBRANCH  31  32
ENDBRANCH   7  31
TORSDOF 15
ENDMDL
