MODEL 1
REMARK VINA RESULT: -6.392179064      0.000      0.000
REMARK  11 active torsions:
REMARK  status: ('A' for Active; 'I' for Inactive)
REMARK    1  A    between atoms: S1_2  and  C2_4 
REMARK    2  A    between atoms: C2_4  and  C3_5 
REMARK    3  A    between atoms: C3_5  and  C4_6 
REMARK    4  A    between atoms: C4_6  and  O2_7 
REMARK    5  A    between atoms: O2_7  and  C5_8 
REMARK    6  A    between atoms: C6_10  and  C7_11 
REMARK    7  A    between atoms: C7_11  and  O4_12 
REMARK    8  A    between atoms: C8_14  and  N1_15 
REMARK    9  A    between atoms: N1_15  and  C9_17 
REMARK   10  A    between atoms: C9_17  and  C10_18 
REMARK   11  A    between atoms: C10_18  and  N2_19 
REMARK       I    between atoms: N2_19  and  C11_21 
ROOT
HETATM    1  C5  UNL     1      56.394  15.547  20.102  1.00  0.00     0.285 C 
HETATM    2  O3  UNL     1      57.337  14.485  19.939  1.00  0.00    -0.349 OA
HETATM    3  C6  UNL     1      57.718  14.698  21.250  1.00  0.00     0.175 C 
HETATM    4  C8  UNL     1      57.397  16.154  21.091  1.00  0.00     0.167 C 
ENDROOT
BRANCH   4   5
HETATM    5  N1  UNL     1      58.405  16.929  20.476  1.00  0.00    -0.389 N 
ATOM      6  H1  UNL     1      58.941  16.524  19.709  1.00  0.00     0.159 HD
BRANCH   5   7
HETATM    7  C9  UNL     1      58.690  18.232  20.887  1.00  0.00     0.075 C 
BRANCH   7   8
HETATM    8  C10 UNL     1      57.608  19.244  20.942  1.00  0.00     0.166 C 
BRANCH   8   9
HETATM    9  N2  UNL     1      57.594  20.148  22.033  1.00  0.00    -0.360 N 
HETATM   10  C11 UNL     1      57.488  21.546  21.769  1.00  0.00     0.182 C 
HETATM   11  N3  UNL     1      57.081  21.985  20.623  1.00  0.00    -0.374 N 
HETATM   12  N4  UNL     1      57.837  22.486  22.779  1.00  0.00    -0.064 NA
ATOM     13  H32 UNL     1      56.831  21.311  19.899  1.00  0.00     0.158 HD
ATOM     14  H31 UNL     1      57.005  22.985  20.433  1.00  0.00     0.158 HD
ATOM     15  H2  UNL     1      57.657  19.805  22.993  1.00  0.00     0.162 HD
ENDBRANCH   8   9
ENDBRANCH   7   8
ENDBRANCH   5   7
ENDBRANCH   4   5
BRANCH   1  16
HETATM   16  O2  UNL     1      56.178  16.246  18.983  1.00  0.00    -0.358 OA
BRANCH  16  17
HETATM   17  C4  UNL     1      55.280  17.202  18.837  1.00  0.00     0.185 C 
BRANCH  17  18
HETATM   18  C3  UNL     1      54.455  17.397  17.631  1.00  0.00     0.035 C 
HETATM   19  C12 UNL     1      54.698  16.490  16.463  1.00  0.00     0.182 C 
HETATM   20  O5  UNL     1      55.372  17.532  15.766  1.00  0.00    -0.389 OA
HETATM   21  C13 UNL     1      54.784  18.462  16.624  1.00  0.00     0.182 C 
BRANCH  18  22
HETATM   22  C2  UNL     1      52.983  17.597  18.024  1.00  0.00     0.124 C 
BRANCH  22  23
HETATM   23  S1  UNL     1      52.332  19.063  17.275  1.00  0.00     0.011 S 
HETATM   24  C1  UNL     1      51.889  20.248  18.531  1.00  0.00     0.127 C 
HETATM   25  O1  UNL     1      50.872  18.625  16.522  1.00  0.00    -0.258 OA
ENDBRANCH  22  23
ENDBRANCH  18  22
ENDBRANCH  17  18
ENDBRANCH  16  17
ENDBRANCH   1  16
BRANCH   3  26
HETATM   26  C7  UNL     1      56.881  13.945  22.233  1.00  0.00     0.198 C 
BRANCH  26  27
HETATM   27  O4  UNL     1      57.582  12.867  22.821  1.00  0.00    -0.398 OA
ATOM     28  H4  UNL     1      56.998  12.196  23.154  1.00  0.00     0.209 HD
ENDBRANCH  26  27
ENDBRANCH   3  26
TORSDOF 11
ENDMDL
MODEL 2
REMARK VINA RESULT: -6.367270572      3.242      4.410
REMARK  11 active torsions:
REMARK  status: ('A' for Active; 'I' for Inactive)
REMARK    1  A    between atoms: S1_2  and  C2_4 
REMARK    2  A    between atoms: C2_4  and  C3_5 
REMARK    3  A    between atoms: C3_5  and  C4_6 
REMARK    4  A    between atoms: C4_6  and  O2_7 
REMARK    5  A    between atoms: O2_7  and  C5_8 
REMARK    6  A    between atoms: C6_10  and  C7_11 
REMARK    7  A    between atoms: C7_11  and  O4_12 
REMARK    8  A    between atoms: C8_14  and  N1_15 
REMARK    9  A    between atoms: N1_15  and  C9_17 
REMARK   10  A    between atoms: C9_17  and  C10_18 
REMARK   11  A    between atoms: C10_18  and  N2_19 
REMARK       I    between atoms: N2_19  and  C11_21 
ROOT
HETATM    1  C5  UNL     1      56.250  14.213  20.352  1.00  0.00     0.285 C 
HETATM    2  O3  UNL     1      57.465  13.868  21.022  1.00  0.00    -0.349 OA
HETATM    3  C6  UNL     1      56.971  14.522  22.135  1.00  0.00     0.175 C 
HETATM    4  C8  UNL     1      56.237  15.469  21.233  1.00  0.00     0.167 C 
ENDROOT
BRANCH   4   5
HETATM    5  N1  UNL     1      57.012  16.533  20.719  1.00  0.00    -0.389 N 
ATOM      6  H1  UNL     1      58.028  16.445  20.709  1.00  0.00     0.159 HD
BRANCH   5   7
HETATM    7  C9  UNL     1      56.429  17.701  20.226  1.00  0.00     0.075 C 
BRANCH   7   8
HETATM    8  C10 UNL     1      57.247  18.928  20.070  1.00  0.00     0.166 C 
BRANCH   8   9
HETATM    9  N2  UNL     1      57.888  19.453  21.220  1.00  0.00    -0.360 N 
HETATM   10  C11 UNL     1      57.940  20.868  21.394  1.00  0.00     0.182 C 
HETATM   11  N3  UNL     1      57.158  21.657  20.732  1.00  0.00    -0.374 N 
HETATM   12  N4  UNL     1      58.871  21.435  22.310  1.00  0.00    -0.064 NA
ATOM     13  H32 UNL     1      56.492  21.251  20.075  1.00  0.00     0.158 HD
ATOM     14  H31 UNL     1      57.196  22.669  20.856  1.00  0.00     0.158 HD
ATOM     15  H2  UNL     1      58.304  18.829  21.913  1.00  0.00     0.162 HD
ENDBRANCH   8   9
ENDBRANCH   7   8
ENDBRANCH   5   7
ENDBRANCH   4   5
BRANCH   1  16
HETATM   16  O2  UNL     1      56.405  14.419  19.040  1.00  0.00    -0.358 OA
BRANCH  16  17
HETATM   17  C4  UNL     1      55.443  14.366  18.138  1.00  0.00     0.185 C 
BRANCH  17  18
HETATM   18  C3  UNL     1      55.324  13.320  17.106  1.00  0.00     0.035 C 
HETATM   19  C12 UNL     1      54.229  13.460  16.091  1.00  0.00     0.182 C 
HETATM   20  O5  UNL     1      53.471  12.442  16.737  1.00  0.00    -0.389 OA
HETATM   21  C13 UNL     1      54.630  12.018  17.390  1.00  0.00     0.182 C 
BRANCH  18  22
HETATM   22  C2  UNL     1      56.711  12.969  16.544  1.00  0.00     0.124 C 
BRANCH  22  23
HETATM   23  S1  UNL     1      56.637  12.752  14.789  1.00  0.00     0.011 S 
HETATM   24  C1  UNL     1      56.472  11.022  14.392  1.00  0.00     0.127 C 
HETATM   25  O1  UNL     1      58.149  13.223  14.171  1.00  0.00    -0.258 OA
ENDBRANCH  22  23
ENDBRANCH  18  22
ENDBRANCH  17  18
ENDBRANCH  16  17
ENDBRANCH   1  16
BRANCH   3  26
HETATM   26  C7  UNL     1      56.121  13.648  23.000  1.00  0.00     0.198 C 
BRANCH  26  27
HETATM   27  O4  UNL     1      56.815  12.504  23.455  1.00  0.00    -0.398 OA
ATOM     28  H4  UNL     1      56.741  12.386  24.394  1.00  0.00     0.209 HD
ENDBRANCH  26  27
ENDBRANCH   3  26
TORSDOF 11
ENDMDL
MODEL 3
REMARK VINA RESULT: -6.323129741      0.949      1.054
REMARK  11 active torsions:
REMARK  status: ('A' for Active; 'I' for Inactive)
REMARK    1  A    between atoms: S1_2  and  C2_4 
REMARK    2  A    between atoms: C2_4  and  C3_5 
REMARK    3  A    between atoms: C3_5  and  C4_6 
REMARK    4  A    between atoms: C4_6  and  O2_7 
REMARK    5  A    between atoms: O2_7  and  C5_8 
REMARK    6  A    between atoms: C6_10  and  C7_11 
REMARK    7  A    between atoms: C7_11  and  O4_12 
REMARK    8  A    between atoms: C8_14  and  N1_15 
REMARK    9  A    between atoms: N1_15  and  C9_17 
REMARK   10  A    between atoms: C9_17  and  C10_18 
REMARK   11  A    between atoms: C10_18  and  N2_19 
REMARK       I    between atoms: N2_19  and  C11_21 
ROOT
HETATM    1  C5  UNL     1      56.398  15.594  20.147  1.00  0.00     0.285 C 
HETATM    2  O3  UNL     1      57.320  14.521  19.944  1.00  0.00    -0.349 OA
HETATM    3  C6  UNL     1      57.728  14.698  21.252  1.00  0.00     0.175 C 
HETATM    4  C8  UNL     1      57.429  16.162  21.130  1.00  0.00     0.167 C 
ENDROOT
BRANCH   4   5
HETATM    5  N1  UNL     1      58.439  16.934  20.514  1.00  0.00    -0.389 N 
ATOM      6  H1  UNL     1      58.994  16.516  19.767  1.00  0.00     0.159 HD
BRANCH   5   7
HETATM    7  C9  UNL     1      58.700  18.251  20.895  1.00  0.00     0.075 C 
BRANCH   7   8
HETATM    8  C10 UNL     1      57.591  19.232  20.973  1.00  0.00     0.166 C 
BRANCH   8   9
HETATM    9  N2  UNL     1      57.587  20.151  22.052  1.00  0.00    -0.360 N 
HETATM   10  C11 UNL     1      57.520  21.547  21.767  1.00  0.00     0.182 C 
HETATM   11  N3  UNL     1      57.139  21.981  20.611  1.00  0.00    -0.374 N 
HETATM   12  N4  UNL     1      57.881  22.492  22.769  1.00  0.00    -0.064 NA
ATOM     13  H32 UNL     1      56.880  21.305  19.893  1.00  0.00     0.158 HD
ATOM     14  H31 UNL     1      57.091  22.980  20.407  1.00  0.00     0.158 HD
ATOM     15  H2  UNL     1      57.630  19.819  23.016  1.00  0.00     0.162 HD
ENDBRANCH   8   9
ENDBRANCH   7   8
ENDBRANCH   5   7
ENDBRANCH   4   5
BRANCH   1  16
HETATM   16  O2  UNL     1      56.174  16.320  19.047  1.00  0.00    -0.358 OA
BRANCH  16  17
HETATM   17  C4  UNL     1      55.272  17.276  18.931  1.00  0.00     0.185 C 
BRANCH  17  18
HETATM   18  C3  UNL     1      54.439  17.497  17.735  1.00  0.00     0.035 C 
HETATM   19  C12 UNL     1      54.589  16.541  16.591  1.00  0.00     0.182 C 
HETATM   20  O5  UNL     1      55.323  17.509  15.850  1.00  0.00    -0.389 OA
HETATM   21  C13 UNL     1      54.825  18.505  16.690  1.00  0.00     0.182 C 
BRANCH  18  22
HETATM   22  C2  UNL     1      52.994  17.820  18.148  1.00  0.00     0.124 C 
BRANCH  22  23
HETATM   23  S1  UNL     1      51.844  16.890  17.175  1.00  0.00     0.011 S 
HETATM   24  C1  UNL     1      51.132  17.927  15.912  1.00  0.00     0.127 C 
HETATM   25  O1  UNL     1      50.557  16.468  18.203  1.00  0.00    -0.258 OA
ENDBRANCH  22  23
ENDBRANCH  18  22
ENDBRANCH  17  18
ENDBRANCH  16  17
ENDBRANCH   1  16
BRANCH   3  26
HETATM   26  C7  UNL     1      56.897  13.938  22.234  1.00  0.00     0.198 C 
BRANCH  26  27
HETATM   27  O4  UNL     1      57.610  12.873  22.831  1.00  0.00    -0.398 OA
ATOM     28  H4  UNL     1      57.106  12.068  22.852  1.00  0.00     0.209 HD
ENDBRANCH  26  27
ENDBRANCH   3  26
TORSDOF 11
ENDMDL
MODEL 4
REMARK VINA RESULT: -6.310496022      1.184      2.230
REMARK  11 active torsions:
REMARK  status: ('A' for Active; 'I' for Inactive)
REMARK    1  A    between atoms: S1_2  and  C2_4 
REMARK    2  A    between atoms: C2_4  and  C3_5 
REMARK    3  A    between atoms: C3_5  and  C4_6 
REMARK    4  A    between atoms: C4_6  and  O2_7 
REMARK    5  A    between atoms: O2_7  and  C5_8 
REMARK    6  A    between atoms: C6_10  and  C7_11 
REMARK    7  A    between atoms: C7_11  and  O4_12 
REMARK    8  A    between atoms: C8_14  and  N1_15 
REMARK    9  A    between atoms: N1_15  and  C9_17 
REMARK   10  A    between atoms: C9_17  and  C10_18 
REMARK   11  A    between atoms: C10_18  and  N2_19 
REMARK       I    between atoms: N2_19  and  C11_21 
ROOT
HETATM    1  C5  UNL     1      56.393  15.581  20.126  1.00  0.00     0.285 C 
HETATM    2  O3  UNL     1      57.301  14.492  19.939  1.00  0.00    -0.349 OA
HETATM    3  C6  UNL     1      57.694  14.667  21.252  1.00  0.00     0.175 C 
HETATM    4  C8  UNL     1      57.420  16.136  21.121  1.00  0.00     0.167 C 
ENDROOT
BRANCH   4   5
HETATM    5  N1  UNL     1      58.450  16.889  20.516  1.00  0.00    -0.389 N 
ATOM      6  H1  UNL     1      58.935  16.503  19.706  1.00  0.00     0.159 HD
BRANCH   5   7
HETATM    7  C9  UNL     1      58.825  18.147  20.992  1.00  0.00     0.075 C 
BRANCH   7   8
HETATM    8  C10 UNL     1      57.842  19.257  21.002  1.00  0.00     0.166 C 
BRANCH   8   9
HETATM    9  N2  UNL     1      57.892  20.184  22.073  1.00  0.00    -0.360 N 
HETATM   10  C11 UNL     1      57.658  21.564  21.800  1.00  0.00     0.182 C 
HETATM   11  N3  UNL     1      57.089  21.947  20.704  1.00  0.00    -0.374 N 
HETATM   12  N4  UNL     1      58.056  22.551  22.747  1.00  0.00    -0.064 NA
ATOM     13  H32 UNL     1      56.804  21.241  20.026  1.00  0.00     0.158 HD
ATOM     14  H31 UNL     1      56.922  22.934  20.509  1.00  0.00     0.158 HD
ATOM     15  H2  UNL     1      58.092  19.869  23.023  1.00  0.00     0.162 HD
ENDBRANCH   8   9
ENDBRANCH   7   8
ENDBRANCH   5   7
ENDBRANCH   4   5
BRANCH   1  16
HETATM   16  O2  UNL     1      56.196  16.306  19.020  1.00  0.00    -0.358 OA
BRANCH  16  17
HETATM   17  C4  UNL     1      55.460  17.399  18.943  1.00  0.00     0.185 C 
BRANCH  17  18
HETATM   18  C3  UNL     1      54.361  17.599  17.982  1.00  0.00     0.035 C 
HETATM   19  C12 UNL     1      53.949  19.007  17.673  1.00  0.00     0.182 C 
HETATM   20  O5  UNL     1      52.780  18.863  18.472  1.00  0.00    -0.389 OA
HETATM   21  C13 UNL     1      52.924  17.477  18.403  1.00  0.00     0.182 C 
BRANCH  18  22
HETATM   22  C2  UNL     1      54.547  16.677  16.766  1.00  0.00     0.124 C 
BRANCH  22  23
HETATM   23  S1  UNL     1      54.752  17.629  15.287  1.00  0.00     0.011 S 
HETATM   24  C1  UNL     1      53.453  17.247  14.128  1.00  0.00     0.127 C 
HETATM   25  O1  UNL     1      56.192  17.096  14.556  1.00  0.00    -0.258 OA
ENDBRANCH  22  23
ENDBRANCH  18  22
ENDBRANCH  17  18
ENDBRANCH  16  17
ENDBRANCH   1  16
BRANCH   3  26
HETATM   26  C7  UNL     1      56.837  13.924  22.225  1.00  0.00     0.198 C 
BRANCH  26  27
HETATM   27  O4  UNL     1      57.535  12.872  22.861  1.00  0.00    -0.398 OA
ATOM     28  H4  UNL     1      58.466  13.047  22.932  1.00  0.00     0.209 HD
ENDBRANCH  26  27
ENDBRANCH   3  26
TORSDOF 11
ENDMDL
MODEL 5
REMARK VINA RESULT: -6.268100880      2.484      3.305
REMARK  11 active torsions:
REMARK  status: ('A' for Active; 'I' for Inactive)
REMARK    1  A    between atoms: S1_2  and  C2_4 
REMARK    2  A    between atoms: C2_4  and  C3_5 
REMARK    3  A    between atoms: C3_5  and  C4_6 
REMARK    4  A    between atoms: C4_6  and  O2_7 
REMARK    5  A    between atoms: O2_7  and  C5_8 
REMARK    6  A    between atoms: C6_10  and  C7_11 
REMARK    7  A    between atoms: C7_11  and  O4_12 
REMARK    8  A    between atoms: C8_14  and  N1_15 
REMARK    9  A    between atoms: N1_15  and  C9_17 
REMARK   10  A    between atoms: C9_17  and  C10_18 
REMARK   11  A    between atoms: C10_18  and  N2_19 
REMARK       I    between atoms: N2_19  and  C11_21 
ROOT
HETATM    1  C5  UNL     1      56.278  14.710  19.724  1.00  0.00     0.285 C 
HETATM    2  O3  UNL     1      57.585  14.234  20.057  1.00  0.00    -0.349 OA
HETATM    3  C6  UNL     1      57.414  14.805  21.304  1.00  0.00     0.175 C 
HETATM    4  C8  UNL     1      56.565  15.874  20.681  1.00  0.00     0.167 C 
ENDROOT
BRANCH   4   5
HETATM    5  N1  UNL     1      57.279  16.937  20.085  1.00  0.00    -0.389 N 
ATOM      6  H1  UNL     1      58.057  16.723  19.462  1.00  0.00     0.159 HD
BRANCH   5   7
HETATM    7  C9  UNL     1      56.952  18.273  20.324  1.00  0.00     0.075 C 
BRANCH   7   8
HETATM    8  C10 UNL     1      58.026  19.266  20.569  1.00  0.00     0.166 C 
BRANCH   8   9
HETATM    9  N2  UNL     1      57.953  20.051  21.747  1.00  0.00    -0.360 N 
HETATM   10  C11 UNL     1      57.639  21.437  21.632  1.00  0.00     0.182 C 
HETATM   11  N3  UNL     1      57.106  21.920  20.557  1.00  0.00    -0.374 N 
HETATM   12  N4  UNL     1      57.915  22.319  22.715  1.00  0.00    -0.064 NA
ATOM     13  H32 UNL     1      56.908  21.289  19.781  1.00  0.00     0.158 HD
ATOM     14  H31 UNL     1      56.882  22.912  20.474  1.00  0.00     0.158 HD
ATOM     15  H2  UNL     1      58.122  19.631  22.662  1.00  0.00     0.162 HD
ENDBRANCH   8   9
ENDBRANCH   7   8
ENDBRANCH   5   7
ENDBRANCH   4   5
BRANCH   1  16
HETATM   16  O2  UNL     1      56.140  15.031  18.434  1.00  0.00    -0.358 OA
BRANCH  16  17
HETATM   17  C4  UNL     1      55.311  14.455  17.585  1.00  0.00     0.185 C 
BRANCH  17  18
HETATM   18  C3  UNL     1      55.730  13.640  16.430  1.00  0.00     0.035 C 
HETATM   19  C12 UNL     1      54.943  12.403  16.124  1.00  0.00     0.182 C 
HETATM   20  O5  UNL     1      55.981  11.585  16.654  1.00  0.00    -0.389 OA
HETATM   21  C13 UNL     1      56.864  12.660  16.537  1.00  0.00     0.182 C 
BRANCH  18  22
HETATM   22  C2  UNL     1      56.040  14.547  15.228  1.00  0.00     0.124 C 
BRANCH  22  23
HETATM   23  S1  UNL     1      54.837  15.838  15.094  1.00  0.00     0.011 S 
HETATM   24  C1  UNL     1      54.160  15.875  13.445  1.00  0.00     0.127 C 
HETATM   25  O1  UNL     1      55.670  17.308  15.281  1.00  0.00    -0.258 OA
ENDBRANCH  22  23
ENDBRANCH  18  22
ENDBRANCH  17  18
ENDBRANCH  16  17
ENDBRANCH   1  16
BRANCH   3  26
HETATM   26  C7  UNL     1      56.723  13.901  22.273  1.00  0.00     0.198 C 
BRANCH  26  27
HETATM   27  O4  UNL     1      57.596  12.935  22.823  1.00  0.00    -0.398 OA
ATOM     28  H4  UNL     1      57.129  12.234  23.262  1.00  0.00     0.209 HD
ENDBRANCH  26  27
ENDBRANCH   3  26
TORSDOF 11
ENDMDL
