MODEL 1
REMARK VINA RESULT: -6.940724010      0.000      0.000
REMARK  7 active torsions:
REMARK  status: ('A' for Active; 'I' for Inactive)
REMARK    1  A    between atoms: C2_2  and  N1_3 
REMARK    2  A    between atoms: C4_5  and  C5_6 
REMARK    3  A    between atoms: C5_6  and  C6_7 
REMARK    4  A    between atoms: C6_7  and  N2_8 
REMARK    5  A    between atoms: N2_8  and  C7_10 
REMARK    6  A    between atoms: C7_10  and  C8_11 
REMARK    7  A    between atoms: C8_11  and  C9_12 
ROOT
HETATM    1  N2  UNL     1       6.226   1.123  28.912  1.00  0.00    -0.401 N 
ATOM      2  H2  UNL     1       5.269   0.808  28.756  1.00  0.00     0.158 HD
ENDROOT
BRANCH   1   3
HETATM    3  C6  UNL     1       6.868   1.804  27.877  1.00  0.00     0.124 C 
BRANCH   3   4
HETATM    4  C5  UNL     1       8.372   1.439  27.973  1.00  0.00     0.078 C 
BRANCH   4   5
HETATM    5  C4  UNL     1       9.126   2.108  26.889  1.00  0.00     0.027 A 
HETATM    6  C3  UNL     1       9.635   3.379  26.838  1.00  0.00     0.117 A 
HETATM    7  N1  UNL     1      10.263   3.578  25.647  1.00  0.00    -0.345 N 
HETATM    8  C15 UNL     1      10.137   2.428  24.972  1.00  0.00     0.079 A 
HETATM    9  N3  UNL     1       9.454   1.529  25.707  1.00  0.00    -0.348 N 
HETATM   10  C16 UNL     1      10.695   2.212  23.590  1.00  0.00     0.089 C 
ATOM     11  H3  UNL     1       9.223   0.577  25.422  1.00  0.00     0.167 HD
BRANCH   7  12
HETATM   12  C2  UNL     1      10.919   4.817  25.252  1.00  0.00     0.125 C 
HETATM   13  C1  UNL     1      11.885   5.274  26.317  1.00  0.00     0.027 C 
ENDBRANCH   7  12
ENDBRANCH   4   5
ENDBRANCH   3   4
ENDBRANCH   1   3
BRANCH   1  14
HETATM   14  C7  UNL     1       6.811   0.846  30.141  1.00  0.00     0.074 C 
BRANCH  14  15
HETATM   15  C8  UNL     1       5.973   0.762  31.376  1.00  0.00     0.089 C 
HETATM   16  C10 UNL     1       4.691   0.069  31.115  1.00  0.00     0.024 C 
HETATM   17  C11 UNL     1       4.128  -0.706  32.293  1.00  0.00     0.001 C 
HETATM   18  C12 UNL     1       5.081  -1.654  32.926  1.00  0.00     0.000 C 
HETATM   19  C13 UNL     1       6.486  -1.487  32.361  1.00  0.00     0.001 C 
HETATM   20  C14 UNL     1       6.830  -0.008  32.393  1.00  0.00     0.024 C 
BRANCH  15  21
HETATM   21  C9  UNL     1       5.701   2.124  31.981  1.00  0.00     0.400 C 
HETATM   22  F1  UNL     1       4.379   2.504  31.799  1.00  0.00    -0.170 F 
HETATM   23  F2  UNL     1       6.452   3.105  31.362  1.00  0.00    -0.170 F 
HETATM   24  F3  UNL     1       6.021   2.174  33.322  1.00  0.00    -0.170 F 
ENDBRANCH  15  21
ENDBRANCH  14  15
ENDBRANCH   1  14
TORSDOF 7
ENDMDL
MODEL 2
REMARK VINA RESULT: -6.928093731      3.122      7.809
REMARK  7 active torsions:
REMARK  status: ('A' for Active; 'I' for Inactive)
REMARK    1  A    between atoms: C2_2  and  N1_3 
REMARK    2  A    between atoms: C4_5  and  C5_6 
REMARK    3  A    between atoms: C5_6  and  C6_7 
REMARK    4  A    between atoms: C6_7  and  N2_8 
REMARK    5  A    between atoms: N2_8  and  C7_10 
REMARK    6  A    between atoms: C7_10  and  C8_11 
REMARK    7  A    between atoms: C8_11  and  C9_12 
ROOT
HETATM    1  N2  UNL     1       9.814   1.957  27.101  1.00  0.00    -0.401 N 
ATOM      2  H2  UNL     1      10.630   1.562  26.635  1.00  0.00     0.158 HD
ENDROOT
BRANCH   1   3
HETATM    3  C6  UNL     1       8.743   1.107  27.380  1.00  0.00     0.124 C 
BRANCH   3   4
HETATM    4  C5  UNL     1       7.583   2.005  27.880  1.00  0.00     0.078 C 
BRANCH   4   5
HETATM    5  C4  UNL     1       7.171   1.593  29.241  1.00  0.00     0.027 A 
HETATM    6  C3  UNL     1       6.568   2.327  30.229  1.00  0.00     0.117 A 
HETATM    7  N1  UNL     1       6.365   1.547  31.325  1.00  0.00    -0.345 N 
HETATM    8  C15 UNL     1       6.844   0.337  31.006  1.00  0.00     0.079 A 
HETATM    9  N3  UNL     1       7.334   0.346  29.751  1.00  0.00    -0.348 N 
HETATM   10  C16 UNL     1       6.818  -0.840  31.946  1.00  0.00     0.089 C 
ATOM     11  H3  UNL     1       7.755  -0.447  29.268  1.00  0.00     0.167 HD
BRANCH   7  12
HETATM   12  C2  UNL     1       5.746   2.001  32.563  1.00  0.00     0.125 C 
HETATM   13  C1  UNL     1       5.393   3.465  32.478  1.00  0.00     0.027 C 
ENDBRANCH   7  12
ENDBRANCH   4   5
ENDBRANCH   3   4
ENDBRANCH   1   3
BRANCH   1  14
HETATM   14  C7  UNL     1       9.835   3.310  27.417  1.00  0.00     0.074 C 
BRANCH  14  15
HETATM   15  C8  UNL     1      10.149   4.327  26.369  1.00  0.00     0.089 C 
HETATM   16  C10 UNL     1      10.580   3.689  25.105  1.00  0.00     0.024 C 
HETATM   17  C11 UNL     1      10.225   4.457  23.844  1.00  0.00     0.001 C 
HETATM   18  C12 UNL     1       8.796   4.850  23.737  1.00  0.00     0.000 C 
HETATM   19  C13 UNL     1       8.042   4.556  25.028  1.00  0.00     0.001 C 
HETATM   20  C14 UNL     1       8.850   5.127  26.181  1.00  0.00     0.024 C 
BRANCH  15  21
HETATM   21  C9  UNL     1      11.205   5.315  26.824  1.00  0.00     0.400 C 
HETATM   22  F1  UNL     1      12.454   4.992  26.316  1.00  0.00    -0.170 F 
HETATM   23  F2  UNL     1      11.351   5.292  28.198  1.00  0.00    -0.170 F 
HETATM   24  F3  UNL     1      10.885   6.614  26.487  1.00  0.00    -0.170 F 
ENDBRANCH  15  21
ENDBRANCH  14  15
ENDBRANCH   1  14
TORSDOF 7
ENDMDL
MODEL 3
REMARK VINA RESULT: -6.904072081      3.970      8.140
REMARK  7 active torsions:
REMARK  status: ('A' for Active; 'I' for Inactive)
REMARK    1  A    between atoms: C2_2  and  N1_3 
REMARK    2  A    between atoms: C4_5  and  C5_6 
REMARK    3  A    between atoms: C5_6  and  C6_7 
REMARK    4  A    between atoms: C6_7  and  N2_8 
REMARK    5  A    between atoms: N2_8  and  C7_10 
REMARK    6  A    between atoms: C7_10  and  C8_11 
REMARK    7  A    between atoms: C8_11  and  C9_12 
ROOT
HETATM    1  N2  UNL     1       8.700   1.522  26.627  1.00  0.00    -0.401 N 
ATOM      2  H2  UNL     1       7.993   1.169  25.982  1.00  0.00     0.158 HD
ENDROOT
BRANCH   1   3
HETATM    3  C6  UNL     1       8.447   1.422  27.996  1.00  0.00     0.124 C 
BRANCH   3   4
HETATM    4  C5  UNL     1       7.403   2.516  28.335  1.00  0.00     0.078 C 
BRANCH   4   5
HETATM    5  C4  UNL     1       6.824   2.268  29.674  1.00  0.00     0.027 A 
HETATM    6  C3  UNL     1       6.604   1.080  30.321  1.00  0.00     0.117 A 
HETATM    7  N1  UNL     1       6.053   1.315  31.543  1.00  0.00    -0.345 N 
HETATM    8  C15 UNL     1       5.936   2.646  31.641  1.00  0.00     0.079 A 
HETATM    9  N3  UNL     1       6.397   3.237  30.522  1.00  0.00    -0.348 N 
HETATM   10  C16 UNL     1       5.366   3.342  32.849  1.00  0.00     0.089 C 
ATOM     11  H3  UNL     1       6.421   4.241  30.343  1.00  0.00     0.167 HD
BRANCH   7  12
HETATM   12  C2  UNL     1       5.689   0.280  32.501  1.00  0.00     0.125 C 
HETATM   13  C1  UNL     1       6.867  -0.082  33.372  1.00  0.00     0.027 C 
ENDBRANCH   7  12
ENDBRANCH   4   5
ENDBRANCH   3   4
ENDBRANCH   1   3
BRANCH   1  14
HETATM   14  C7  UNL     1       9.856   2.075  26.089  1.00  0.00     0.074 C 
BRANCH  14  15
HETATM   15  C8  UNL     1       9.797   3.360  25.329  1.00  0.00     0.089 C 
HETATM   16  C10 UNL     1       8.400   3.799  25.112  1.00  0.00     0.024 C 
HETATM   17  C11 UNL     1       8.202   5.304  25.051  1.00  0.00     0.001 C 
HETATM   18  C12 UNL     1       8.785   6.055  26.193  1.00  0.00     0.000 C 
HETATM   19  C13 UNL     1       9.629   5.147  27.080  1.00  0.00     0.001 C 
HETATM   20  C14 UNL     1      10.578   4.370  26.184  1.00  0.00     0.024 C 
BRANCH  15  21
HETATM   21  C9  UNL     1      10.515   3.274  23.997  1.00  0.00     0.400 C 
HETATM   22  F1  UNL     1      10.967   4.519  23.584  1.00  0.00    -0.170 F 
HETATM   23  F2  UNL     1       9.663   2.844  22.998  1.00  0.00    -0.170 F 
HETATM   24  F3  UNL     1      11.565   2.380  24.025  1.00  0.00    -0.170 F 
ENDBRANCH  15  21
ENDBRANCH  14  15
ENDBRANCH   1  14
TORSDOF 7
ENDMDL
MODEL 4
REMARK VINA RESULT: -6.879034647      3.114      7.921
REMARK  7 active torsions:
REMARK  status: ('A' for Active; 'I' for Inactive)
REMARK    1  A    between atoms: C2_2  and  N1_3 
REMARK    2  A    between atoms: C4_5  and  C5_6 
REMARK    3  A    between atoms: C5_6  and  C6_7 
REMARK    4  A    between atoms: C6_7  and  N2_8 
REMARK    5  A    between atoms: N2_8  and  C7_10 
REMARK    6  A    between atoms: C7_10  and  C8_11 
REMARK    7  A    between atoms: C8_11  and  C9_12 
ROOT
HETATM    1  N2  UNL     1       9.648   1.956  27.139  1.00  0.00    -0.401 N 
ATOM      2  H2  UNL     1      10.245   1.549  26.420  1.00  0.00     0.158 HD
ENDROOT
BRANCH   1   3
HETATM    3  C6  UNL     1       8.699   1.133  27.748  1.00  0.00     0.124 C 
BRANCH   3   4
HETATM    4  C5  UNL     1       7.413   1.982  27.908  1.00  0.00     0.078 C 
BRANCH   4   5
HETATM    5  C4  UNL     1       6.940   1.928  29.309  1.00  0.00     0.027 A 
HETATM    6  C3  UNL     1       6.899   0.865  30.174  1.00  0.00     0.117 A 
HETATM    7  N1  UNL     1       6.390   1.264  31.371  1.00  0.00    -0.345 N 
HETATM    8  C15 UNL     1       6.120   2.569  31.236  1.00  0.00     0.079 A 
HETATM    9  N3  UNL     1       6.446   2.987  29.998  1.00  0.00    -0.348 N 
HETATM   10  C16 UNL     1       5.535   3.413  32.338  1.00  0.00     0.089 C 
ATOM     11  H3  UNL     1       6.339   3.936  29.640  1.00  0.00     0.167 HD
BRANCH   7  12
HETATM   12  C2  UNL     1       6.204   0.394  32.525  1.00  0.00     0.125 C 
HETATM   13  C1  UNL     1       6.901  -0.928  32.315  1.00  0.00     0.027 C 
ENDBRANCH   7  12
ENDBRANCH   4   5
ENDBRANCH   3   4
ENDBRANCH   1   3
BRANCH   1  14
HETATM   14  C7  UNL     1       9.828   3.298  27.453  1.00  0.00     0.074 C 
BRANCH  14  15
HETATM   15  C8  UNL     1      10.164   4.287  26.385  1.00  0.00     0.089 C 
HETATM   16  C10 UNL     1      10.586   3.613  25.136  1.00  0.00     0.024 C 
HETATM   17  C11 UNL     1      10.248   4.361  23.857  1.00  0.00     0.001 C 
HETATM   18  C12 UNL     1       8.827   4.777  23.737  1.00  0.00     0.000 C 
HETATM   19  C13 UNL     1       8.065   4.526  25.033  1.00  0.00     0.001 C 
HETATM   20  C14 UNL     1       8.880   5.106  26.175  1.00  0.00     0.024 C 
BRANCH  15  21
HETATM   21  C9  UNL     1      11.236   5.265  26.821  1.00  0.00     0.400 C 
HETATM   22  F1  UNL     1      11.334   5.324  28.204  1.00  0.00    -0.170 F 
HETATM   23  F2  UNL     1      10.932   6.551  26.420  1.00  0.00    -0.170 F 
HETATM   24  F3  UNL     1      12.468   4.967  26.278  1.00  0.00    -0.170 F 
ENDBRANCH  15  21
ENDBRANCH  14  15
ENDBRANCH   1  14
TORSDOF 7
ENDMDL
MODEL 5
REMARK VINA RESULT: -6.866625624      3.578      8.393
REMARK  7 active torsions:
REMARK  status: ('A' for Active; 'I' for Inactive)
REMARK    1  A    between atoms: C2_2  and  N1_3 
REMARK    2  A    between atoms: C4_5  and  C5_6 
REMARK    3  A    between atoms: C5_6  and  C6_7 
REMARK    4  A    between atoms: C6_7  and  N2_8 
REMARK    5  A    between atoms: N2_8  and  C7_10 
REMARK    6  A    between atoms: C7_10  and  C8_11 
REMARK    7  A    between atoms: C8_11  and  C9_12 
ROOT
HETATM    1  N2  UNL     1       9.634   2.693  27.283  1.00  0.00    -0.401 N 
ATOM      2  H2  UNL     1      10.289   3.386  27.644  1.00  0.00     0.158 HD
ENDROOT
BRANCH   1   3
HETATM    3  C6  UNL     1       9.433   1.531  28.029  1.00  0.00     0.124 C 
BRANCH   3   4
HETATM    4  C5  UNL     1       7.930   1.175  27.897  1.00  0.00     0.078 C 
BRANCH   4   5
HETATM    5  C4  UNL     1       7.248   1.361  29.197  1.00  0.00     0.027 A 
HETATM    6  C3  UNL     1       6.890   0.427  30.135  1.00  0.00     0.117 A 
HETATM    7  N1  UNL     1       6.284   1.040  31.188  1.00  0.00    -0.345 N 
HETATM    8  C15 UNL     1       6.272   2.346  30.893  1.00  0.00     0.079 A 
HETATM    9  N3  UNL     1       6.851   2.558  29.696  1.00  0.00    -0.348 N 
HETATM   10  C16 UNL     1       5.686   3.396  31.801  1.00  0.00     0.089 C 
ATOM     11  H3  UNL     1       6.969   3.464  29.241  1.00  0.00     0.167 HD
BRANCH   7  12
HETATM   12  C2  UNL     1       5.774   0.351  32.367  1.00  0.00     0.125 C 
HETATM   13  C1  UNL     1       6.892   0.047  33.333  1.00  0.00     0.027 C 
ENDBRANCH   7  12
ENDBRANCH   4   5
ENDBRANCH   3   4
ENDBRANCH   1   3
BRANCH   1  14
HETATM   14  C7  UNL     1       8.997   2.963  26.077  1.00  0.00     0.074 C 
BRANCH  14  15
HETATM   15  C8  UNL     1       9.773   3.487  24.913  1.00  0.00     0.089 C 
HETATM   16  C10 UNL     1       8.952   4.390  24.076  1.00  0.00     0.024 C 
HETATM   17  C11 UNL     1       9.723   5.497  23.378  1.00  0.00     0.001 C 
HETATM   18  C12 UNL     1      10.594   6.306  24.268  1.00  0.00     0.000 C 
HETATM   19  C13 UNL     1      10.664   5.707  25.667  1.00  0.00     0.001 C 
HETATM   20  C14 UNL     1      10.973   4.226  25.527  1.00  0.00     0.024 C 
BRANCH  15  21
HETATM   21  C9  UNL     1      10.342   2.376  24.054  1.00  0.00     0.400 C 
HETATM   22  F1  UNL     1      11.689   2.580  23.789  1.00  0.00    -0.170 F 
HETATM   23  F2  UNL     1       9.728   2.337  22.817  1.00  0.00    -0.170 F 
HETATM   24  F3  UNL     1      10.160   1.131  24.620  1.00  0.00    -0.170 F 
ENDBRANCH  15  21
ENDBRANCH  14  15
ENDBRANCH   1  14
TORSDOF 7
ENDMDL
