MODEL 1
REMARK VINA RESULT: -6.942446778      0.000      0.000
REMARK  7 active torsions:
REMARK  status: ('A' for Active; 'I' for Inactive)
REMARK    1  A    between atoms: C3_5  and  N2_6 
REMARK    2  A    between atoms: N2_6  and  C4_8 
REMARK    3  A    between atoms: C4_8  and  C6_10 
REMARK    4  A    between atoms: C6_10  and  C7_11 
REMARK    5  A    between atoms: C7_11  and  C8_12 
REMARK    6  A    between atoms: C11_17  and  C12_18 
REMARK    7  A    between atoms: C12_18  and  C15_21 
ROOT
HETATM    1  C1  UNL     1      10.927   1.529  22.942  1.00  0.00     0.089 C 
HETATM    2  C2  UNL     1      10.587   2.143  24.243  1.00  0.00     0.094 A 
HETATM    3  N1  UNL     1       9.845   1.425  25.095  1.00  0.00    -0.181 N 
ATOM      4  H1  UNL     1       9.551   0.487  24.826  1.00  0.00     0.185 HD
HETATM    5  C3  UNL     1       9.475   1.907  26.298  1.00  0.00     0.684 A 
HETATM    6  N3  UNL     1       9.888   3.140  26.614  1.00  0.00    -0.179 N 
ATOM      7  H3  UNL     1       9.614   3.520  27.520  1.00  0.00     0.185 HD
HETATM    8  C11 UNL     1      10.648   3.913  25.806  1.00  0.00     0.112 A 
HETATM    9  N4  UNL     1      10.968   3.384  24.636  1.00  0.00    -0.334 N 
ATOM     10  H4  UNL     1      11.531   3.941  23.994  1.00  0.00     0.168 HD
ENDROOT
BRANCH   5  11
HETATM   11  N2  UNL     1       8.829   1.128  27.089  1.00  0.00    -0.199 N 
ATOM     12  H2  UNL     1       8.971   0.124  26.979  1.00  0.00     0.183 HD
BRANCH  11  13
HETATM   13  C4  UNL     1       7.945   1.552  28.092  1.00  0.00     0.000 C 
HETATM   14  C5  UNL     1       6.746   2.242  27.511  1.00  0.00     0.064 C 
BRANCH  13  15
HETATM   15  C6  UNL     1       7.772   0.703  29.283  1.00  0.00     0.053 C 
BRANCH  15  16
HETATM   16  C7  UNL     1       6.469   0.778  29.999  1.00  0.00     0.009 C 
BRANCH  16  17
HETATM   17  C8  UNL     1       6.451   1.395  31.355  1.00  0.00    -0.023 C 
HETATM   18  C9  UNL     1       6.017   2.865  31.145  1.00  0.00     0.009 C 
HETATM   19  C10 UNL     1       5.447   0.726  32.244  1.00  0.00     0.009 C 
ENDBRANCH  16  17
ENDBRANCH  15  16
ENDBRANCH  13  15
ENDBRANCH  11  13
ENDBRANCH   5  11
BRANCH   8  20
HETATM   20  C12 UNL     1      11.133   5.225  26.265  1.00  0.00     0.070 C 
HETATM   21  C13 UNL     1      12.633   5.365  26.301  1.00  0.00     0.029 C 
HETATM   22  C14 UNL     1      10.728   6.208  25.098  1.00  0.00     0.029 C 
BRANCH  20  23
HETATM   23  C15 UNL     1      10.451   5.782  27.462  1.00  0.00     0.368 C 
HETATM   24  F1  UNL     1      11.285   5.422  28.559  1.00  0.00    -0.213 F 
HETATM   25  F2  UNL     1      10.560   7.197  27.478  1.00  0.00    -0.213 F 
ENDBRANCH  20  23
ENDBRANCH   8  20
TORSDOF 7
ENDMDL
MODEL 2
REMARK VINA RESULT: -6.748807945      0.791      1.276
REMARK  7 active torsions:
REMARK  status: ('A' for Active; 'I' for Inactive)
REMARK    1  A    between atoms: C3_5  and  N2_6 
REMARK    2  A    between atoms: N2_6  and  C4_8 
REMARK    3  A    between atoms: C4_8  and  C6_10 
REMARK    4  A    between atoms: C6_10  and  C7_11 
REMARK    5  A    between atoms: C7_11  and  C8_12 
REMARK    6  A    between atoms: C11_17  and  C12_18 
REMARK    7  A    between atoms: C12_18  and  C15_21 
ROOT
HETATM    1  C1  UNL     1      10.891   1.658  23.135  1.00  0.00     0.089 C 
HETATM    2  C2  UNL     1      10.515   2.237  24.442  1.00  0.00     0.094 A 
HETATM    3  N1  UNL     1       9.767   1.490  25.262  1.00  0.00    -0.181 N 
ATOM      4  H1  UNL     1       9.492   0.554  24.965  1.00  0.00     0.185 HD
HETATM    5  C3  UNL     1       9.365   1.938  26.468  1.00  0.00     0.684 A 
HETATM    6  N3  UNL     1       9.754   3.170  26.821  1.00  0.00    -0.179 N 
ATOM      7  H3  UNL     1       9.456   3.524  27.729  1.00  0.00     0.185 HD
HETATM    8  C11 UNL     1      10.518   3.972  26.047  1.00  0.00     0.112 A 
HETATM    9  N4  UNL     1      10.870   3.475  24.871  1.00  0.00    -0.334 N 
ATOM     10  H4  UNL     1      11.438   4.054  24.254  1.00  0.00     0.168 HD
ENDROOT
BRANCH   5  11
HETATM   11  N2  UNL     1       8.715   1.132  27.227  1.00  0.00    -0.199 N 
ATOM     12  H2  UNL     1       8.888   0.134  27.111  1.00  0.00     0.183 HD
BRANCH  11  13
HETATM   13  C4  UNL     1       7.787   1.519  28.205  1.00  0.00     0.000 C 
HETATM   14  C5  UNL     1       6.564   2.132  27.588  1.00  0.00     0.064 C 
BRANCH  13  15
HETATM   15  C6  UNL     1       7.635   0.679  29.405  1.00  0.00     0.053 C 
BRANCH  15  16
HETATM   16  C7  UNL     1       6.371   0.804  30.179  1.00  0.00     0.009 C 
BRANCH  16  17
HETATM   17  C8  UNL     1       6.405   1.569  31.457  1.00  0.00    -0.023 C 
HETATM   18  C9  UNL     1       5.277   2.622  31.351  1.00  0.00     0.009 C 
HETATM   19  C10 UNL     1       6.117   0.682  32.631  1.00  0.00     0.009 C 
ENDBRANCH  16  17
ENDBRANCH  15  16
ENDBRANCH  13  15
ENDBRANCH  11  13
ENDBRANCH   5  11
BRANCH   8  20
HETATM   20  C12 UNL     1      10.976   5.279  26.545  1.00  0.00     0.070 C 
HETATM   21  C13 UNL     1      10.919   5.439  28.042  1.00  0.00     0.029 C 
HETATM   22  C14 UNL     1      12.529   5.270  26.263  1.00  0.00     0.029 C 
BRANCH  20  23
HETATM   23  C15 UNL     1      10.479   6.464  25.797  1.00  0.00     0.368 C 
HETATM   24  F1  UNL     1      10.841   7.582  26.601  1.00  0.00    -0.213 F 
HETATM   25  F2  UNL     1      11.268   6.683  24.639  1.00  0.00    -0.213 F 
ENDBRANCH  20  23
ENDBRANCH   8  20
TORSDOF 7
ENDMDL
MODEL 3
REMARK VINA RESULT: -6.626824332      1.245      1.709
REMARK  7 active torsions:
REMARK  status: ('A' for Active; 'I' for Inactive)
REMARK    1  A    between atoms: C3_5  and  N2_6 
REMARK    2  A    between atoms: N2_6  and  C4_8 
REMARK    3  A    between atoms: C4_8  and  C6_10 
REMARK    4  A    between atoms: C6_10  and  C7_11 
REMARK    5  A    between atoms: C7_11  and  C8_12 
REMARK    6  A    between atoms: C11_17  and  C12_18 
REMARK    7  A    between atoms: C12_18  and  C15_21 
ROOT
HETATM    1  C1  UNL     1      10.842   2.403  23.654  1.00  0.00     0.089 C 
HETATM    2  C2  UNL     1      10.130   2.819  24.880  1.00  0.00     0.094 A 
HETATM    3  N1  UNL     1       9.544   1.866  25.614  1.00  0.00    -0.181 N 
ATOM      4  H1  UNL     1       9.616   0.895  25.311  1.00  0.00     0.185 HD
HETATM    5  C3  UNL     1       8.862   2.151  26.740  1.00  0.00     0.684 A 
HETATM    6  N3  UNL     1       8.799   3.438  27.106  1.00  0.00    -0.179 N 
ATOM      7  H3  UNL     1       8.284   3.670  27.955  1.00  0.00     0.185 HD
HETATM    8  C11 UNL     1       9.377   4.447  26.418  1.00  0.00     0.112 A 
HETATM    9  N4  UNL     1      10.023   4.100  25.316  1.00  0.00    -0.334 N 
ATOM     10  H4  UNL     1      10.463   4.835  24.764  1.00  0.00     0.168 HD
ENDROOT
BRANCH   5  11
HETATM   11  N2  UNL     1       8.395   1.173  27.429  1.00  0.00    -0.199 N 
ATOM     12  H2  UNL     1       8.750   0.240  27.221  1.00  0.00     0.183 HD
BRANCH  11  13
HETATM   13  C4  UNL     1       7.435   1.289  28.445  1.00  0.00     0.000 C 
HETATM   14  C5  UNL     1       6.070   1.557  27.882  1.00  0.00     0.064 C 
BRANCH  13  15
HETATM   15  C6  UNL     1       7.560   0.430  29.634  1.00  0.00     0.053 C 
BRANCH  15  16
HETATM   16  C7  UNL     1       6.383   0.331  30.540  1.00  0.00     0.009 C 
BRANCH  16  17
HETATM   17  C8  UNL     1       6.439   1.056  31.840  1.00  0.00    -0.023 C 
HETATM   18  C9  UNL     1       5.214   2.001  31.851  1.00  0.00     0.009 C 
HETATM   19  C10 UNL     1       6.318   0.109  32.997  1.00  0.00     0.009 C 
ENDBRANCH  16  17
ENDBRANCH  15  16
ENDBRANCH  13  15
ENDBRANCH  11  13
ENDBRANCH   5  11
BRANCH   8  20
HETATM   20  C12 UNL     1       9.335   5.825  26.934  1.00  0.00     0.070 C 
HETATM   21  C13 UNL     1       8.745   6.837  25.986  1.00  0.00     0.029 C 
HETATM   22  C14 UNL     1       8.255   5.767  28.084  1.00  0.00     0.029 C 
BRANCH  20  23
HETATM   23  C15 UNL     1      10.568   6.295  27.619  1.00  0.00     0.368 C 
HETATM   24  F1  UNL     1      10.108   6.909  28.819  1.00  0.00    -0.213 F 
HETATM   25  F2  UNL     1      11.299   5.192  28.130  1.00  0.00    -0.213 F 
ENDBRANCH  20  23
ENDBRANCH   8  20
TORSDOF 7
ENDMDL
MODEL 4
REMARK VINA RESULT: -6.568717736      2.887      3.760
REMARK  7 active torsions:
REMARK  status: ('A' for Active; 'I' for Inactive)
REMARK    1  A    between atoms: C3_5  and  N2_6 
REMARK    2  A    between atoms: N2_6  and  C4_8 
REMARK    3  A    between atoms: C4_8  and  C6_10 
REMARK    4  A    between atoms: C6_10  and  C7_11 
REMARK    5  A    between atoms: C7_11  and  C8_12 
REMARK    6  A    between atoms: C11_17  and  C12_18 
REMARK    7  A    between atoms: C12_18  and  C15_21 
ROOT
HETATM    1  C1  UNL     1       5.133   5.487  24.735  1.00  0.00     0.089 C 
HETATM    2  C2  UNL     1       6.220   4.626  25.245  1.00  0.00     0.094 A 
HETATM    3  N1  UNL     1       5.939   3.807  26.265  1.00  0.00    -0.181 N 
ATOM      4  H1  UNL     1       4.993   3.798  26.646  1.00  0.00     0.185 HD
HETATM    5  C3  UNL     1       6.869   2.995  26.805  1.00  0.00     0.684 A 
HETATM    6  N3  UNL     1       8.096   3.034  26.270  1.00  0.00    -0.179 N 
ATOM      7  H3  UNL     1       8.813   2.427  26.669  1.00  0.00     0.185 HD
HETATM    8  C11 UNL     1       8.444   3.828  25.233  1.00  0.00     0.112 A 
HETATM    9  N4  UNL     1       7.486   4.607  24.757  1.00  0.00    -0.334 N 
ATOM     10  H4  UNL     1       7.712   5.229  23.981  1.00  0.00     0.168 HD
ENDROOT
BRANCH   5  11
HETATM   11  N2  UNL     1       6.502   2.184  27.730  1.00  0.00    -0.199 N 
ATOM     12  H2  UNL     1       5.727   1.555  27.523  1.00  0.00     0.183 HD
BRANCH  11  13
HETATM   13  C4  UNL     1       7.085   2.096  29.003  1.00  0.00     0.000 C 
HETATM   14  C5  UNL     1       6.483   3.091  29.951  1.00  0.00     0.064 C 
BRANCH  13  15
HETATM   15  C6  UNL     1       7.470   0.770  29.512  1.00  0.00     0.053 C 
BRANCH  15  16
HETATM   16  C7  UNL     1       6.512   0.071  30.412  1.00  0.00     0.009 C 
BRANCH  16  17
HETATM   17  C8  UNL     1       7.026  -0.453  31.708  1.00  0.00    -0.023 C 
HETATM   18  C9  UNL     1       6.373   0.419  32.807  1.00  0.00     0.009 C 
HETATM   19  C10 UNL     1       6.609  -1.877  31.923  1.00  0.00     0.009 C 
ENDBRANCH  16  17
ENDBRANCH  15  16
ENDBRANCH  13  15
ENDBRANCH  11  13
ENDBRANCH   5  11
BRANCH   8  20
HETATM   20  C12 UNL     1       9.791   3.747  24.646  1.00  0.00     0.070 C 
HETATM   21  C13 UNL     1      10.105   4.817  23.633  1.00  0.00     0.029 C 
HETATM   22  C14 UNL     1      10.749   4.122  25.844  1.00  0.00     0.029 C 
BRANCH  20  23
HETATM   23  C15 UNL     1      10.237   2.388  24.239  1.00  0.00     0.368 C 
HETATM   24  F1  UNL     1       9.746   2.225  22.912  1.00  0.00    -0.213 F 
HETATM   25  F2  UNL     1      11.639   2.373  24.023  1.00  0.00    -0.213 F 
ENDBRANCH  20  23
ENDBRANCH   8  20
TORSDOF 7
ENDMDL
MODEL 5
REMARK VINA RESULT: -6.554937831      1.141      1.363
REMARK  7 active torsions:
REMARK  status: ('A' for Active; 'I' for Inactive)
REMARK    1  A    between atoms: C3_5  and  N2_6 
REMARK    2  A    between atoms: N2_6  and  C4_8 
REMARK    3  A    between atoms: C4_8  and  C6_10 
REMARK    4  A    between atoms: C6_10  and  C7_11 
REMARK    5  A    between atoms: C7_11  and  C8_12 
REMARK    6  A    between atoms: C11_17  and  C12_18 
REMARK    7  A    between atoms: C12_18  and  C15_21 
ROOT
HETATM    1  C1  UNL     1      10.789   1.755  23.405  1.00  0.00     0.089 C 
HETATM    2  C2  UNL     1      10.315   2.290  24.698  1.00  0.00     0.094 A 
HETATM    3  N1  UNL     1       9.619   1.470  25.494  1.00  0.00    -0.181 N 
ATOM      4  H1  UNL     1       9.449   0.511  25.189  1.00  0.00     0.185 HD
HETATM    5  C3  UNL     1       9.135   1.873  26.685  1.00  0.00     0.684 A 
HETATM    6  N3  UNL     1       9.387   3.137  27.049  1.00  0.00    -0.179 N 
ATOM      7  H3  UNL     1       9.024   3.458  27.947  1.00  0.00     0.185 HD
HETATM    8  C11 UNL     1      10.091   4.013  26.300  1.00  0.00     0.112 A 
HETATM    9  N4  UNL     1      10.529   3.556  25.137  1.00  0.00    -0.334 N 
ATOM     10  H4  UNL     1      11.056   4.191  24.538  1.00  0.00     0.168 HD
ENDROOT
BRANCH   5  11
HETATM   11  N2  UNL     1       8.544   1.004  27.424  1.00  0.00    -0.199 N 
ATOM     12  H2  UNL     1       8.774   0.023  27.271  1.00  0.00     0.183 HD
BRANCH  11  13
HETATM   13  C4  UNL     1       7.608   1.301  28.425  1.00  0.00     0.000 C 
HETATM   14  C5  UNL     1       6.304   1.758  27.838  1.00  0.00     0.064 C 
BRANCH  13  15
HETATM   15  C6  UNL     1       7.590   0.473  29.642  1.00  0.00     0.053 C 
BRANCH  15  16
HETATM   16  C7  UNL     1       6.350   0.481  30.464  1.00  0.00     0.009 C 
BRANCH  16  17
HETATM   17  C8  UNL     1       6.348   1.285  31.719  1.00  0.00    -0.023 C 
HETATM   18  C9  UNL     1       5.039   2.108  31.693  1.00  0.00     0.009 C 
HETATM   19  C10 UNL     1       6.329   0.402  32.931  1.00  0.00     0.009 C 
ENDBRANCH  16  17
ENDBRANCH  15  16
ENDBRANCH  13  15
ENDBRANCH  11  13
ENDBRANCH   5  11
BRANCH   8  20
HETATM   20  C12 UNL     1      10.398   5.358  26.811  1.00  0.00     0.070 C 
HETATM   21  C13 UNL     1      11.192   5.381  28.092  1.00  0.00     0.029 C 
HETATM   22  C14 UNL     1      11.429   5.937  25.763  1.00  0.00     0.029 C 
BRANCH  20  23
HETATM   23  C15 UNL     1       9.273   6.330  26.787  1.00  0.00     0.368 C 
HETATM   24  F1  UNL     1       8.439   5.896  25.717  1.00  0.00    -0.213 F 
HETATM   25  F2  UNL     1       8.424   6.129  27.905  1.00  0.00    -0.213 F 
ENDBRANCH  20  23
ENDBRANCH   8  20
TORSDOF 7
ENDMDL
