MODEL 1
REMARK VINA RESULT: -5.333203855      0.000      0.000
REMARK  7 active torsions:
REMARK  status: ('A' for Active; 'I' for Inactive)
REMARK    1  A    between atoms: N1_5  and  C5_6 
REMARK    2  A    between atoms: C5_6  and  C6_7 
REMARK    3  A    between atoms: C7_9  and  N2_10 
REMARK    4  A    between atoms: N2_10  and  C8_11 
REMARK    5  A    between atoms: N2_10  and  C10_14 
REMARK    6  A    between atoms: C10_14  and  N3_16 
REMARK    7  A    between atoms: N3_16  and  C12_19 
ROOT
HETATM    1  N2  UNL     1       9.393   3.003  25.114  1.00  0.00    -0.158 N 
ENDROOT
BRANCH   1   2
HETATM    2  C7  UNL     1       8.661   4.188  24.925  1.00  0.00     0.678 C 
HETATM    3  N1  UNL     1       9.160   5.433  24.490  1.00  0.00    -0.217 N 
HETATM    4  C4  UNL     1       8.352   6.346  23.664  1.00  0.00     0.143 C 
HETATM    5  C3  UNL     1       6.911   5.901  23.618  1.00  0.00     0.045 C 
HETATM    6  C2  UNL     1       6.581   5.346  24.981  1.00  0.00     0.096 C 
HETATM    7  C1  UNL     1       5.120   5.056  25.154  1.00  0.00     0.032 C 
HETATM    8  N4  UNL     1       7.373   4.135  25.173  1.00  0.00    -0.222 N 
ATOM      9  H4  UNL     1       6.937   3.269  25.491  1.00  0.00     0.178 HD
BRANCH   3  10
HETATM   10  C5  UNL     1      10.480   5.882  24.829  1.00  0.00     0.156 C 
BRANCH  10  11
HETATM   11  C6  UNL     1      10.458   7.195  25.596  1.00  0.00     0.135 C 
HETATM   12 CL1  UNL     1       9.450   7.049  27.056  1.00  0.00    -0.129 Cl
ENDBRANCH  10  11
ENDBRANCH   3  10
ENDBRANCH   1   2
BRANCH   1  13
HETATM   13  C8  UNL     1       9.903   2.285  23.976  1.00  0.00     0.286 C 
HETATM   14  C9  UNL     1      11.382   2.358  23.763  1.00  0.00     0.069 C 
HETATM   15  F1  UNL     1       9.317   2.854  22.844  1.00  0.00    -0.227 F 
ENDBRANCH   1  13
BRANCH   1  16
HETATM   16  C10 UNL     1       9.594   2.457  26.436  1.00  0.00     0.301 C 
HETATM   17  C11 UNL     1       9.955   3.477  27.460  1.00  0.00     0.064 C 
BRANCH  16  18
HETATM   18  N3  UNL     1       8.605   1.514  26.803  1.00  0.00    -0.050 N 
ATOM     19  H32 UNL     1       7.916   1.414  26.057  1.00  0.00     0.280 HD
ATOM     20  H31 UNL     1       8.997   0.572  26.808  1.00  0.00     0.280 HD
BRANCH  18  21
HETATM   21  C12 UNL     1       7.948   1.791  28.059  1.00  0.00     0.180 C 
HETATM   22  C13 UNL     1       8.024   0.623  29.021  1.00  0.00     0.039 C 
HETATM   23  C14 UNL     1       6.463   1.996  27.726  1.00  0.00     0.039 C 
ENDBRANCH  18  21
ENDBRANCH  16  18
ENDBRANCH   1  16
TORSDOF 7
ENDMDL
MODEL 2
REMARK VINA RESULT: -5.273994828      2.589      4.659
REMARK  7 active torsions:
REMARK  status: ('A' for Active; 'I' for Inactive)
REMARK    1  A    between atoms: N1_5  and  C5_6 
REMARK    2  A    between atoms: C5_6  and  C6_7 
REMARK    3  A    between atoms: C7_9  and  N2_10 
REMARK    4  A    between atoms: N2_10  and  C8_11 
REMARK    5  A    between atoms: N2_10  and  C10_14 
REMARK    6  A    between atoms: C10_14  and  N3_16 
REMARK    7  A    between atoms: N3_16  and  C12_19 
ROOT
HETATM    1  N2  UNL     1       7.855   3.851  26.509  1.00  0.00    -0.158 N 
ENDROOT
BRANCH   1   2
HETATM    2  C7  UNL     1       7.401   3.894  27.839  1.00  0.00     0.678 C 
HETATM    3  N1  UNL     1       7.047   5.040  28.579  1.00  0.00    -0.217 N 
HETATM    4  C4  UNL     1       5.978   5.011  29.590  1.00  0.00     0.143 C 
HETATM    5  C3  UNL     1       5.565   3.593  29.897  1.00  0.00     0.045 C 
HETATM    6  C2  UNL     1       6.814   2.750  29.844  1.00  0.00     0.096 C 
HETATM    7  C1  UNL     1       6.595   1.350  30.335  1.00  0.00     0.032 C 
HETATM    8  N4  UNL     1       7.288   2.744  28.463  1.00  0.00    -0.222 N 
ATOM      9  H4  UNL     1       7.525   1.869  27.996  1.00  0.00     0.178 HD
BRANCH   3  10
HETATM   10  C5  UNL     1       7.709   6.299  28.389  1.00  0.00     0.156 C 
BRANCH  10  11
HETATM   11  C6  UNL     1       7.728   7.132  29.662  1.00  0.00     0.135 C 
HETATM   12 CL1  UNL     1       9.326   7.883  29.892  1.00  0.00    -0.129 Cl
ENDBRANCH  10  11
ENDBRANCH   3  10
ENDBRANCH   1   2
BRANCH   1  13
HETATM   13  C8  UNL     1       6.923   4.025  25.427  1.00  0.00     0.286 C 
HETATM   14  C9  UNL     1       6.935   5.363  24.758  1.00  0.00     0.069 C 
HETATM   15  F1  UNL     1       5.644   3.870  25.967  1.00  0.00    -0.227 F 
ENDBRANCH   1  13
BRANCH   1  16
HETATM   16  C10 UNL     1       9.240   3.576  26.205  1.00  0.00     0.301 C 
HETATM   17  C11 UNL     1      10.162   3.780  27.358  1.00  0.00     0.064 C 
BRANCH  16  18
HETATM   18  N3  UNL     1       9.418   2.389  25.455  1.00  0.00    -0.050 N 
ATOM     19  H32 UNL     1       9.600   1.601  26.076  1.00  0.00     0.280 HD
ATOM     20  H31 UNL     1       8.532   2.091  25.047  1.00  0.00     0.280 HD
BRANCH  18  21
HETATM   21  C12 UNL     1      10.437   2.471  24.434  1.00  0.00     0.180 C 
HETATM   22  C13 UNL     1      10.333   3.741  23.614  1.00  0.00     0.039 C 
HETATM   23  C14 UNL     1      10.173   1.301  23.476  1.00  0.00     0.039 C 
ENDBRANCH  18  21
ENDBRANCH  16  18
ENDBRANCH   1  16
TORSDOF 7
ENDMDL
MODEL 3
REMARK VINA RESULT: -5.265452725      2.550      4.930
REMARK  7 active torsions:
REMARK  status: ('A' for Active; 'I' for Inactive)
REMARK    1  A    between atoms: N1_5  and  C5_6 
REMARK    2  A    between atoms: C5_6  and  C6_7 
REMARK    3  A    between atoms: C7_9  and  N2_10 
REMARK    4  A    between atoms: N2_10  and  C8_11 
REMARK    5  A    between atoms: N2_10  and  C10_14 
REMARK    6  A    between atoms: C10_14  and  N3_16 
REMARK    7  A    between atoms: N3_16  and  C12_19 
ROOT
HETATM    1  N2  UNL     1       9.052   5.215  26.860  1.00  0.00    -0.158 N 
ENDROOT
BRANCH   1   2
HETATM    2  C7  UNL     1       8.788   3.837  26.953  1.00  0.00     0.678 C 
HETATM    3  N1  UNL     1       9.258   2.824  26.094  1.00  0.00    -0.217 N 
HETATM    4  C4  UNL     1       9.565   1.471  26.586  1.00  0.00     0.143 C 
HETATM    5  C3  UNL     1       9.046   1.276  27.989  1.00  0.00     0.045 C 
HETATM    6  C2  UNL     1       7.739   2.021  28.080  1.00  0.00     0.096 C 
HETATM    7  C1  UNL     1       6.998   1.746  29.355  1.00  0.00     0.032 C 
HETATM    8  N4  UNL     1       8.028   3.446  27.950  1.00  0.00    -0.222 N 
ATOM      9  H4  UNL     1       7.649   4.120  28.615  1.00  0.00     0.178 HD
BRANCH   3  10
HETATM   10  C5  UNL     1       9.461   3.052  24.692  1.00  0.00     0.156 C 
BRANCH  10  11
HETATM   11  C6  UNL     1      10.696   2.333  24.168  1.00  0.00     0.135 C 
HETATM   12 CL1  UNL     1      10.269   1.272  22.804  1.00  0.00    -0.129 Cl
ENDBRANCH  10  11
ENDBRANCH   3  10
ENDBRANCH   1   2
BRANCH   1  13
HETATM   13  C8  UNL     1      10.369   5.716  27.151  1.00  0.00     0.286 C 
HETATM   14  C9  UNL     1      11.265   5.930  25.972  1.00  0.00     0.069 C 
HETATM   15  F1  UNL     1      10.998   4.757  27.949  1.00  0.00    -0.227 F 
ENDBRANCH   1  13
BRANCH   1  16
HETATM   16  C10 UNL     1       8.003   6.152  26.532  1.00  0.00     0.301 C 
HETATM   17  C11 UNL     1       8.131   7.466  27.224  1.00  0.00     0.064 C 
BRANCH  16  18
HETATM   18  N3  UNL     1       7.706   6.191  25.149  1.00  0.00    -0.050 N 
ATOM     19  H32 UNL     1       8.059   7.053  24.735  1.00  0.00     0.280 HD
ATOM     20  H31 UNL     1       8.273   5.508  24.646  1.00  0.00     0.280 HD
BRANCH  18  21
HETATM   21  C12 UNL     1       6.308   6.016  24.829  1.00  0.00     0.180 C 
HETATM   22  C13 UNL     1       5.785   4.656  25.246  1.00  0.00     0.039 C 
HETATM   23  C14 UNL     1       6.212   6.078  23.298  1.00  0.00     0.039 C 
ENDBRANCH  18  21
ENDBRANCH  16  18
ENDBRANCH   1  16
TORSDOF 7
ENDMDL
MODEL 4
REMARK VINA RESULT: -5.222894438      3.117      5.100
REMARK  7 active torsions:
REMARK  status: ('A' for Active; 'I' for Inactive)
REMARK    1  A    between atoms: N1_5  and  C5_6 
REMARK    2  A    between atoms: C5_6  and  C6_7 
REMARK    3  A    between atoms: C7_9  and  N2_10 
REMARK    4  A    between atoms: N2_10  and  C8_11 
REMARK    5  A    between atoms: N2_10  and  C10_14 
REMARK    6  A    between atoms: C10_14  and  N3_16 
REMARK    7  A    between atoms: N3_16  and  C12_19 
ROOT
HETATM    1  N2  UNL     1       9.369   5.293  27.000  1.00  0.00    -0.158 N 
ENDROOT
BRANCH   1   2
HETATM    2  C7  UNL     1       8.920   3.962  27.030  1.00  0.00     0.678 C 
HETATM    3  N1  UNL     1       9.251   2.934  26.124  1.00  0.00    -0.217 N 
HETATM    4  C4  UNL     1       9.370   1.531  26.552  1.00  0.00     0.143 C 
HETATM    5  C3  UNL     1       8.823   1.344  27.946  1.00  0.00     0.045 C 
HETATM    6  C2  UNL     1       7.629   2.255  28.075  1.00  0.00     0.096 C 
HETATM    7  C1  UNL     1       6.852   2.025  29.337  1.00  0.00     0.032 C 
HETATM    8  N4  UNL     1       8.109   3.632  28.009  1.00  0.00    -0.222 N 
ATOM      9  H4  UNL     1       7.823   4.320  28.705  1.00  0.00     0.178 HD
BRANCH   3  10
HETATM   10  C5  UNL     1       9.489   3.196  24.733  1.00  0.00     0.156 C 
BRANCH  10  11
HETATM   11  C6  UNL     1      10.701   2.441  24.208  1.00  0.00     0.135 C 
HETATM   12 CL1  UNL     1      10.223   1.323  22.907  1.00  0.00    -0.129 Cl
ENDBRANCH  10  11
ENDBRANCH   3  10
ENDBRANCH   1   2
BRANCH   1  13
HETATM   13  C8  UNL     1      10.750   5.592  27.268  1.00  0.00     0.286 C 
HETATM   14  C9  UNL     1      11.643   5.705  26.073  1.00  0.00     0.069 C 
HETATM   15  F1  UNL     1      11.252   4.534  28.030  1.00  0.00    -0.227 F 
ENDBRANCH   1  13
BRANCH   1  16
HETATM   16  C10 UNL     1       8.450   6.382  26.760  1.00  0.00     0.301 C 
HETATM   17  C11 UNL     1       7.561   6.170  25.583  1.00  0.00     0.064 C 
BRANCH  16  18
HETATM   18  N3  UNL     1       7.834   6.858  27.941  1.00  0.00    -0.050 N 
ATOM     19  H32 UNL     1       6.833   6.986  27.792  1.00  0.00     0.280 HD
ATOM     20  H31 UNL     1       7.814   6.126  28.651  1.00  0.00     0.280 HD
BRANCH  18  21
HETATM   21  C12 UNL     1       8.420   8.063  28.480  1.00  0.00     0.180 C 
HETATM   22  C13 UNL     1       9.228   7.802  29.735  1.00  0.00     0.039 C 
HETATM   23  C14 UNL     1       7.244   8.962  28.889  1.00  0.00     0.039 C 
ENDBRANCH  18  21
ENDBRANCH  16  18
ENDBRANCH   1  16
TORSDOF 7
ENDMDL
MODEL 5
REMARK VINA RESULT: -5.166846534      1.879      4.183
REMARK  7 active torsions:
REMARK  status: ('A' for Active; 'I' for Inactive)
REMARK    1  A    between atoms: N1_5  and  C5_6 
REMARK    2  A    between atoms: C5_6  and  C6_7 
REMARK    3  A    between atoms: C7_9  and  N2_10 
REMARK    4  A    between atoms: N2_10  and  C8_11 
REMARK    5  A    between atoms: N2_10  and  C10_14 
REMARK    6  A    between atoms: C10_14  and  N3_16 
REMARK    7  A    between atoms: N3_16  and  C12_19 
ROOT
HETATM    1  N2  UNL     1       8.434   4.445  24.755  1.00  0.00    -0.158 N 
ENDROOT
BRANCH   1   2
HETATM    2  C7  UNL     1       8.284   4.158  26.123  1.00  0.00     0.678 C 
HETATM    3  N1  UNL     1       8.105   5.085  27.169  1.00  0.00    -0.217 N 
HETATM    4  C4  UNL     1       7.284   4.772  28.350  1.00  0.00     0.143 C 
HETATM    5  C3  UNL     1       6.943   3.303  28.397  1.00  0.00     0.045 C 
HETATM    6  C2  UNL     1       8.147   2.557  27.880  1.00  0.00     0.096 C 
HETATM    7  C1  UNL     1       8.037   1.073  28.063  1.00  0.00     0.032 C 
HETATM    8  N4  UNL     1       8.307   2.891  26.468  1.00  0.00    -0.222 N 
ATOM      9  H4  UNL     1       8.432   2.160  25.768  1.00  0.00     0.178 HD
BRANCH   3  10
HETATM   10  C5  UNL     1       8.713   6.385  27.144  1.00  0.00     0.156 C 
BRANCH  10  11
HETATM   11  C6  UNL     1       9.940   6.459  28.040  1.00  0.00     0.135 C 
HETATM   12 CL1  UNL     1       9.659   7.585  29.390  1.00  0.00    -0.129 Cl
ENDBRANCH  10  11
ENDBRANCH   3  10
ENDBRANCH   1   2
BRANCH   1  13
HETATM   13  C8  UNL     1       7.309   4.915  23.992  1.00  0.00     0.286 C 
HETATM   14  C9  UNL     1       7.217   6.396  23.800  1.00  0.00     0.069 C 
HETATM   15  F1  UNL     1       6.161   4.541  24.694  1.00  0.00    -0.227 F 
ENDBRANCH   1  13
BRANCH   1  16
HETATM   16  C10 UNL     1       9.692   4.219  24.082  1.00  0.00     0.301 C 
HETATM   17  C11 UNL     1      10.885   4.588  24.896  1.00  0.00     0.064 C 
BRANCH  16  18
HETATM   18  N3  UNL     1       9.745   2.976  23.408  1.00  0.00    -0.050 N 
ATOM     19  H32 UNL     1       8.872   2.465  23.536  1.00  0.00     0.280 HD
ATOM     20  H31 UNL     1       9.720   3.118  22.398  1.00  0.00     0.280 HD
BRANCH  18  21
HETATM   21  C12 UNL     1      10.870   2.145  23.770  1.00  0.00     0.180 C 
HETATM   22  C13 UNL     1      11.619   1.626  22.559  1.00  0.00     0.039 C 
HETATM   23  C14 UNL     1      10.281   0.920  24.484  1.00  0.00     0.039 C 
ENDBRANCH  18  21
ENDBRANCH  16  18
ENDBRANCH   1  16
TORSDOF 7
ENDMDL
