MODEL 1
REMARK VINA RESULT: -6.758368641      0.000      0.000
REMARK  7 active torsions:
REMARK  status: ('A' for Active; 'I' for Inactive)
REMARK    1  A    between atoms: C2_2  and  C3_3 
REMARK    2  A    between atoms: C3_3  and  C4_4 
REMARK    3  A    between atoms: C4_4  and  C5_5 
REMARK    4  A    between atoms: C5_5  and  N1_6 
REMARK    5  A    between atoms: N1_6  and  C6_9 
REMARK    6  A    between atoms: C11_17  and  C13_19 
REMARK    7  A    between atoms: C13_19  and  C14_20 
ROOT
HETATM    1  C6  UNL     1       9.704   3.771  27.179  1.00  0.00     0.195 C 
HETATM    2  C7  UNL     1      10.877   4.613  27.449  1.00  0.00     0.109 C 
HETATM    3  C8  UNL     1      11.021   5.750  26.540  1.00  0.00     0.085 A 
HETATM    4  N2  UNL     1      11.528   6.978  26.769  1.00  0.00    -0.354 N 
ATOM      5  H2  UNL     1      11.894   7.303  27.664  1.00  0.00     0.166 HD
HETATM    6  C9  UNL     1      11.482   7.705  25.654  1.00  0.00     0.106 A 
HETATM    7  C10 UNL     1      10.918   6.867  24.712  1.00  0.00     0.110 A 
HETATM    8  N3  UNL     1      10.635   5.679  25.237  1.00  0.00    -0.336 N 
HETATM    9  C11 UNL     1      10.021   4.458  24.751  1.00  0.00     0.042 C 
HETATM   10  C12 UNL     1       9.068   4.871  23.647  1.00  0.00     0.039 C 
HETATM   11  C16 UNL     1       9.075   3.950  25.869  1.00  0.00     0.064 C 
ENDROOT
BRANCH   1  12
HETATM   12  N1  UNL     1       9.960   2.350  27.451  1.00  0.00    -0.070 N 
ATOM     13  H12 UNL     1      10.377   2.222  28.374  1.00  0.00     0.277 HD
ATOM     14  H11 UNL     1      10.726   1.998  26.876  1.00  0.00     0.277 HD
BRANCH  12  15
HETATM   15  C5  UNL     1       8.799   1.550  27.300  1.00  0.00     0.233 C 
BRANCH  15  16
HETATM   16  C4  UNL     1       8.250   0.942  28.554  1.00  0.00     0.031 C 
BRANCH  16  17
HETATM   17  C3  UNL     1       7.152   1.847  29.083  1.00  0.00     0.028 C 
BRANCH  17  18
HETATM   18  C2  UNL     1       6.734   1.493  30.455  1.00  0.00    -0.037 C 
HETATM   19  C1  UNL     1       6.093   2.369  31.227  1.00  0.00     0.007 C 
ENDBRANCH  17  18
ENDBRANCH  16  17
ENDBRANCH  15  16
ENDBRANCH  12  15
ENDBRANCH   1  12
BRANCH   9  20
HETATM   20  C13 UNL     1      10.956   3.400  24.420  1.00  0.00     0.109 C 
BRANCH  20  21
HETATM   21  C14 UNL     1      10.638   2.244  23.584  1.00  0.00     0.242 C 
HETATM   22  C15 UNL     1      11.689   1.713  22.657  1.00  0.00     0.090 C 
HETATM   23  F1  UNL     1       9.414   2.350  22.918  1.00  0.00    -0.207 F 
HETATM   24  F2  UNL     1      10.378   1.175  24.478  1.00  0.00    -0.207 F 
ENDBRANCH  20  21
ENDBRANCH   9  20
TORSDOF 7
ENDMDL
MODEL 2
REMARK VINA RESULT: -6.742741883      2.330      5.591
REMARK  7 active torsions:
REMARK  status: ('A' for Active; 'I' for Inactive)
REMARK    1  A    between atoms: C2_2  and  C3_3 
REMARK    2  A    between atoms: C3_3  and  C4_4 
REMARK    3  A    between atoms: C4_4  and  C5_5 
REMARK    4  A    between atoms: C5_5  and  N1_6 
REMARK    5  A    between atoms: N1_6  and  C6_9 
REMARK    6  A    between atoms: C11_17  and  C13_19 
REMARK    7  A    between atoms: C13_19  and  C14_20 
ROOT
HETATM    1  C6  UNL     1      10.818   3.849  24.257  1.00  0.00     0.195 C 
HETATM    2  C7  UNL     1       9.417   3.991  23.841  1.00  0.00     0.109 C 
HETATM    3  C8  UNL     1       8.659   4.974  24.616  1.00  0.00     0.085 A 
HETATM    4  N2  UNL     1       7.648   5.780  24.232  1.00  0.00    -0.354 N 
ATOM      5  H2  UNL     1       7.258   5.821  23.290  1.00  0.00     0.166 HD
HETATM    6  C9  UNL     1       7.233   6.513  25.264  1.00  0.00     0.106 A 
HETATM    7  C10 UNL     1       8.038   6.124  26.316  1.00  0.00     0.110 A 
HETATM    8  N3  UNL     1       8.906   5.192  25.935  1.00  0.00    -0.336 N 
HETATM    9  C11 UNL     1       9.982   4.462  26.579  1.00  0.00     0.042 C 
HETATM   10  C12 UNL     1      10.509   5.363  27.678  1.00  0.00     0.039 C 
HETATM   11  C16 UNL     1      11.157   4.403  25.569  1.00  0.00     0.064 C 
ENDROOT
BRANCH   1  12
HETATM   12  N1  UNL     1      11.304   2.468  24.127  1.00  0.00    -0.070 N 
ATOM     13  H12 UNL     1      11.815   2.178  24.960  1.00  0.00     0.277 HD
ATOM     14  H11 UNL     1      12.057   2.407  23.442  1.00  0.00     0.277 HD
BRANCH  12  15
HETATM   15  C5  UNL     1      10.263   1.553  23.823  1.00  0.00     0.233 C 
BRANCH  15  16
HETATM   16  C4  UNL     1      10.369   0.846  22.507  1.00  0.00     0.031 C 
BRANCH  16  17
HETATM   17  C3  UNL     1      11.785   1.015  21.987  1.00  0.00     0.028 C 
BRANCH  17  18
HETATM   18  C2  UNL     1      12.080   0.132  20.840  1.00  0.00    -0.037 C 
HETATM   19  C1  UNL     1      12.447  -1.136  21.023  1.00  0.00     0.007 C 
ENDBRANCH  17  18
ENDBRANCH  16  17
ENDBRANCH  15  16
ENDBRANCH  12  15
ENDBRANCH   1  12
BRANCH   9  20
HETATM   20  C13 UNL     1       9.644   3.109  26.976  1.00  0.00     0.109 C 
BRANCH  20  21
HETATM   21  C14 UNL     1       8.329   2.690  27.458  1.00  0.00     0.242 C 
HETATM   22  C15 UNL     1       8.205   1.372  28.160  1.00  0.00     0.090 C 
HETATM   23  F1  UNL     1       7.310   2.832  26.512  1.00  0.00    -0.207 F 
HETATM   24  F2  UNL     1       7.945   3.649  28.429  1.00  0.00    -0.207 F 
ENDBRANCH  20  21
ENDBRANCH   9  20
TORSDOF 7
ENDMDL
MODEL 3
REMARK VINA RESULT: -6.696545334      1.315      1.512
REMARK  7 active torsions:
REMARK  status: ('A' for Active; 'I' for Inactive)
REMARK    1  A    between atoms: C2_2  and  C3_3 
REMARK    2  A    between atoms: C3_3  and  C4_4 
REMARK    3  A    between atoms: C4_4  and  C5_5 
REMARK    4  A    between atoms: C5_5  and  N1_6 
REMARK    5  A    between atoms: N1_6  and  C6_9 
REMARK    6  A    between atoms: C11_17  and  C13_19 
REMARK    7  A    between atoms: C13_19  and  C14_20 
ROOT
HETATM    1  C6  UNL     1       8.237   3.062  27.121  1.00  0.00     0.195 C 
HETATM    2  C7  UNL     1       9.567   3.234  27.720  1.00  0.00     0.109 C 
HETATM    3  C8  UNL     1      10.444   4.142  26.981  1.00  0.00     0.085 A 
HETATM    4  N2  UNL     1      11.404   4.974  27.436  1.00  0.00    -0.354 N 
ATOM      5  H2  UNL     1      11.656   5.096  28.417  1.00  0.00     0.166 HD
HETATM    6  C9  UNL     1      11.974   5.612  26.415  1.00  0.00     0.106 A 
HETATM    7  C10 UNL     1      11.320   5.136  25.295  1.00  0.00     0.110 A 
HETATM    8  N3  UNL     1      10.392   4.245  25.626  1.00  0.00    -0.336 N 
HETATM    9  C11 UNL     1       9.406   3.466  24.900  1.00  0.00     0.042 C 
HETATM   10  C12 UNL     1       9.056   4.270  23.663  1.00  0.00     0.039 C 
HETATM   11  C16 UNL     1       8.099   3.500  25.731  1.00  0.00     0.064 C 
ENDROOT
BRANCH   1  12
HETATM   12  N1  UNL     1       7.715   1.700  27.299  1.00  0.00    -0.070 N 
ATOM     13  H12 UNL     1       7.870   1.135  26.464  1.00  0.00     0.277 HD
ATOM     14  H11 UNL     1       6.695   1.696  27.312  1.00  0.00     0.277 HD
BRANCH  12  15
HETATM   15  C5  UNL     1       8.243   1.062  28.451  1.00  0.00     0.233 C 
BRANCH  15  16
HETATM   16  C4  UNL     1       7.246   0.643  29.487  1.00  0.00     0.031 C 
BRANCH  16  17
HETATM   17  C3  UNL     1       6.720   1.889  30.176  1.00  0.00     0.028 C 
BRANCH  17  18
HETATM   18  C2  UNL     1       6.082   1.595  31.476  1.00  0.00    -0.037 C 
HETATM   19  C1  UNL     1       5.699   2.575  32.292  1.00  0.00     0.007 C 
ENDBRANCH  17  18
ENDBRANCH  16  17
ENDBRANCH  15  16
ENDBRANCH  12  15
ENDBRANCH   1  12
BRANCH   9  20
HETATM   20  C13 UNL     1       9.775   2.082  24.674  1.00  0.00     0.109 C 
BRANCH  20  21
HETATM   21  C14 UNL     1      10.296   1.558  23.412  1.00  0.00     0.242 C 
HETATM   22  C15 UNL     1      11.651   2.002  22.952  1.00  0.00     0.090 C 
HETATM   23  F1  UNL     1       9.382   1.619  22.356  1.00  0.00    -0.207 F 
HETATM   24  F2  UNL     1      10.422   0.158  23.593  1.00  0.00    -0.207 F 
ENDBRANCH  20  21
ENDBRANCH   9  20
TORSDOF 7
ENDMDL
MODEL 4
REMARK VINA RESULT: -6.659987767      2.219      6.036
REMARK  7 active torsions:
REMARK  status: ('A' for Active; 'I' for Inactive)
REMARK    1  A    between atoms: C2_2  and  C3_3 
REMARK    2  A    between atoms: C3_3  and  C4_4 
REMARK    3  A    between atoms: C4_4  and  C5_5 
REMARK    4  A    between atoms: C5_5  and  N1_6 
REMARK    5  A    between atoms: N1_6  and  C6_9 
REMARK    6  A    between atoms: C11_17  and  C13_19 
REMARK    7  A    between atoms: C13_19  and  C14_20 
ROOT
HETATM    1  C6  UNL     1       9.792   2.100  25.244  1.00  0.00     0.195 C 
HETATM    2  C7  UNL     1       9.717   1.422  26.544  1.00  0.00     0.109 C 
HETATM    3  C8  UNL     1       8.679   1.944  27.434  1.00  0.00     0.085 A 
HETATM    4  N2  UNL     1       7.934   1.304  28.357  1.00  0.00    -0.354 N 
ATOM      5  H2  UNL     1       7.990   0.307  28.566  1.00  0.00     0.166 HD
HETATM    6  C9  UNL     1       7.113   2.165  28.957  1.00  0.00     0.106 A 
HETATM    7  C10 UNL     1       7.385   3.381  28.360  1.00  0.00     0.110 A 
HETATM    8  N3  UNL     1       8.332   3.259  27.436  1.00  0.00    -0.336 N 
HETATM    9  C11 UNL     1       8.976   4.158  26.496  1.00  0.00     0.042 C 
HETATM   10  C12 UNL     1       7.965   5.242  26.182  1.00  0.00     0.039 C 
HETATM   11  C16 UNL     1       9.109   3.392  25.155  1.00  0.00     0.064 C 
ENDROOT
BRANCH   1  12
HETATM   12  N1  UNL     1      11.170   2.197  24.741  1.00  0.00    -0.070 N 
ATOM     13  H12 UNL     1      11.729   1.402  25.050  1.00  0.00     0.277 HD
ATOM     14  H11 UNL     1      11.680   2.947  25.208  1.00  0.00     0.277 HD
BRANCH  12  15
HETATM   15  C5  UNL     1      11.225   2.343  23.332  1.00  0.00     0.233 C 
BRANCH  15  16
HETATM   16  C4  UNL     1      11.027   1.093  22.530  1.00  0.00     0.031 C 
BRANCH  16  17
HETATM   17  C3  UNL     1      12.210   0.936  21.592  1.00  0.00     0.028 C 
BRANCH  17  18
HETATM   18  C2  UNL     1      12.093  -0.253  20.722  1.00  0.00    -0.037 C 
HETATM   19  C1  UNL     1      12.482  -1.456  21.143  1.00  0.00     0.007 C 
ENDBRANCH  17  18
ENDBRANCH  16  17
ENDBRANCH  15  16
ENDBRANCH  12  15
ENDBRANCH   1  12
BRANCH   9  20
HETATM   20  C13 UNL     1      10.292   4.615  26.901  1.00  0.00     0.109 C 
BRANCH  20  21
HETATM   21  C14 UNL     1      11.105   5.569  26.149  1.00  0.00     0.242 C 
HETATM   22  C15 UNL     1      11.016   7.024  26.497  1.00  0.00     0.090 C 
HETATM   23  F1  UNL     1      11.038   5.397  24.763  1.00  0.00    -0.207 F 
HETATM   24  F2  UNL     1      12.455   5.222  26.409  1.00  0.00    -0.207 F 
ENDBRANCH  20  21
ENDBRANCH   9  20
TORSDOF 7
ENDMDL
MODEL 5
REMARK VINA RESULT: -6.555381282      1.277      1.676
REMARK  7 active torsions:
REMARK  status: ('A' for Active; 'I' for Inactive)
REMARK    1  A    between atoms: C2_2  and  C3_3 
REMARK    2  A    between atoms: C3_3  and  C4_4 
REMARK    3  A    between atoms: C4_4  and  C5_5 
REMARK    4  A    between atoms: C5_5  and  N1_6 
REMARK    5  A    between atoms: N1_6  and  C6_9 
REMARK    6  A    between atoms: C11_17  and  C13_19 
REMARK    7  A    between atoms: C13_19  and  C14_20 
ROOT
HETATM    1  C6  UNL     1       8.420   2.985  27.305  1.00  0.00     0.195 C 
HETATM    2  C7  UNL     1       9.828   3.249  27.629  1.00  0.00     0.109 C 
HETATM    3  C8  UNL     1      10.415   4.364  26.885  1.00  0.00     0.085 A 
HETATM    4  N2  UNL     1      11.364   5.246  27.259  1.00  0.00    -0.354 N 
ATOM      5  H2  UNL     1      11.822   5.260  28.171  1.00  0.00     0.166 HD
HETATM    6  C9  UNL     1      11.616   6.094  26.264  1.00  0.00     0.106 A 
HETATM    7  C10 UNL     1      10.773   5.697  25.244  1.00  0.00     0.110 A 
HETATM    8  N3  UNL     1      10.041   4.650  25.609  1.00  0.00    -0.336 N 
HETATM    9  C11 UNL     1       8.998   3.856  24.987  1.00  0.00     0.042 C 
HETATM   10  C12 UNL     1       8.293   4.772  24.007  1.00  0.00     0.039 C 
HETATM   11  C16 UNL     1       7.921   3.593  26.071  1.00  0.00     0.064 C 
ENDROOT
BRANCH   1  12
HETATM   12  N1  UNL     1       8.093   1.553  27.357  1.00  0.00    -0.070 N 
ATOM     13  H12 UNL     1       8.897   1.004  27.663  1.00  0.00     0.277 HD
ATOM     14  H11 UNL     1       7.979   1.168  26.419  1.00  0.00     0.277 HD
BRANCH  12  15
HETATM   15  C5  UNL     1       6.956   1.284  28.160  1.00  0.00     0.233 C 
BRANCH  15  16
HETATM   16  C4  UNL     1       7.200   1.172  29.634  1.00  0.00     0.031 C 
BRANCH  16  17
HETATM   17  C3  UNL     1       6.423   2.273  30.332  1.00  0.00     0.028 C 
BRANCH  17  18
HETATM   18  C2  UNL     1       6.034   1.910  31.710  1.00  0.00    -0.037 C 
HETATM   19  C1  UNL     1       5.627   2.834  32.578  1.00  0.00     0.007 C 
ENDBRANCH  17  18
ENDBRANCH  16  17
ENDBRANCH  15  16
ENDBRANCH  12  15
ENDBRANCH   1  12
BRANCH   9  20
HETATM   20  C13 UNL     1       9.442   2.581  24.458  1.00  0.00     0.109 C 
BRANCH  20  21
HETATM   21  C14 UNL     1      10.652   2.390  23.659  1.00  0.00     0.242 C 
HETATM   22  C15 UNL     1      10.689   1.271  22.663  1.00  0.00     0.090 C 
HETATM   23  F1  UNL     1      11.831   2.411  24.408  1.00  0.00    -0.207 F 
HETATM   24  F2  UNL     1      10.794   3.566  22.879  1.00  0.00    -0.207 F 
ENDBRANCH  20  21
ENDBRANCH   9  20
TORSDOF 7
ENDMDL
