MODEL 1
REMARK VINA RESULT: -6.579094870      0.000      0.000
REMARK  5 active torsions:
REMARK  status: ('A' for Active; 'I' for Inactive)
REMARK    1  A    between atoms: C4_4  and  C5_5 
REMARK    2  A    between atoms: C8_9  and  C9_10 
REMARK    3  A    between atoms: C9_10  and  N1_11 
REMARK    4  A    between atoms: C14_16  and  O2_17 
REMARK    5  A    between atoms: O2_17  and  C15_18 
ROOT
HETATM    1  C1  UNL     1      11.353   1.554  22.747  1.00  0.00     0.068 C 
HETATM    2  C2  UNL     1      10.616   2.198  23.844  1.00  0.00     0.008 A 
HETATM    3  C3  UNL     1      10.617   3.565  24.165  1.00  0.00     0.036 A 
HETATM    4  C4  UNL     1       9.814   3.767  25.258  1.00  0.00     0.002 A 
HETATM    5  C14 UNL     1       9.315   2.475  25.591  1.00  0.00     0.154 A 
HETATM    6  N2  UNL     1       9.810   1.577  24.736  1.00  0.00    -0.340 N 
ATOM      7  H2  UNL     1       9.612   0.576  24.753  1.00  0.00     0.167 HD
ENDROOT
BRANCH   4   8
HETATM    8  C5  UNL     1       9.438   5.045  25.829  1.00  0.00     0.056 C 
HETATM    9  C6  UNL     1       9.492   5.004  27.386  1.00  0.00     0.038 C 
HETATM   10  C7  UNL     1      10.935   4.928  27.647  1.00  0.00     0.169 C 
HETATM   11  O1  UNL     1      11.565   5.550  26.524  1.00  0.00    -0.383 OA
HETATM   12  C8  UNL     1      10.512   6.115  25.777  1.00  0.00     0.158 C 
BRANCH  12  13
HETATM   13  C9  UNL     1      10.935   6.664  24.515  1.00  0.00     0.304 C 
BRANCH  13  14
HETATM   14  N1  UNL     1      11.207   8.104  24.623  1.00  0.00     0.090 N 
HETATM   15  C10 UNL     1      12.484   8.433  25.131  1.00  0.00     0.272 C 
HETATM   16  C11 UNL     1      13.272   9.183  24.083  1.00  0.00     0.032 C 
HETATM   17  C12 UNL     1      12.341   9.337  22.930  1.00  0.00     0.032 C 
HETATM   18  C13 UNL     1      11.035   8.805  23.384  1.00  0.00     0.272 C 
ENDBRANCH  13  14
ENDBRANCH  12  13
ENDBRANCH   4   8
BRANCH   5  19
HETATM   19  O2  UNL     1       8.483   2.231  26.631  1.00  0.00    -0.273 OA
BRANCH  19  20
HETATM   20  C15 UNL     1       8.685   1.366  27.714  1.00  0.00     0.506 C 
HETATM   21  F1  UNL     1       7.979   1.701  28.881  1.00  0.00    -0.184 F 
HETATM   22  F2  UNL     1      10.045   1.573  28.130  1.00  0.00    -0.184 F 
ENDBRANCH  19  20
ENDBRANCH   5  19
TORSDOF 5
ENDMDL
MODEL 2
REMARK VINA RESULT: -6.566484635      3.310      4.692
REMARK  5 active torsions:
REMARK  status: ('A' for Active; 'I' for Inactive)
REMARK    1  A    between atoms: C4_4  and  C5_5 
REMARK    2  A    between atoms: C8_9  and  C9_10 
REMARK    3  A    between atoms: C9_10  and  N1_11 
REMARK    4  A    between atoms: C14_16  and  O2_17 
REMARK    5  A    between atoms: O2_17  and  C15_18 
ROOT
HETATM    1  C1  UNL     1       8.236   0.847  28.308  1.00  0.00     0.068 C 
HETATM    2  C2  UNL     1       8.886   1.703  27.305  1.00  0.00     0.008 A 
HETATM    3  C3  UNL     1       8.749   3.094  27.174  1.00  0.00     0.036 A 
HETATM    4  C4  UNL     1       9.507   3.519  26.114  1.00  0.00     0.002 A 
HETATM    5  C14 UNL     1      10.119   2.339  25.602  1.00  0.00     0.154 A 
HETATM    6  N2  UNL     1       9.729   1.289  26.330  1.00  0.00    -0.340 N 
ATOM      7  H2  UNL     1      10.020   0.324  26.174  1.00  0.00     0.167 HD
ENDROOT
BRANCH   4   8
HETATM    8  C5  UNL     1       9.749   4.893  25.720  1.00  0.00     0.056 C 
HETATM    9  C6  UNL     1       9.723   5.048  24.170  1.00  0.00     0.038 C 
HETATM   10  C7  UNL     1       8.302   4.852  23.859  1.00  0.00     0.169 C 
HETATM   11  O1  UNL     1       7.589   5.252  25.032  1.00  0.00    -0.383 OA
HETATM   12  C8  UNL     1       8.562   5.826  25.876  1.00  0.00     0.158 C 
BRANCH  12  13
HETATM   13  C9  UNL     1       8.061   6.159  27.183  1.00  0.00     0.304 C 
BRANCH  13  14
HETATM   14  N1  UNL     1       8.553   7.470  27.627  1.00  0.00     0.090 N 
HETATM   15  C10 UNL     1       7.593   8.279  28.276  1.00  0.00     0.272 C 
HETATM   16  C11 UNL     1       8.022   8.538  29.701  1.00  0.00     0.032 C 
HETATM   17  C12 UNL     1       9.349   7.875  29.834  1.00  0.00     0.032 C 
HETATM   18  C13 UNL     1       9.701   7.383  28.482  1.00  0.00     0.272 C 
ENDBRANCH  13  14
ENDBRANCH  12  13
ENDBRANCH   4   8
BRANCH   5  19
HETATM   19  O2  UNL     1      10.948   2.320  24.533  1.00  0.00    -0.273 OA
BRANCH  19  20
HETATM   20  C15 UNL     1      10.835   1.554  23.365  1.00  0.00     0.506 C 
HETATM   21  F1  UNL     1      11.865   1.742  22.430  1.00  0.00    -0.184 F 
HETATM   22  F2  UNL     1       9.702   2.087  22.658  1.00  0.00    -0.184 F 
ENDBRANCH  19  20
ENDBRANCH   5  19
TORSDOF 5
ENDMDL
MODEL 3
REMARK VINA RESULT: -6.557948055      3.163      4.827
REMARK  5 active torsions:
REMARK  status: ('A' for Active; 'I' for Inactive)
REMARK    1  A    between atoms: C4_4  and  C5_5 
REMARK    2  A    between atoms: C8_9  and  C9_10 
REMARK    3  A    between atoms: C9_10  and  N1_11 
REMARK    4  A    between atoms: C14_16  and  O2_17 
REMARK    5  A    between atoms: O2_17  and  C15_18 
ROOT
HETATM    1  C1  UNL     1       7.931   1.055  28.249  1.00  0.00     0.068 C 
HETATM    2  C2  UNL     1       8.820   1.742  27.300  1.00  0.00     0.008 A 
HETATM    3  C3  UNL     1       9.141   3.109  27.292  1.00  0.00     0.036 A 
HETATM    4  C4  UNL     1       9.991   3.361  26.247  1.00  0.00     0.002 A 
HETATM    5  C14 UNL     1      10.185   2.097  25.617  1.00  0.00     0.154 A 
HETATM    6  N2  UNL     1       9.478   1.169  26.267  1.00  0.00    -0.340 N 
ATOM      7  H2  UNL     1       9.440   0.179  26.020  1.00  0.00     0.167 HD
ENDROOT
BRANCH   4   8
HETATM    8  C5  UNL     1      10.664   4.613  25.962  1.00  0.00     0.056 C 
HETATM    9  C6  UNL     1      10.604   4.953  24.443  1.00  0.00     0.038 C 
HETATM   10  C7  UNL     1       9.186   5.280  24.252  1.00  0.00     0.169 C 
HETATM   11  O1  UNL     1       8.721   5.750  25.519  1.00  0.00    -0.383 OA
HETATM   12  C8  UNL     1       9.879   5.861  26.317  1.00  0.00     0.158 C 
BRANCH  12  13
HETATM   13  C9  UNL     1       9.597   6.181  27.692  1.00  0.00     0.304 C 
BRANCH  13  14
HETATM   14  N1  UNL     1       8.249   6.744  27.844  1.00  0.00     0.090 N 
HETATM   15  C10 UNL     1       7.376   5.989  28.660  1.00  0.00     0.272 C 
HETATM   16  C11 UNL     1       6.975   6.801  29.869  1.00  0.00     0.032 C 
HETATM   17  C12 UNL     1       7.624   8.128  29.679  1.00  0.00     0.032 C 
HETATM   18  C13 UNL     1       8.251   8.091  28.338  1.00  0.00     0.272 C 
ENDBRANCH  13  14
ENDBRANCH  12  13
ENDBRANCH   4   8
BRANCH   5  19
HETATM   19  O2  UNL     1      10.959   1.908  24.524  1.00  0.00    -0.273 OA
BRANCH  19  20
HETATM   20  C15 UNL     1      10.579   1.400  23.274  1.00  0.00     0.506 C 
HETATM   21  F1  UNL     1      11.579   1.441  22.289  1.00  0.00    -0.184 F 
HETATM   22  F2  UNL     1       9.618   2.331  22.750  1.00  0.00    -0.184 F 
ENDBRANCH  19  20
ENDBRANCH   5  19
TORSDOF 5
ENDMDL
MODEL 4
REMARK VINA RESULT: -6.377792847      3.801      5.469
REMARK  5 active torsions:
REMARK  status: ('A' for Active; 'I' for Inactive)
REMARK    1  A    between atoms: C4_4  and  C5_5 
REMARK    2  A    between atoms: C8_9  and  C9_10 
REMARK    3  A    between atoms: C9_10  and  N1_11 
REMARK    4  A    between atoms: C14_16  and  O2_17 
REMARK    5  A    between atoms: O2_17  and  C15_18 
ROOT
HETATM    1  C1  UNL     1       6.060   1.550  31.794  1.00  0.00     0.068 C 
HETATM    2  C2  UNL     1       6.547   1.870  30.445  1.00  0.00     0.008 A 
HETATM    3  C3  UNL     1       6.437   3.105  29.785  1.00  0.00     0.036 A 
HETATM    4  C4  UNL     1       7.005   2.998  28.542  1.00  0.00     0.002 A 
HETATM    5  C14 UNL     1       7.474   1.655  28.465  1.00  0.00     0.154 A 
HETATM    6  N2  UNL     1       7.185   1.022  29.605  1.00  0.00    -0.340 N 
ATOM      7  H2  UNL     1       7.411   0.048  29.811  1.00  0.00     0.167 HD
ENDROOT
BRANCH   4   8
HETATM    8  C5  UNL     1       7.219   4.074  27.594  1.00  0.00     0.056 C 
HETATM    9  C6  UNL     1       6.470   3.803  26.255  1.00  0.00     0.038 C 
HETATM   10  C7  UNL     1       5.064   3.970  26.644  1.00  0.00     0.169 C 
HETATM   11  O1  UNL     1       5.073   4.868  27.756  1.00  0.00    -0.383 OA
HETATM   12  C8  UNL     1       6.403   5.327  27.848  1.00  0.00     0.158 C 
BRANCH  12  13
HETATM   13  C9  UNL     1       6.649   6.137  29.012  1.00  0.00     0.304 C 
BRANCH  13  14
HETATM   14  N1  UNL     1       7.452   7.321  28.679  1.00  0.00     0.090 N 
HETATM   15  C10 UNL     1       8.438   7.661  29.633  1.00  0.00     0.272 C 
HETATM   16  C11 UNL     1       9.810   7.553  29.010  1.00  0.00     0.032 C 
HETATM   17  C12 UNL     1       9.565   7.188  27.588  1.00  0.00     0.032 C 
HETATM   18  C13 UNL     1       8.096   7.226  27.401  1.00  0.00     0.272 C 
ENDBRANCH  13  14
ENDBRANCH  12  13
ENDBRANCH   4   8
BRANCH   5  19
HETATM   19  O2  UNL     1       8.095   1.131  27.383  1.00  0.00    -0.273 OA
BRANCH  19  20
HETATM   20  C15 UNL     1       9.421   1.323  26.971  1.00  0.00     0.506 C 
HETATM   21  F1  UNL     1      10.185   2.160  27.800  1.00  0.00    -0.184 F 
HETATM   22  F2  UNL     1       9.345   2.102  25.766  1.00  0.00    -0.184 F 
ENDBRANCH  19  20
ENDBRANCH   5  19
TORSDOF 5
ENDMDL
MODEL 5
REMARK VINA RESULT: -6.375684800      2.313      3.207
REMARK  5 active torsions:
REMARK  status: ('A' for Active; 'I' for Inactive)
REMARK    1  A    between atoms: C4_4  and  C5_5 
REMARK    2  A    between atoms: C8_9  and  C9_10 
REMARK    3  A    between atoms: C9_10  and  N1_11 
REMARK    4  A    between atoms: C14_16  and  O2_17 
REMARK    5  A    between atoms: O2_17  and  C15_18 
ROOT
HETATM    1  C1  UNL     1      10.545   1.112  22.679  1.00  0.00     0.068 C 
HETATM    2  C2  UNL     1      10.198   1.707  23.978  1.00  0.00     0.008 A 
HETATM    3  C3  UNL     1      10.001   3.071  24.249  1.00  0.00     0.036 A 
HETATM    4  C4  UNL     1       9.702   3.223  25.578  1.00  0.00     0.002 A 
HETATM    5  C14 UNL     1       9.716   1.901  26.112  1.00  0.00     0.154 A 
HETATM    6  N2  UNL     1      10.013   1.036  25.138  1.00  0.00    -0.340 N 
ATOM      7  H2  UNL     1      10.088   0.025  25.252  1.00  0.00     0.167 HD
ENDROOT
BRANCH   4   8
HETATM    8  C5  UNL     1       9.300   4.448  26.239  1.00  0.00     0.056 C 
HETATM    9  C6  UNL     1      10.320   4.852  27.346  1.00  0.00     0.038 C 
HETATM   10  C7  UNL     1      11.490   5.260  26.560  1.00  0.00     0.169 C 
HETATM   11  O1  UNL     1      10.977   5.702  25.300  1.00  0.00    -0.383 OA
HETATM   12  C8  UNL     1       9.577   5.720  25.460  1.00  0.00     0.158 C 
BRANCH  12  13
HETATM   13  C9  UNL     1       8.865   5.999  24.240  1.00  0.00     0.304 C 
BRANCH  13  14
HETATM   14  N1  UNL     1       7.479   6.404  24.510  1.00  0.00     0.090 N 
HETATM   15  C10 UNL     1       7.091   7.630  23.924  1.00  0.00     0.272 C 
HETATM   16  C11 UNL     1       5.976   7.392  22.933  1.00  0.00     0.032 C 
HETATM   17  C12 UNL     1       5.680   5.935  23.021  1.00  0.00     0.032 C 
HETATM   18  C13 UNL     1       6.516   5.412  24.127  1.00  0.00     0.272 C 
ENDBRANCH  13  14
ENDBRANCH  12  13
ENDBRANCH   4   8
BRANCH   5  19
HETATM   19  O2  UNL     1       9.478   1.608  27.411  1.00  0.00    -0.273 OA
BRANCH  19  20
HETATM   20  C15 UNL     1       8.242   1.415  28.041  1.00  0.00     0.506 C 
HETATM   21  F1  UNL     1       7.754   2.528  28.745  1.00  0.00    -0.184 F 
HETATM   22  F2  UNL     1       8.488   0.484  29.108  1.00  0.00    -0.184 F 
ENDBRANCH  19  20
ENDBRANCH   5  19
TORSDOF 5
ENDMDL
