MODEL 1
REMARK VINA RESULT: -6.761116886      0.000      0.000
REMARK  7 active torsions:
REMARK  status: ('A' for Active; 'I' for Inactive)
REMARK    1  A    between atoms: C2_2  and  N1_4 
REMARK    2  A    between atoms: N1_4  and  C4_5 
REMARK    3  A    between atoms: N1_4  and  C11_18 
REMARK    4  A    between atoms: C5_6  and  C6_7 
REMARK    5  A    between atoms: C6_7  and  C7_8 
REMARK    6  A    between atoms: C6_7  and  C10_15 
REMARK    7  A    between atoms: C11_18  and  C12_19 
ROOT
HETATM    1  C4  UNL     1      12.040   8.151  24.840  1.00  0.00     0.088 C 
HETATM    2  C5  UNL     1      13.088   8.349  25.601  1.00  0.00     0.008 C 
ENDROOT
BRANCH   1   3
HETATM    3  N1  UNL     1      11.077   7.105  25.080  1.00  0.00    -0.361 N 
BRANCH   3   4
HETATM    4  C2  UNL     1      10.156   6.866  24.022  1.00  0.00     0.080 C 
HETATM    5  C1  UNL     1      10.303   7.675  22.785  1.00  0.00     0.032 C 
HETATM    6  C3  UNL     1      10.092   5.387  23.649  1.00  0.00     0.032 C 
ENDBRANCH   3   4
BRANCH   3   7
HETATM    7  C11 UNL     1      11.185   6.473  26.350  1.00  0.00     0.120 C 
BRANCH   7   8
HETATM    8  C12 UNL     1      10.091   6.635  27.279  1.00  0.00     0.047 A 
HETATM    9  C13 UNL     1      10.179   7.525  28.326  1.00  0.00     0.031 A 
HETATM   10  C14 UNL     1       9.140   7.688  29.236  1.00  0.00     0.004 A 
HETATM   11  C15 UNL     1       7.995   6.942  29.086  1.00  0.00     0.017 A 
HETATM   12  C16 UNL     1       7.932   6.061  28.030  1.00  0.00     0.088 A 
HETATM   13  N4  UNL     1       8.958   5.935  27.177  1.00  0.00    -0.365 N 
ATOM     14  H4  UNL     1       8.869   5.270  26.409  1.00  0.00     0.165 HD
ENDBRANCH   7   8
ENDBRANCH   3   7
ENDBRANCH   1   3
BRANCH   2  15
HETATM   15  C6  UNL     1      14.022   9.440  25.284  1.00  0.00     0.142 C 
BRANCH  15  16
HETATM   16  C7  UNL     1      14.502  10.140  26.501  1.00  0.00     0.094 A 
HETATM   17  N2  UNL     1      14.498  11.467  26.708  1.00  0.00    -0.354 N 
HETATM   18  C8  UNL     1      15.009  11.760  27.930  1.00  0.00     0.106 A 
ATOM     19  H2  UNL     1      14.158  12.158  26.039  1.00  0.00     0.166 HD
HETATM   20  C9  UNL     1      15.342  10.554  28.492  1.00  0.00     0.106 A 
HETATM   21  N3  UNL     1      15.026   9.597  27.609  1.00  0.00    -0.354 N 
ATOM     22  H3  UNL     1      15.163   8.598  27.758  1.00  0.00     0.166 HD
ENDBRANCH  15  16
BRANCH  15  23
HETATM   23  C10 UNL     1      15.215   8.952  24.480  1.00  0.00     0.368 C 
HETATM   24  F1  UNL     1      14.919   8.828  23.141  1.00  0.00    -0.213 F 
HETATM   25  F2  UNL     1      15.609   7.733  25.012  1.00  0.00    -0.213 F 
ENDBRANCH  15  23
ENDBRANCH   2  15
TORSDOF 7
ENDMDL
MODEL 2
REMARK VINA RESULT: -6.589504911      1.505      3.133
REMARK  7 active torsions:
REMARK  status: ('A' for Active; 'I' for Inactive)
REMARK    1  A    between atoms: C2_2  and  N1_4 
REMARK    2  A    between atoms: N1_4  and  C4_5 
REMARK    3  A    between atoms: N1_4  and  C11_18 
REMARK    4  A    between atoms: C5_6  and  C6_7 
REMARK    5  A    between atoms: C6_7  and  C7_8 
REMARK    6  A    between atoms: C6_7  and  C10_15 
REMARK    7  A    between atoms: C11_18  and  C12_19 
ROOT
HETATM    1  C4  UNL     1      12.012   8.028  25.813  1.00  0.00     0.088 C 
HETATM    2  C5  UNL     1      13.321   8.031  25.851  1.00  0.00     0.008 C 
ENDROOT
BRANCH   1   3
HETATM    3  N1  UNL     1      11.211   6.913  26.256  1.00  0.00    -0.361 N 
BRANCH   3   4
HETATM    4  C2  UNL     1       9.927   7.247  26.769  1.00  0.00     0.080 C 
HETATM    5  C1  UNL     1       8.744   6.901  25.940  1.00  0.00     0.032 C 
HETATM    6  C3  UNL     1       9.723   6.708  28.183  1.00  0.00     0.032 C 
ENDBRANCH   3   4
BRANCH   3   7
HETATM    7  C11 UNL     1      11.833   5.641  26.122  1.00  0.00     0.120 C 
BRANCH   7   8
HETATM    8  C12 UNL     1      11.045   4.559  25.577  1.00  0.00     0.047 A 
HETATM    9  C13 UNL     1      10.822   4.460  24.223  1.00  0.00     0.031 A 
HETATM   10  C14 UNL     1      10.059   3.431  23.681  1.00  0.00     0.004 A 
HETATM   11  C15 UNL     1       9.514   2.488  24.521  1.00  0.00     0.017 A 
HETATM   12  C16 UNL     1       9.753   2.610  25.871  1.00  0.00     0.088 A 
HETATM   13  N4  UNL     1      10.495   3.619  26.350  1.00  0.00    -0.365 N 
ATOM     14  H4  UNL     1      10.646   3.671  27.357  1.00  0.00     0.165 HD
ENDBRANCH   7   8
ENDBRANCH   3   7
ENDBRANCH   1   3
BRANCH   2  15
HETATM   15  C6  UNL     1      14.060   9.211  25.378  1.00  0.00     0.142 C 
BRANCH  15  16
HETATM   16  C7  UNL     1      14.478  10.096  26.494  1.00  0.00     0.094 A 
HETATM   17  N2  UNL     1      15.011   9.703  27.662  1.00  0.00    -0.354 N 
HETATM   18  C8  UNL     1      15.274  10.777  28.450  1.00  0.00     0.106 A 
ATOM     19  H2  UNL     1      15.192   8.734  27.921  1.00  0.00     0.166 HD
HETATM   20  C9  UNL     1      14.882  11.874  27.727  1.00  0.00     0.106 A 
HETATM   21  N3  UNL     1      14.406  11.433  26.554  1.00  0.00    -0.354 N 
ATOM     22  H3  UNL     1      14.041  12.031  25.812  1.00  0.00     0.166 HD
ENDBRANCH  15  16
BRANCH  15  23
HETATM   23  C10 UNL     1      15.278   8.830  24.555  1.00  0.00     0.368 C 
HETATM   24  F1  UNL     1      14.989   8.753  23.211  1.00  0.00    -0.213 F 
HETATM   25  F2  UNL     1      15.739   7.611  25.029  1.00  0.00    -0.213 F 
ENDBRANCH  15  23
ENDBRANCH   2  15
TORSDOF 7
ENDMDL
MODEL 3
REMARK VINA RESULT: -6.504769705      1.710      2.315
REMARK  7 active torsions:
REMARK  status: ('A' for Active; 'I' for Inactive)
REMARK    1  A    between atoms: C2_2  and  N1_4 
REMARK    2  A    between atoms: N1_4  and  C4_5 
REMARK    3  A    between atoms: N1_4  and  C11_18 
REMARK    4  A    between atoms: C5_6  and  C6_7 
REMARK    5  A    between atoms: C6_7  and  C7_8 
REMARK    6  A    between atoms: C6_7  and  C10_15 
REMARK    7  A    between atoms: C11_18  and  C12_19 
ROOT
HETATM    1  C4  UNL     1      12.016   8.040  24.747  1.00  0.00     0.088 C 
HETATM    2  C5  UNL     1      13.059   8.288  25.500  1.00  0.00     0.008 C 
ENDROOT
BRANCH   1   3
HETATM    3  N1  UNL     1      11.120   6.935  24.979  1.00  0.00    -0.361 N 
BRANCH   3   4
HETATM    4  C2  UNL     1       9.936   6.930  24.191  1.00  0.00     0.080 C 
HETATM    5  C1  UNL     1       8.730   7.588  24.756  1.00  0.00     0.032 C 
HETATM    6  C3  UNL     1      10.187   7.468  22.784  1.00  0.00     0.032 C 
ENDBRANCH   3   4
BRANCH   3   7
HETATM    7  C11 UNL     1      11.552   6.014  25.973  1.00  0.00     0.120 C 
BRANCH   7   8
HETATM    8  C12 UNL     1      10.828   4.770  26.102  1.00  0.00     0.047 A 
HETATM    9  C13 UNL     1      10.054   4.515  27.212  1.00  0.00     0.031 A 
HETATM   10  C14 UNL     1       9.357   3.321  27.357  1.00  0.00     0.004 A 
HETATM   11  C15 UNL     1       9.442   2.370  26.367  1.00  0.00     0.017 A 
HETATM   12  C16 UNL     1      10.222   2.651  25.268  1.00  0.00     0.088 A 
HETATM   13  N4  UNL     1      10.877   3.816  25.169  1.00  0.00    -0.365 N 
ATOM     14  H4  UNL     1      11.444   3.982  24.338  1.00  0.00     0.165 HD
ENDBRANCH   7   8
ENDBRANCH   3   7
ENDBRANCH   1   3
BRANCH   2  15
HETATM   15  C6  UNL     1      13.922   9.439  25.191  1.00  0.00     0.142 C 
BRANCH  15  16
HETATM   16  C7  UNL     1      14.437  10.099  26.417  1.00  0.00     0.094 A 
HETATM   17  N2  UNL     1      14.457  11.420  26.659  1.00  0.00    -0.354 N 
HETATM   18  C8  UNL     1      14.998  11.672  27.879  1.00  0.00     0.106 A 
ATOM     19  H2  UNL     1      14.115  12.134  26.017  1.00  0.00     0.166 HD
HETATM   20  C9  UNL     1      15.322  10.447  28.401  1.00  0.00     0.106 A 
HETATM   21  N3  UNL     1      14.974   9.518  27.499  1.00  0.00    -0.354 N 
ATOM     22  H3  UNL     1      15.099   8.513  27.619  1.00  0.00     0.166 HD
ENDBRANCH  15  16
BRANCH  15  23
HETATM   23  C10 UNL     1      15.089   9.053  24.299  1.00  0.00     0.368 C 
HETATM   24  F1  UNL     1      14.721   8.973  22.975  1.00  0.00    -0.213 F 
HETATM   25  F2  UNL     1      15.576   7.835  24.749  1.00  0.00    -0.213 F 
ENDBRANCH  15  23
ENDBRANCH   2  15
TORSDOF 7
ENDMDL
MODEL 4
REMARK VINA RESULT: -6.457895638      5.027      7.321
REMARK  7 active torsions:
REMARK  status: ('A' for Active; 'I' for Inactive)
REMARK    1  A    between atoms: C2_2  and  N1_4 
REMARK    2  A    between atoms: N1_4  and  C4_5 
REMARK    3  A    between atoms: N1_4  and  C11_18 
REMARK    4  A    between atoms: C5_6  and  C6_7 
REMARK    5  A    between atoms: C6_7  and  C7_8 
REMARK    6  A    between atoms: C6_7  and  C10_15 
REMARK    7  A    between atoms: C11_18  and  C12_19 
ROOT
HETATM    1  C4  UNL     1       7.838   3.446  27.567  1.00  0.00     0.088 C 
HETATM    2  C5  UNL     1       8.789   4.347  27.531  1.00  0.00     0.008 C 
ENDROOT
BRANCH   1   3
HETATM    3  N1  UNL     1       6.495   3.732  28.007  1.00  0.00    -0.361 N 
BRANCH   3   4
HETATM    4  C2  UNL     1       5.468   3.450  27.065  1.00  0.00     0.080 C 
HETATM    5  C1  UNL     1       4.070   3.406  27.563  1.00  0.00     0.032 C 
HETATM    6  C3  UNL     1       5.539   4.376  25.853  1.00  0.00     0.032 C 
ENDBRANCH   3   4
BRANCH   3   7
HETATM    7  C11 UNL     1       6.399   4.265  29.323  1.00  0.00     0.120 C 
BRANCH   7   8
HETATM    8  C12 UNL     1       6.223   3.337  30.416  1.00  0.00     0.047 A 
HETATM    9  C13 UNL     1       5.708   3.755  31.622  1.00  0.00     0.031 A 
HETATM   10  C14 UNL     1       5.540   2.878  32.689  1.00  0.00     0.004 A 
HETATM   11  C15 UNL     1       5.896   1.559  32.533  1.00  0.00     0.017 A 
HETATM   12  C16 UNL     1       6.407   1.167  31.317  1.00  0.00     0.088 A 
HETATM   13  N4  UNL     1       6.553   2.047  30.316  1.00  0.00    -0.365 N 
ATOM     14  H4  UNL     1       6.936   1.713  29.432  1.00  0.00     0.165 HD
ENDBRANCH   7   8
ENDBRANCH   3   7
ENDBRANCH   1   3
BRANCH   2  15
HETATM   15  C6  UNL     1      10.132   3.969  27.067  1.00  0.00     0.142 C 
BRANCH  15  16
HETATM   16  C7  UNL     1      10.111   3.375  25.707  1.00  0.00     0.094 A 
HETATM   17  N2  UNL     1       9.749   3.998  24.574  1.00  0.00    -0.354 N 
HETATM   18  C8  UNL     1       9.849   3.155  23.514  1.00  0.00     0.106 A 
ATOM     19  H2  UNL     1       9.442   4.968  24.517  1.00  0.00     0.166 HD
HETATM   20  C9  UNL     1      10.291   1.963  24.029  1.00  0.00     0.106 A 
HETATM   21  N3  UNL     1      10.439   2.125  25.351  1.00  0.00    -0.354 N 
ATOM     22  H3  UNL     1      10.757   1.400  25.995  1.00  0.00     0.166 HD
ENDBRANCH  15  16
BRANCH  15  23
HETATM   23  C10 UNL     1      11.094   5.144  27.088  1.00  0.00     0.368 C 
HETATM   24  F1  UNL     1      12.255   4.872  26.399  1.00  0.00    -0.213 F 
HETATM   25  F2  UNL     1      11.368   5.438  28.416  1.00  0.00    -0.213 F 
ENDBRANCH  15  23
ENDBRANCH   2  15
TORSDOF 7
ENDMDL
MODEL 5
REMARK VINA RESULT: -6.432929927      5.680      8.315
REMARK  7 active torsions:
REMARK  status: ('A' for Active; 'I' for Inactive)
REMARK    1  A    between atoms: C2_2  and  N1_4 
REMARK    2  A    between atoms: N1_4  and  C4_5 
REMARK    3  A    between atoms: N1_4  and  C11_18 
REMARK    4  A    between atoms: C5_6  and  C6_7 
REMARK    5  A    between atoms: C6_7  and  C7_8 
REMARK    6  A    between atoms: C6_7  and  C10_15 
REMARK    7  A    between atoms: C11_18  and  C12_19 
ROOT
HETATM    1  C4  UNL     1       7.851   2.582  28.233  1.00  0.00     0.088 C 
HETATM    2  C5  UNL     1       8.307   3.046  27.096  1.00  0.00     0.008 C 
ENDROOT
BRANCH   1   3
HETATM    3  N1  UNL     1       6.445   2.482  28.538  1.00  0.00    -0.361 N 
BRANCH   3   4
HETATM    4  C2  UNL     1       5.706   3.692  28.429  1.00  0.00     0.080 C 
HETATM    5  C1  UNL     1       4.224   3.596  28.424  1.00  0.00     0.032 C 
HETATM    6  C3  UNL     1       6.139   4.718  29.473  1.00  0.00     0.032 C 
ENDBRANCH   3   4
BRANCH   3   7
HETATM    7  C11 UNL     1       6.007   1.182  28.915  1.00  0.00     0.120 C 
BRANCH   7   8
HETATM    8  C12 UNL     1       6.229   0.765  30.281  1.00  0.00     0.047 A 
HETATM    9  C13 UNL     1       5.868   1.575  31.334  1.00  0.00     0.031 A 
HETATM   10  C14 UNL     1       6.082   1.195  32.655  1.00  0.00     0.004 A 
HETATM   11  C15 UNL     1       6.668  -0.022  32.915  1.00  0.00     0.017 A 
HETATM   12  C16 UNL     1       7.018  -0.813  31.844  1.00  0.00     0.088 A 
HETATM   13  N4  UNL     1       6.794  -0.406  30.587  1.00  0.00    -0.365 N 
ATOM     14  H4  UNL     1       7.069  -1.023  29.823  1.00  0.00     0.165 HD
ENDBRANCH   7   8
ENDBRANCH   3   7
ENDBRANCH   1   3
BRANCH   2  15
HETATM   15  C6  UNL     1       9.758   3.113  26.867  1.00  0.00     0.142 C 
BRANCH  15  16
HETATM   16  C7  UNL     1      10.143   2.578  25.538  1.00  0.00     0.094 A 
HETATM   17  N2  UNL     1      11.014   3.132  24.679  1.00  0.00    -0.354 N 
HETATM   18  C8  UNL     1      11.126   2.375  23.559  1.00  0.00     0.106 A 
ATOM     19  H2  UNL     1      11.520   4.001  24.846  1.00  0.00     0.166 HD
HETATM   20  C9  UNL     1      10.283   1.310  23.744  1.00  0.00     0.106 A 
HETATM   21  N3  UNL     1       9.703   1.459  24.944  1.00  0.00    -0.354 N 
ATOM     22  H3  UNL     1       9.025   0.813  25.347  1.00  0.00     0.166 HD
ENDBRANCH  15  16
BRANCH  15  23
HETATM   23  C10 UNL     1      10.293   4.527  27.014  1.00  0.00     0.368 C 
HETATM   24  F1  UNL     1      11.225   4.623  28.024  1.00  0.00    -0.213 F 
HETATM   25  F2  UNL     1       9.212   5.360  27.261  1.00  0.00    -0.213 F 
ENDBRANCH  15  23
ENDBRANCH   2  15
TORSDOF 7
ENDMDL
