MODEL 1
REMARK VINA RESULT: -7.486015022      0.000      0.000
REMARK  6 active torsions:
REMARK  status: ('A' for Active; 'I' for Inactive)
REMARK    1  A    between atoms: C4_4  and  C5_5 
REMARK    2  A    between atoms: C5_5  and  C6_6 
REMARK    3  A    between atoms: C6_6  and  N1_7 
REMARK    4  A    between atoms: N1_7  and  C7_9 
REMARK    5  A    between atoms: C7_9  and  C8_10 
REMARK    6  A    between atoms: C7_9  and  C15_17 
ROOT
HETATM    1  C7  UNL     1       6.931   2.240  27.838  1.00  0.00     0.153 C 
ENDROOT
BRANCH   1   2
HETATM    2  N1  UNL     1       8.031   1.726  27.094  1.00  0.00    -0.411 N 
ATOM      3  H1  UNL     1       7.846   1.020  26.381  1.00  0.00     0.153 HD
BRANCH   2   4
HETATM    4  C6  UNL     1       9.332   2.133  27.289  1.00  0.00     0.121 C 
BRANCH   4   5
HETATM    5  C5  UNL     1       9.782   2.907  26.028  1.00  0.00     0.086 C 
BRANCH   5   6
HETATM    6  C4  UNL     1      10.064   1.932  24.937  1.00  0.00     0.080 A 
HETATM    7  C3  UNL     1      10.687   2.153  23.735  1.00  0.00     0.061 A 
HETATM    8  C2  UNL     1      10.729   0.979  23.046  1.00  0.00     0.031 A 
HETATM    9  C1  UNL     1      11.318   0.770  21.699  1.00  0.00     0.070 C 
HETATM   10  N2  UNL     1      10.122   0.068  23.859  1.00  0.00    -0.266 N 
HETATM   11  O1  UNL     1       9.743   0.653  24.958  1.00  0.00    -0.242 OA
ATOM     12  H2  UNL     1       9.987  -0.919  23.639  1.00  0.00     0.194 HD
ENDBRANCH   5   6
ENDBRANCH   4   5
ENDBRANCH   2   4
ENDBRANCH   1   2
BRANCH   1  13
HETATM   13  C8  UNL     1       7.156   2.202  29.317  1.00  0.00     0.014 C 
HETATM   14  C9  UNL     1       6.094   2.870  30.139  1.00  0.00     0.007 C 
HETATM   15  C10 UNL     1       6.091   2.337  31.575  1.00  0.00     0.005 C 
HETATM   16  C11 UNL     1       5.636   0.896  31.603  1.00  0.00    -0.019 C 
HETATM   17  C12 UNL     1       6.190   0.208  32.819  1.00  0.00     0.010 C 
HETATM   18  C13 UNL     1       6.050   0.175  30.320  1.00  0.00     0.005 C 
HETATM   19  C14 UNL     1       7.332   0.807  29.856  1.00  0.00     0.007 C 
ENDBRANCH   1  13
BRANCH   1  20
HETATM   20  C15 UNL     1       6.348   3.500  27.307  1.00  0.00     0.260 C 
HETATM   21  C16 UNL     1       6.888   4.787  27.838  1.00  0.00     0.092 C 
HETATM   22  F1  UNL     1       4.981   3.517  27.415  1.00  0.00    -0.204 F 
HETATM   23  F2  UNL     1       6.579   3.511  25.917  1.00  0.00    -0.204 F 
ENDBRANCH   1  20
TORSDOF 6
ENDMDL
MODEL 2
REMARK VINA RESULT: -7.308139336      1.095      1.684
REMARK  6 active torsions:
REMARK  status: ('A' for Active; 'I' for Inactive)
REMARK    1  A    between atoms: C4_4  and  C5_5 
REMARK    2  A    between atoms: C5_5  and  C6_6 
REMARK    3  A    between atoms: C6_6  and  N1_7 
REMARK    4  A    between atoms: N1_7  and  C7_9 
REMARK    5  A    between atoms: C7_9  and  C8_10 
REMARK    6  A    between atoms: C7_9  and  C15_17 
ROOT
HETATM    1  C7  UNL     1       7.299   3.161  26.827  1.00  0.00     0.153 C 
ENDROOT
BRANCH   1   2
HETATM    2  N1  UNL     1       8.513   3.639  27.397  1.00  0.00    -0.411 N 
ATOM      3  H1  UNL     1       8.462   4.388  28.088  1.00  0.00     0.153 HD
BRANCH   2   4
HETATM    4  C6  UNL     1       9.753   3.141  27.062  1.00  0.00     0.121 C 
BRANCH   4   5
HETATM    5  C5  UNL     1      10.117   3.677  25.658  1.00  0.00     0.086 C 
BRANCH   5   6
HETATM    6  C4  UNL     1      10.241   2.528  24.719  1.00  0.00     0.080 A 
HETATM    7  C3  UNL     1      10.968   2.448  23.558  1.00  0.00     0.061 A 
HETATM    8  C2  UNL     1      10.790   1.210  23.019  1.00  0.00     0.031 A 
HETATM    9  C1  UNL     1      11.398   0.703  21.762  1.00  0.00     0.070 C 
HETATM   10  N2  UNL     1       9.949   0.566  23.877  1.00  0.00    -0.266 N 
HETATM   11  O1  UNL     1       9.644   1.360  24.861  1.00  0.00    -0.242 OA
ATOM     12  H2  UNL     1       9.612  -0.391  23.764  1.00  0.00     0.194 HD
ENDBRANCH   5   6
ENDBRANCH   4   5
ENDBRANCH   2   4
ENDBRANCH   1   2
BRANCH   1  13
HETATM   13  C8  UNL     1       6.510   2.301  27.764  1.00  0.00     0.014 C 
HETATM   14  C9  UNL     1       7.308   1.273  28.508  1.00  0.00     0.007 C 
HETATM   15  C10 UNL     1       6.588   0.834  29.787  1.00  0.00     0.005 C 
HETATM   16  C11 UNL     1       6.548   1.969  30.786  1.00  0.00    -0.019 C 
HETATM   17  C12 UNL     1       5.383   1.788  31.719  1.00  0.00     0.010 C 
HETATM   18  C13 UNL     1       6.479   3.317  30.068  1.00  0.00     0.005 C 
HETATM   19  C14 UNL     1       5.732   3.092  28.782  1.00  0.00     0.007 C 
ENDBRANCH   1  13
BRANCH   1  20
HETATM   20  C15 UNL     1       6.518   4.175  26.070  1.00  0.00     0.260 C 
HETATM   21  C16 UNL     1       6.614   5.595  26.522  1.00  0.00     0.092 C 
HETATM   22  F1  UNL     1       5.194   3.832  25.971  1.00  0.00    -0.204 F 
HETATM   23  F2  UNL     1       6.979   4.146  24.739  1.00  0.00    -0.204 F 
ENDBRANCH   1  20
TORSDOF 6
ENDMDL
MODEL 3
REMARK VINA RESULT: -7.145320258      1.697      3.353
REMARK  6 active torsions:
REMARK  status: ('A' for Active; 'I' for Inactive)
REMARK    1  A    between atoms: C4_4  and  C5_5 
REMARK    2  A    between atoms: C5_5  and  C6_6 
REMARK    3  A    between atoms: C6_6  and  N1_7 
REMARK    4  A    between atoms: N1_7  and  C7_9 
REMARK    5  A    between atoms: C7_9  and  C8_10 
REMARK    6  A    between atoms: C7_9  and  C15_17 
ROOT
HETATM    1  C7  UNL     1       7.712   2.687  28.238  1.00  0.00     0.153 C 
ENDROOT
BRANCH   1   2
HETATM    2  N1  UNL     1       8.406   3.073  27.056  1.00  0.00    -0.411 N 
ATOM      3  H1  UNL     1       7.867   3.222  26.203  1.00  0.00     0.153 HD
BRANCH   2   4
HETATM    4  C6  UNL     1       9.771   3.254  27.006  1.00  0.00     0.121 C 
BRANCH   4   5
HETATM    5  C5  UNL     1      10.133   3.751  25.587  1.00  0.00     0.086 C 
BRANCH   5   6
HETATM    6  C4  UNL     1      10.248   2.576  24.678  1.00  0.00     0.080 A 
HETATM    7  C3  UNL     1      10.979   2.459  23.522  1.00  0.00     0.061 A 
HETATM    8  C2  UNL     1      10.791   1.210  23.015  1.00  0.00     0.031 A 
HETATM    9  C1  UNL     1      11.397   0.663  21.775  1.00  0.00     0.070 C 
HETATM   10  N2  UNL     1       9.939   0.596  23.886  1.00  0.00    -0.266 N 
HETATM   11  O1  UNL     1       9.638   1.418  24.849  1.00  0.00    -0.242 OA
ATOM     12  H2  UNL     1       9.593  -0.359  23.796  1.00  0.00     0.194 HD
ENDBRANCH   5   6
ENDBRANCH   4   5
ENDBRANCH   2   4
ENDBRANCH   1   2
BRANCH   1  13
HETATM   13  C8  UNL     1       6.595   3.618  28.591  1.00  0.00     0.014 C 
HETATM   14  C9  UNL     1       6.410   3.860  30.060  1.00  0.00     0.007 C 
HETATM   15  C10 UNL     1       5.668   5.177  30.313  1.00  0.00     0.005 C 
HETATM   16  C11 UNL     1       6.530   6.353  29.917  1.00  0.00    -0.019 C 
HETATM   17  C12 UNL     1       5.661   7.533  29.579  1.00  0.00     0.010 C 
HETATM   18  C13 UNL     1       7.443   5.984  28.747  1.00  0.00     0.005 C 
HETATM   19  C14 UNL     1       6.708   4.963  27.923  1.00  0.00     0.007 C 
ENDBRANCH   1  13
BRANCH   1  20
HETATM   20  C15 UNL     1       7.398   1.237  28.336  1.00  0.00     0.260 C 
HETATM   21  C16 UNL     1       7.329   0.639  29.703  1.00  0.00     0.092 C 
HETATM   22  F1  UNL     1       8.240   0.478  27.565  1.00  0.00    -0.204 F 
HETATM   23  F2  UNL     1       6.132   1.045  27.749  1.00  0.00    -0.204 F 
ENDBRANCH   1  20
TORSDOF 6
ENDMDL
MODEL 4
REMARK VINA RESULT: -7.144279050      3.583      4.850
REMARK  6 active torsions:
REMARK  status: ('A' for Active; 'I' for Inactive)
REMARK    1  A    between atoms: C4_4  and  C5_5 
REMARK    2  A    between atoms: C5_5  and  C6_6 
REMARK    3  A    between atoms: C6_6  and  N1_7 
REMARK    4  A    between atoms: N1_7  and  C7_9 
REMARK    5  A    between atoms: C7_9  and  C8_10 
REMARK    6  A    between atoms: C7_9  and  C15_17 
ROOT
HETATM    1  C7  UNL     1       6.696   0.694  31.196  1.00  0.00     0.153 C 
ENDROOT
BRANCH   1   2
HETATM    2  N1  UNL     1       6.900   0.337  29.833  1.00  0.00    -0.411 N 
ATOM      3  H1  UNL     1       6.131  -0.100  29.325  1.00  0.00     0.153 HD
BRANCH   2   4
HETATM    4  C6  UNL     1       8.085   0.552  29.164  1.00  0.00     0.121 C 
BRANCH   4   5
HETATM    5  C5  UNL     1       7.751   1.196  27.799  1.00  0.00     0.086 C 
BRANCH   5   6
HETATM    6  C4  UNL     1       8.657   2.359  27.579  1.00  0.00     0.080 A 
HETATM    7  C3  UNL     1       8.335   3.691  27.508  1.00  0.00     0.061 A 
HETATM    8  C2  UNL     1       9.475   4.402  27.294  1.00  0.00     0.031 A 
HETATM    9  C1  UNL     1       9.579   5.877  27.155  1.00  0.00     0.070 C 
HETATM   10  N2  UNL     1      10.470   3.472  27.238  1.00  0.00    -0.266 N 
HETATM   11  O1  UNL     1       9.963   2.285  27.407  1.00  0.00    -0.242 OA
ATOM     12  H2  UNL     1      11.459   3.674  27.086  1.00  0.00     0.194 HD
ENDBRANCH   5   6
ENDBRANCH   4   5
ENDBRANCH   2   4
ENDBRANCH   1   2
BRANCH   1  13
HETATM   13  C8  UNL     1       5.586   1.681  31.383  1.00  0.00     0.014 C 
HETATM   14  C9  UNL     1       5.729   2.580  32.575  1.00  0.00     0.007 C 
HETATM   15  C10 UNL     1       4.906   3.861  32.401  1.00  0.00     0.005 C 
HETATM   16  C11 UNL     1       5.489   4.718  31.301  1.00  0.00    -0.019 C 
HETATM   17  C12 UNL     1       4.421   5.602  30.721  1.00  0.00     0.010 C 
HETATM   18  C13 UNL     1       6.135   3.847  30.223  1.00  0.00     0.005 C 
HETATM   19  C14 UNL     1       5.362   2.558  30.180  1.00  0.00     0.007 C 
ENDBRANCH   1  13
BRANCH   1  20
HETATM   20  C15 UNL     1       6.716  -0.444  32.153  1.00  0.00     0.260 C 
HETATM   21  C16 UNL     1       5.421  -1.136  32.427  1.00  0.00     0.092 C 
HETATM   22  F1  UNL     1       7.292  -0.098  33.348  1.00  0.00    -0.204 F 
HETATM   23  F2  UNL     1       7.586  -1.417  31.623  1.00  0.00    -0.204 F 
ENDBRANCH   1  20
TORSDOF 6
ENDMDL
MODEL 5
REMARK VINA RESULT: -7.060669226      2.303      3.434
REMARK  6 active torsions:
REMARK  status: ('A' for Active; 'I' for Inactive)
REMARK    1  A    between atoms: C4_4  and  C5_5 
REMARK    2  A    between atoms: C5_5  and  C6_6 
REMARK    3  A    between atoms: C6_6  and  N1_7 
REMARK    4  A    between atoms: N1_7  and  C7_9 
REMARK    5  A    between atoms: C7_9  and  C8_10 
REMARK    6  A    between atoms: C7_9  and  C15_17 
ROOT
HETATM    1  C7  UNL     1       6.546   2.135  28.262  1.00  0.00     0.153 C 
ENDROOT
BRANCH   1   2
HETATM    2  N1  UNL     1       7.553   1.659  27.375  1.00  0.00    -0.411 N 
ATOM      3  H1  UNL     1       7.264   1.123  26.556  1.00  0.00     0.153 HD
BRANCH   2   4
HETATM    4  C6  UNL     1       8.898   1.887  27.566  1.00  0.00     0.121 C 
BRANCH   4   5
HETATM    5  C5  UNL     1       9.429   2.661  26.337  1.00  0.00     0.086 C 
BRANCH   5   6
HETATM    6  C4  UNL     1      10.027   3.946  26.797  1.00  0.00     0.080 A 
HETATM    7  C3  UNL     1       9.419   4.982  27.462  1.00  0.00     0.061 A 
HETATM    8  C2  UNL     1      10.343   5.957  27.683  1.00  0.00     0.031 A 
HETATM    9  C1  UNL     1      10.108   7.251  28.372  1.00  0.00     0.070 C 
HETATM   10  N2  UNL     1      11.499   5.482  27.138  1.00  0.00    -0.266 N 
HETATM   11  O1  UNL     1      11.285   4.305  26.626  1.00  0.00    -0.242 OA
ATOM     12  H2  UNL     1      12.393   5.974  27.132  1.00  0.00     0.194 HD
ENDBRANCH   5   6
ENDBRANCH   4   5
ENDBRANCH   2   4
ENDBRANCH   1   2
BRANCH   1  13
HETATM   13  C8  UNL     1       6.918   1.987  29.704  1.00  0.00     0.014 C 
HETATM   14  C9  UNL     1       5.927   2.551  30.678  1.00  0.00     0.007 C 
HETATM   15  C10 UNL     1       6.081   1.906  32.059  1.00  0.00     0.005 C 
HETATM   16  C11 UNL     1       5.667   0.453  32.011  1.00  0.00    -0.019 C 
HETATM   17  C12 UNL     1       6.358  -0.312  33.106  1.00  0.00     0.010 C 
HETATM   18  C13 UNL     1       5.970  -0.150  30.639  1.00  0.00     0.005 C 
HETATM   19  C14 UNL     1       7.183   0.560  30.106  1.00  0.00     0.007 C 
ENDBRANCH   1  13
BRANCH   1  20
HETATM   20  C15 UNL     1       5.940   3.439  27.883  1.00  0.00     0.260 C 
HETATM   21  C16 UNL     1       5.974   3.820  26.439  1.00  0.00     0.092 C 
HETATM   22  F1  UNL     1       6.449   4.474  28.624  1.00  0.00    -0.204 F 
HETATM   23  F2  UNL     1       4.582   3.389  28.253  1.00  0.00    -0.204 F 
ENDBRANCH   1  20
TORSDOF 6
ENDMDL
