MODEL 1
REMARK VINA RESULT: -7.824125263      0.000      0.000
REMARK  13 active torsions:
REMARK  status: ('A' for Active; 'I' for Inactive)
REMARK       I    between atoms: C2_2  and  N1_4 
REMARK    1  A    between atoms: N1_4  and  C3_6 
REMARK    2  A    between atoms: C3_6  and  C4_7 
REMARK    3  A    between atoms: C4_7  and  C5_8 
REMARK    4  A    between atoms: C5_8  and  C6_9 
REMARK    5  A    between atoms: C6_9  and  N2_10 
REMARK    6  A    between atoms: N2_10  and  C7_12 
REMARK    7  A    between atoms: C8_15  and  N4_16 
REMARK    8  A    between atoms: C14_25  and  N6_26 
REMARK    9  A    between atoms: N6_26  and  C15_28 
REMARK   10  A    between atoms: C15_28  and  C16_29 
REMARK   11  A    between atoms: C15_28  and  C18_35 
REMARK   12  A    between atoms: C16_29  and  C17_30 
REMARK   13  A    between atoms: C18_35  and  C19_36 
ROOT
HETATM    1  C7  UNL     1      20.682  20.762  32.084  1.00  0.00     0.707 A 
HETATM    2  N3  UNL     1      21.561  19.910  32.637  1.00  0.00    -0.021 N 
ATOM      3  H3  UNL     1      22.440  20.285  32.994  1.00  0.00     0.203 HD
HETATM    4  C8  UNL     1      21.339  18.582  32.742  1.00  0.00     0.716 A 
HETATM    5  N5  UNL     1      20.163  18.147  32.253  1.00  0.00    -0.021 N 
ATOM      6  H5  UNL     1      19.956  17.150  32.314  1.00  0.00     0.203 HD
HETATM    7  C14 UNL     1      19.249  18.952  31.690  1.00  0.00     0.707 A 
HETATM    8  N10 UNL     1      19.510  20.260  31.607  1.00  0.00    -0.022 N 
ATOM      9  H10 UNL     1      18.826  20.887  31.183  1.00  0.00     0.203 HD
ENDROOT
BRANCH   7  10
HETATM   10  N6  UNL     1      18.184  18.438  31.263  1.00  0.00    -0.220 N 
ATOM     11  H6  UNL     1      17.338  18.774  31.724  1.00  0.00     0.178 HD
BRANCH  10  12
HETATM   12  C15 UNL     1      17.956  17.471  30.253  1.00  0.00     0.108 C 
BRANCH  12  13
HETATM   13  C16 UNL     1      17.460  16.137  30.693  1.00  0.00     0.098 C 
BRANCH  13  14
HETATM   14  C17 UNL     1      17.145  15.985  32.110  1.00  0.00     0.088 C 
HETATM   15  N7  UNL     1      16.021  16.053  32.691  1.00  0.00    -0.391 N 
ATOM     16  H72 UNL     1      15.224  16.223  32.077  1.00  0.00     0.157 HD
ATOM     17  H71 UNL     1      15.800  15.947  33.682  1.00  0.00     0.157 HD
HETATM   18  N8  UNL     1      18.265  15.746  32.975  1.00  0.00    -0.088 NA
ENDBRANCH  13  14
ENDBRANCH  12  13
BRANCH  12  19
HETATM   19  C18 UNL     1      17.065  17.991  29.169  1.00  0.00     0.051 C 
BRANCH  19  20
HETATM   20  C19 UNL     1      16.101  17.018  28.588  1.00  0.00     0.086 C 
HETATM   21  C20 UNL     1      16.673  16.650  27.208  1.00  0.00     0.026 C 
HETATM   22  C21 UNL     1      15.937  15.474  26.616  1.00  0.00     0.011 C 
HETATM   23  C22 UNL     1      14.469  15.508  26.872  1.00  0.00     0.103 C 
HETATM   24  C23 UNL     1      14.054  16.880  27.274  1.00  0.00     0.217 C 
HETATM   25  O3  UNL     1      13.099  17.420  26.676  1.00  0.00    -0.274 OA
HETATM   26  N9  UNL     1      14.781  17.511  28.333  1.00  0.00    -0.356 N 
ATOM     27  H9  UNL     1      14.379  18.274  28.878  1.00  0.00     0.162 HD
ENDBRANCH  19  20
ENDBRANCH  12  19
ENDBRANCH  10  12
ENDBRANCH   7  10
BRANCH   4  28
HETATM   28  N4  UNL     1      22.298  17.726  33.333  1.00  0.00    -0.150 N 
HETATM   29  C9  UNL     1      23.573  17.490  32.736  1.00  0.00     0.151 C 
HETATM   30  C10 UNL     1      24.717  17.474  33.697  1.00  0.00     0.021 C 
HETATM   31  C11 UNL     1      24.382  16.964  35.061  1.00  0.00     0.011 C 
HETATM   32  C12 UNL     1      23.075  16.215  35.126  1.00  0.00     0.104 C 
HETATM   33  C13 UNL     1      21.986  17.080  34.559  1.00  0.00     0.238 C 
HETATM   34  O2  UNL     1      20.894  17.212  35.128  1.00  0.00    -0.273 OA
ENDBRANCH   4  28
BRANCH   1  35
HETATM   35  N2  UNL     1      20.927  22.018  31.991  1.00  0.00    -0.225 N 
ATOM     36  H2  UNL     1      21.776  22.415  32.393  1.00  0.00     0.177 HD
BRANCH  35  37
HETATM   37  C6  UNL     1      19.973  22.857  31.304  1.00  0.00     0.138 C 
BRANCH  37  38
HETATM   38  C5  UNL     1      20.547  23.345  29.954  1.00  0.00     0.022 C 
BRANCH  38  39
HETATM   39  C4  UNL     1      19.866  22.624  28.871  1.00  0.00     0.021 C 
BRANCH  39  40
HETATM   40  C3  UNL     1      20.626  21.716  27.985  1.00  0.00     0.122 C 
BRANCH  40  41
HETATM   41  N1  UNL     1      21.480  20.735  28.537  1.00  0.00    -0.361 N 
HETATM   42  C2  UNL     1      21.357  19.339  28.558  1.00  0.00     0.213 C 
HETATM   43  C1  UNL     1      22.415  18.461  29.187  1.00  0.00     0.117 C 
HETATM   44  O1  UNL     1      20.392  18.730  28.073  1.00  0.00    -0.274 OA
ATOM     45  H1  UNL     1      22.318  21.099  28.990  1.00  0.00     0.162 HD
ENDBRANCH  40  41
ENDBRANCH  39  40
ENDBRANCH  38  39
ENDBRANCH  37  38
ENDBRANCH  35  37
ENDBRANCH   1  35
TORSDOF 13
ENDMDL
MODEL 2
REMARK VINA RESULT: -7.817077033      2.146      6.845
REMARK  13 active torsions:
REMARK  status: ('A' for Active; 'I' for Inactive)
REMARK       I    between atoms: C2_2  and  N1_4 
REMARK    1  A    between atoms: N1_4  and  C3_6 
REMARK    2  A    between atoms: C3_6  and  C4_7 
REMARK    3  A    between atoms: C4_7  and  C5_8 
REMARK    4  A    between atoms: C5_8  and  C6_9 
REMARK    5  A    between atoms: C6_9  and  N2_10 
REMARK    6  A    between atoms: N2_10  and  C7_12 
REMARK    7  A    between atoms: C8_15  and  N4_16 
REMARK    8  A    between atoms: C14_25  and  N6_26 
REMARK    9  A    between atoms: N6_26  and  C15_28 
REMARK   10  A    between atoms: C15_28  and  C16_29 
REMARK   11  A    between atoms: C15_28  and  C18_35 
REMARK   12  A    between atoms: C16_29  and  C17_30 
REMARK   13  A    between atoms: C18_35  and  C19_36 
ROOT
HETATM    1  C7  UNL     1      17.759  19.193  29.863  1.00  0.00     0.707 A 
HETATM    2  N3  UNL     1      17.104  18.559  28.878  1.00  0.00    -0.021 N 
ATOM      3  H3  UNL     1      17.092  18.985  27.951  1.00  0.00     0.203 HD
HETATM    4  C8  UNL     1      16.460  17.385  29.052  1.00  0.00     0.716 A 
HETATM    5  N5  UNL     1      16.510  16.871  30.295  1.00  0.00    -0.021 N 
ATOM      6  H5  UNL     1      16.037  15.985  30.470  1.00  0.00     0.203 HD
HETATM    7  C14 UNL     1      17.149  17.462  31.317  1.00  0.00     0.707 A 
HETATM    8  N10 UNL     1      17.773  18.623  31.099  1.00  0.00    -0.022 N 
ATOM      9  H10 UNL     1      18.264  19.086  31.865  1.00  0.00     0.203 HD
ENDROOT
BRANCH   7  10
HETATM   10  N6  UNL     1      17.130  16.895  32.440  1.00  0.00    -0.220 N 
ATOM     11  H6  UNL     1      16.205  16.834  32.866  1.00  0.00     0.178 HD
BRANCH  10  12
HETATM   12  C15 UNL     1      18.171  16.326  33.215  1.00  0.00     0.108 C 
BRANCH  12  13
HETATM   13  C16 UNL     1      17.779  15.312  34.232  1.00  0.00     0.098 C 
BRANCH  13  14
HETATM   14  C17 UNL     1      16.635  14.464  33.912  1.00  0.00     0.088 C 
HETATM   15  N7  UNL     1      16.606  13.359  33.292  1.00  0.00    -0.391 N 
ATOM     16  H72 UNL     1      17.515  13.008  32.989  1.00  0.00     0.157 HD
ATOM     17  H71 UNL     1      15.806  12.767  33.068  1.00  0.00     0.157 HD
HETATM   18  N8  UNL     1      15.356  14.958  34.338  1.00  0.00    -0.088 NA
ENDBRANCH  13  14
ENDBRANCH  12  13
BRANCH  12  19
HETATM   19  C18 UNL     1      19.265  15.767  32.361  1.00  0.00     0.051 C 
BRANCH  19  20
HETATM   20  C19 UNL     1      20.528  16.552  32.316  1.00  0.00     0.086 C 
HETATM   21  C20 UNL     1      20.454  17.514  33.514  1.00  0.00     0.026 C 
HETATM   22  C21 UNL     1      21.783  18.189  33.746  1.00  0.00     0.011 C 
HETATM   23  C22 UNL     1      22.483  18.562  32.485  1.00  0.00     0.103 C 
HETATM   24  C23 UNL     1      21.521  18.556  31.348  1.00  0.00     0.217 C 
HETATM   25  O3  UNL     1      21.459  19.559  30.606  1.00  0.00    -0.274 OA
HETATM   26  N9  UNL     1      20.712  17.390  31.168  1.00  0.00    -0.356 N 
ATOM     27  H9  UNL     1      20.287  17.166  30.268  1.00  0.00     0.162 HD
ENDBRANCH  19  20
ENDBRANCH  12  19
ENDBRANCH  10  12
ENDBRANCH   7  10
BRANCH   4  28
HETATM   28  N4  UNL     1      15.784  16.756  27.980  1.00  0.00    -0.150 N 
HETATM   29  C9  UNL     1      14.381  16.492  28.021  1.00  0.00     0.151 C 
HETATM   30  C10 UNL     1      13.657  16.775  26.745  1.00  0.00     0.021 C 
HETATM   31  C11 UNL     1      14.462  16.555  25.506  1.00  0.00     0.011 C 
HETATM   32  C12 UNL     1      15.713  15.743  25.729  1.00  0.00     0.104 C 
HETATM   33  C13 UNL     1      16.519  16.375  26.827  1.00  0.00     0.238 C 
HETATM   34  O2  UNL     1      17.741  16.546  26.723  1.00  0.00    -0.273 OA
ENDBRANCH   4  28
BRANCH   1  35
HETATM   35  N2  UNL     1      18.355  20.313  29.666  1.00  0.00    -0.225 N 
ATOM     36  H2  UNL     1      18.425  21.004  30.413  1.00  0.00     0.177 HD
BRANCH  35  37
HETATM   37  C6  UNL     1      18.922  20.572  28.364  1.00  0.00     0.138 C 
BRANCH  37  38
HETATM   38  C5  UNL     1      19.184  22.083  28.173  1.00  0.00     0.022 C 
BRANCH  38  39
HETATM   39  C4  UNL     1      20.489  22.408  28.764  1.00  0.00     0.021 C 
BRANCH  39  40
HETATM   40  C3  UNL     1      20.568  23.211  30.003  1.00  0.00     0.122 C 
BRANCH  40  41
HETATM   41  N1  UNL     1      20.784  22.578  31.248  1.00  0.00    -0.361 N 
HETATM   42  C2  UNL     1      19.867  22.175  32.228  1.00  0.00     0.213 C 
HETATM   43  C1  UNL     1      20.316  21.480  33.493  1.00  0.00     0.117 C 
HETATM   44  O1  UNL     1      18.644  22.354  32.134  1.00  0.00    -0.274 OA
ATOM     45  H1  UNL     1      21.761  22.383  31.467  1.00  0.00     0.162 HD
ENDBRANCH  40  41
ENDBRANCH  39  40
ENDBRANCH  38  39
ENDBRANCH  37  38
ENDBRANCH  35  37
ENDBRANCH   1  35
TORSDOF 13
ENDMDL
MODEL 3
REMARK VINA RESULT: -7.714265227      2.803      4.510
REMARK  13 active torsions:
REMARK  status: ('A' for Active; 'I' for Inactive)
REMARK       I    between atoms: C2_2  and  N1_4 
REMARK    1  A    between atoms: N1_4  and  C3_6 
REMARK    2  A    between atoms: C3_6  and  C4_7 
REMARK    3  A    between atoms: C4_7  and  C5_8 
REMARK    4  A    between atoms: C5_8  and  C6_9 
REMARK    5  A    between atoms: C6_9  and  N2_10 
REMARK    6  A    between atoms: N2_10  and  C7_12 
REMARK    7  A    between atoms: C8_15  and  N4_16 
REMARK    8  A    between atoms: C14_25  and  N6_26 
REMARK    9  A    between atoms: N6_26  and  C15_28 
REMARK   10  A    between atoms: C15_28  and  C16_29 
REMARK   11  A    between atoms: C15_28  and  C18_35 
REMARK   12  A    between atoms: C16_29  and  C17_30 
REMARK   13  A    between atoms: C18_35  and  C19_36 
ROOT
HETATM    1  C7  UNL     1      18.037  19.355  29.489  1.00  0.00     0.707 A 
HETATM    2  N3  UNL     1      18.595  18.740  30.544  1.00  0.00    -0.021 N 
ATOM      3  H3  UNL     1      19.370  19.201  31.021  1.00  0.00     0.203 HD
HETATM    4  C8  UNL     1      18.182  17.539  31.004  1.00  0.00     0.716 A 
HETATM    5  N5  UNL     1      17.158  16.979  30.335  1.00  0.00    -0.021 N 
ATOM      6  H5  UNL     1      16.815  16.072  30.651  1.00  0.00     0.203 HD
HETATM    7  C14 UNL     1      16.563  17.548  29.275  1.00  0.00     0.707 A 
HETATM    8  N10 UNL     1      17.005  18.737  28.853  1.00  0.00    -0.022 N 
ATOM      9  H10 UNL     1      16.564  19.184  28.049  1.00  0.00     0.203 HD
ENDROOT
BRANCH   7  10
HETATM   10  N6  UNL     1      15.616  16.934  28.722  1.00  0.00    -0.220 N 
ATOM     11  H6  UNL     1      14.727  17.434  28.730  1.00  0.00     0.178 HD
BRANCH  10  12
HETATM   12  C15 UNL     1      15.569  15.666  28.091  1.00  0.00     0.108 C 
BRANCH  12  13
HETATM   13  C16 UNL     1      14.299  15.299  27.405  1.00  0.00     0.098 C 
BRANCH  13  14
HETATM   14  C17 UNL     1      13.124  16.109  27.713  1.00  0.00     0.088 C 
HETATM   15  N7  UNL     1      12.245  15.934  28.608  1.00  0.00    -0.391 N 
ATOM     16  H72 UNL     1      12.391  15.121  29.207  1.00  0.00     0.157 HD
ATOM     17  H71 UNL     1      11.423  16.500  28.823  1.00  0.00     0.157 HD
HETATM   18  N8  UNL     1      12.919  17.252  26.870  1.00  0.00    -0.088 NA
ENDBRANCH  13  14
ENDBRANCH  12  13
BRANCH  12  19
HETATM   19  C18 UNL     1      16.712  15.467  27.146  1.00  0.00     0.051 C 
BRANCH  19  20
HETATM   20  C19 UNL     1      17.721  14.448  27.542  1.00  0.00     0.086 C 
HETATM   21  C20 UNL     1      18.380  13.992  26.229  1.00  0.00     0.026 C 
HETATM   22  C21 UNL     1      19.602  13.153  26.503  1.00  0.00     0.011 C 
HETATM   23  C22 UNL     1      19.435  12.225  27.657  1.00  0.00     0.103 C 
HETATM   24  C23 UNL     1      17.989  12.065  27.974  1.00  0.00     0.217 C 
HETATM   25  O3  UNL     1      17.519  10.912  28.077  1.00  0.00    -0.274 OA
HETATM   26  N9  UNL     1      17.209  13.253  28.144  1.00  0.00    -0.356 N 
ATOM     27  H9  UNL     1      16.334  13.248  28.668  1.00  0.00     0.162 HD
ENDBRANCH  19  20
ENDBRANCH  12  19
ENDBRANCH  10  12
ENDBRANCH   7  10
BRANCH   4  28
HETATM   28  N4  UNL     1      18.804  16.932  32.121  1.00  0.00    -0.150 N 
HETATM   29  C9  UNL     1      20.189  16.585  32.120  1.00  0.00     0.151 C 
HETATM   30  C10 UNL     1      20.908  16.895  33.393  1.00  0.00     0.021 C 
HETATM   31  C11 UNL     1      20.073  16.790  34.627  1.00  0.00     0.011 C 
HETATM   32  C12 UNL     1      18.780  16.041  34.424  1.00  0.00     0.104 C 
HETATM   33  C13 UNL     1      18.030  16.658  33.279  1.00  0.00     0.238 C 
HETATM   34  O2  UNL     1      16.818  16.905  33.351  1.00  0.00    -0.273 OA
ENDBRANCH   4  28
BRANCH   1  35
HETATM   35  N2  UNL     1      18.459  20.493  29.071  1.00  0.00    -0.225 N 
ATOM     36  H2  UNL     1      18.079  21.361  29.448  1.00  0.00     0.177 HD
BRANCH  35  37
HETATM   37  C6  UNL     1      19.483  20.516  28.053  1.00  0.00     0.138 C 
BRANCH  37  38
HETATM   38  C5  UNL     1      20.682  21.381  28.504  1.00  0.00     0.022 C 
BRANCH  38  39
HETATM   39  C4  UNL     1      20.175  22.690  28.937  1.00  0.00     0.021 C 
BRANCH  39  40
HETATM   40  C3  UNL     1      20.541  23.231  30.264  1.00  0.00     0.122 C 
BRANCH  40  41
HETATM   41  N1  UNL     1      20.853  22.355  31.327  1.00  0.00    -0.361 N 
HETATM   42  C2  UNL     1      20.014  21.553  32.114  1.00  0.00     0.213 C 
HETATM   43  C1  UNL     1      20.567  20.656  33.198  1.00  0.00     0.117 C 
HETATM   44  O1  UNL     1      18.782  21.518  31.983  1.00  0.00    -0.274 OA
ATOM     45  H1  UNL     1      21.845  22.296  31.559  1.00  0.00     0.162 HD
ENDBRANCH  40  41
ENDBRANCH  39  40
ENDBRANCH  38  39
ENDBRANCH  37  38
ENDBRANCH  35  37
ENDBRANCH   1  35
TORSDOF 13
ENDMDL
MODEL 4
REMARK VINA RESULT: -7.626516794      2.921      4.947
REMARK  13 active torsions:
REMARK  status: ('A' for Active; 'I' for Inactive)
REMARK       I    between atoms: C2_2  and  N1_4 
REMARK    1  A    between atoms: N1_4  and  C3_6 
REMARK    2  A    between atoms: C3_6  and  C4_7 
REMARK    3  A    between atoms: C4_7  and  C5_8 
REMARK    4  A    between atoms: C5_8  and  C6_9 
REMARK    5  A    between atoms: C6_9  and  N2_10 
REMARK    6  A    between atoms: N2_10  and  C7_12 
REMARK    7  A    between atoms: C8_15  and  N4_16 
REMARK    8  A    between atoms: C14_25  and  N6_26 
REMARK    9  A    between atoms: N6_26  and  C15_28 
REMARK   10  A    between atoms: C15_28  and  C16_29 
REMARK   11  A    between atoms: C15_28  and  C18_35 
REMARK   12  A    between atoms: C16_29  and  C17_30 
REMARK   13  A    between atoms: C18_35  and  C19_36 
ROOT
HETATM    1  C7  UNL     1      17.912  19.304  29.605  1.00  0.00     0.707 A 
HETATM    2  N3  UNL     1      18.030  18.706  30.801  1.00  0.00    -0.021 N 
ATOM      3  H3  UNL     1      18.660  19.120  31.490  1.00  0.00     0.203 HD
HETATM    4  C8  UNL     1      17.358  17.585  31.139  1.00  0.00     0.716 A 
HETATM    5  N5  UNL     1      16.545  17.085  30.191  1.00  0.00    -0.021 N 
ATOM      6  H5  UNL     1      16.017  16.239  30.405  1.00  0.00     0.203 HD
HETATM    7  C14 UNL     1      16.388  17.641  28.978  1.00  0.00     0.707 A 
HETATM    8  N10 UNL     1      17.073  18.751  28.687  1.00  0.00    -0.022 N 
ATOM      9  H10 UNL     1      16.966  19.186  27.771  1.00  0.00     0.203 HD
ENDROOT
BRANCH   7  10
HETATM   10  N6  UNL     1      15.603  17.088  28.167  1.00  0.00    -0.220 N 
ATOM     11  H6  UNL     1      14.860  17.694  27.819  1.00  0.00     0.178 HD
BRANCH  10  12
HETATM   12  C15 UNL     1      15.571  15.768  27.652  1.00  0.00     0.108 C 
BRANCH  12  13
HETATM   13  C16 UNL     1      14.233  15.202  27.325  1.00  0.00     0.098 C 
BRANCH  13  14
HETATM   14  C17 UNL     1      13.071  16.020  27.657  1.00  0.00     0.088 C 
HETATM   15  N7  UNL     1      12.270  15.913  28.633  1.00  0.00    -0.391 N 
ATOM     16  H72 UNL     1      12.480  15.158  29.286  1.00  0.00     0.157 HD
ATOM     17  H71 UNL     1      11.457  16.484  28.865  1.00  0.00     0.157 HD
HETATM   18  N8  UNL     1      12.775  17.082  26.738  1.00  0.00    -0.088 NA
ENDBRANCH  13  14
ENDBRANCH  12  13
BRANCH  12  19
HETATM   19  C18 UNL     1      16.474  15.605  26.470  1.00  0.00     0.051 C 
BRANCH  19  20
HETATM   20  C19 UNL     1      17.761  14.902  26.719  1.00  0.00     0.086 C 
HETATM   21  C20 UNL     1      18.500  14.910  25.370  1.00  0.00     0.026 C 
HETATM   22  C21 UNL     1      19.931  14.463  25.536  1.00  0.00     0.011 C 
HETATM   23  C22 UNL     1      20.090  13.345  26.509  1.00  0.00     0.103 C 
HETATM   24  C23 UNL     1      18.775  12.687  26.746  1.00  0.00     0.217 C 
HETATM   25  O3  UNL     1      18.695  11.445  26.636  1.00  0.00    -0.274 OA
HETATM   26  N9  UNL     1      17.666  13.522  27.091  1.00  0.00    -0.356 N 
ATOM     27  H9  UNL     1      16.848  13.153  27.577  1.00  0.00     0.162 HD
ENDBRANCH  19  20
ENDBRANCH  12  19
ENDBRANCH  10  12
ENDBRANCH   7  10
BRANCH   4  28
HETATM   28  N4  UNL     1      17.518  16.993  32.414  1.00  0.00    -0.150 N 
HETATM   29  C9  UNL     1      16.401  16.599  33.211  1.00  0.00     0.151 C 
HETATM   30  C10 UNL     1      16.560  15.281  33.896  1.00  0.00     0.021 C 
HETATM   31  C11 UNL     1      17.962  14.942  34.286  1.00  0.00     0.011 C 
HETATM   32  C12 UNL     1      18.900  16.122  34.266  1.00  0.00     0.104 C 
HETATM   33  C13 UNL     1      18.828  16.784  32.920  1.00  0.00     0.238 C 
HETATM   34  O2  UNL     1      19.848  17.119  32.302  1.00  0.00    -0.273 OA
ENDBRANCH   4  28
BRANCH   1  35
HETATM   35  N2  UNL     1      18.572  20.366  29.313  1.00  0.00    -0.225 N 
ATOM     36  H2  UNL     1      18.428  21.230  29.834  1.00  0.00     0.177 HD
BRANCH  35  37
HETATM   37  C6  UNL     1      19.524  20.308  28.228  1.00  0.00     0.138 C 
BRANCH  37  38
HETATM   38  C5  UNL     1      20.679  21.308  28.460  1.00  0.00     0.022 C 
BRANCH  38  39
HETATM   39  C4  UNL     1      20.108  22.576  28.935  1.00  0.00     0.021 C 
BRANCH  39  40
HETATM   40  C3  UNL     1      20.547  23.156  30.223  1.00  0.00     0.122 C 
BRANCH  40  41
HETATM   41  N1  UNL     1      20.852  22.313  31.315  1.00  0.00    -0.361 N 
HETATM   42  C2  UNL     1      20.004  21.568  32.146  1.00  0.00     0.213 C 
HETATM   43  C1  UNL     1      20.548  20.698  33.256  1.00  0.00     0.117 C 
HETATM   44  O1  UNL     1      18.769  21.565  32.036  1.00  0.00    -0.274 OA
ATOM     45  H1  UNL     1      21.845  22.234  31.533  1.00  0.00     0.162 HD
ENDBRANCH  40  41
ENDBRANCH  39  40
ENDBRANCH  38  39
ENDBRANCH  37  38
ENDBRANCH  35  37
ENDBRANCH   1  35
TORSDOF 13
ENDMDL
MODEL 5
REMARK VINA RESULT: -7.608992349      2.642      4.539
REMARK  13 active torsions:
REMARK  status: ('A' for Active; 'I' for Inactive)
REMARK       I    between atoms: C2_2  and  N1_4 
REMARK    1  A    between atoms: N1_4  and  C3_6 
REMARK    2  A    between atoms: C3_6  and  C4_7 
REMARK    3  A    between atoms: C4_7  and  C5_8 
REMARK    4  A    between atoms: C5_8  and  C6_9 
REMARK    5  A    between atoms: C6_9  and  N2_10 
REMARK    6  A    between atoms: N2_10  and  C7_12 
REMARK    7  A    between atoms: C8_15  and  N4_16 
REMARK    8  A    between atoms: C14_25  and  N6_26 
REMARK    9  A    between atoms: N6_26  and  C15_28 
REMARK   10  A    between atoms: C15_28  and  C16_29 
REMARK   11  A    between atoms: C15_28  and  C18_35 
REMARK   12  A    between atoms: C16_29  and  C17_30 
REMARK   13  A    between atoms: C18_35  and  C19_36 
ROOT
HETATM    1  C7  UNL     1      18.043  19.335  29.472  1.00  0.00     0.707 A 
HETATM    2  N3  UNL     1      18.538  18.680  30.534  1.00  0.00    -0.021 N 
ATOM      3  H3  UNL     1      19.312  19.103  31.046  1.00  0.00     0.203 HD
HETATM    4  C8  UNL     1      18.062  17.490  30.958  1.00  0.00     0.716 A 
HETATM    5  N5  UNL     1      17.042  16.981  30.243  1.00  0.00    -0.021 N 
ATOM      6  H5  UNL     1      16.652  16.083  30.530  1.00  0.00     0.203 HD
HETATM    7  C14 UNL     1      16.509  17.591  29.172  1.00  0.00     0.707 A 
HETATM    8  N10 UNL     1      17.010  18.769  28.788  1.00  0.00    -0.022 N 
ATOM      9  H10 UNL     1      16.617  19.246  27.977  1.00  0.00     0.203 HD
ENDROOT
BRANCH   7  10
HETATM   10  N6  UNL     1      15.558  17.024  28.575  1.00  0.00    -0.220 N 
ATOM     11  H6  UNL     1      14.642  17.433  28.757  1.00  0.00     0.178 HD
BRANCH  10  12
HETATM   12  C15 UNL     1      15.541  15.914  27.695  1.00  0.00     0.108 C 
BRANCH  12  13
HETATM   13  C16 UNL     1      14.220  15.274  27.441  1.00  0.00     0.098 C 
BRANCH  13  14
HETATM   14  C17 UNL     1      13.033  16.062  27.754  1.00  0.00     0.088 C 
HETATM   15  N7  UNL     1      12.183  15.895  28.679  1.00  0.00    -0.391 N 
ATOM     16  H72 UNL     1      12.367  15.107  29.300  1.00  0.00     0.157 HD
ATOM     17  H71 UNL     1      11.353  16.446  28.898  1.00  0.00     0.157 HD
HETATM   18  N8  UNL     1      12.773  17.170  26.880  1.00  0.00    -0.088 NA
ENDBRANCH  13  14
ENDBRANCH  12  13
BRANCH  12  19
HETATM   19  C18 UNL     1      16.194  16.226  26.385  1.00  0.00     0.051 C 
BRANCH  19  20
HETATM   20  C19 UNL     1      17.590  15.739  26.216  1.00  0.00     0.086 C 
HETATM   21  C20 UNL     1      18.405  16.974  25.798  1.00  0.00     0.026 C 
HETATM   22  C21 UNL     1      19.885  16.685  25.846  1.00  0.00     0.011 C 
HETATM   23  C22 UNL     1      20.234  15.317  25.368  1.00  0.00     0.103 C 
HETATM   24  C23 UNL     1      19.103  14.749  24.584  1.00  0.00     0.217 C 
HETATM   25  O3  UNL     1      19.333  14.277  23.450  1.00  0.00    -0.274 OA
HETATM   26  N9  UNL     1      17.802  14.775  25.179  1.00  0.00    -0.356 N 
ATOM     27  H9  UNL     1      17.063  14.139  24.878  1.00  0.00     0.162 HD
ENDBRANCH  19  20
ENDBRANCH  12  19
ENDBRANCH  10  12
ENDBRANCH   7  10
BRANCH   4  28
HETATM   28  N4  UNL     1      18.619  16.840  32.084  1.00  0.00    -0.150 N 
HETATM   29  C9  UNL     1      19.969  16.376  32.100  1.00  0.00     0.151 C 
HETATM   30  C10 UNL     1      20.700  16.633  33.378  1.00  0.00     0.021 C 
HETATM   31  C11 UNL     1      19.847  16.609  34.604  1.00  0.00     0.011 C 
HETATM   32  C12 UNL     1      18.498  15.970  34.393  1.00  0.00     0.104 C 
HETATM   33  C13 UNL     1      17.813  16.641  33.236  1.00  0.00     0.238 C 
HETATM   34  O2  UNL     1      16.626  16.991  33.294  1.00  0.00    -0.273 OA
ENDBRANCH   4  28
BRANCH   1  35
HETATM   35  N2  UNL     1      18.523  20.462  29.089  1.00  0.00    -0.225 N 
ATOM     36  H2  UNL     1      18.190  21.335  29.496  1.00  0.00     0.177 HD
BRANCH  35  37
HETATM   37  C6  UNL     1      19.546  20.465  28.070  1.00  0.00     0.138 C 
BRANCH  37  38
HETATM   38  C5  UNL     1      20.696  21.424  28.452  1.00  0.00     0.022 C 
BRANCH  38  39
HETATM   39  C4  UNL     1      20.112  22.664  28.981  1.00  0.00     0.021 C 
BRANCH  39  40
HETATM   40  C3  UNL     1      20.561  23.204  30.281  1.00  0.00     0.122 C 
BRANCH  40  41
HETATM   41  N1  UNL     1      20.866  22.329  31.348  1.00  0.00    -0.361 N 
HETATM   42  C2  UNL     1      20.023  21.524  32.126  1.00  0.00     0.213 C 
HETATM   43  C1  UNL     1      20.568  20.629  33.216  1.00  0.00     0.117 C 
HETATM   44  O1  UNL     1      18.792  21.483  31.981  1.00  0.00    -0.274 OA
ATOM     45  H1  UNL     1      21.855  22.276  31.591  1.00  0.00     0.162 HD
ENDBRANCH  40  41
ENDBRANCH  39  40
ENDBRANCH  38  39
ENDBRANCH  37  38
ENDBRANCH  35  37
ENDBRANCH   1  35
TORSDOF 13
ENDMDL
