MODEL 1
REMARK VINA RESULT: -7.661138688      0.000      0.000
REMARK  14 active torsions:
REMARK  status: ('A' for Active; 'I' for Inactive)
REMARK    1  A    between atoms: C2_2  and  C3_3 
REMARK    2  A    between atoms: C3_3  and  N1_4 
REMARK    3  A    between atoms: N1_4  and  C4_5 
REMARK    4  A    between atoms: N1_4  and  C20_37 
REMARK    5  A    between atoms: C4_5  and  C5_6 
REMARK    6  A    between atoms: C5_6  and  C6_7 
REMARK    7  A    between atoms: C6_7  and  N2_8 
REMARK    8  A    between atoms: N2_8  and  C7_10 
REMARK    9  A    between atoms: C8_13  and  N4_14 
REMARK   10  A    between atoms: N4_14  and  C9_16 
REMARK   11  A    between atoms: C9_16  and  C10_17 
REMARK   12  A    between atoms: C13_26  and  N8_27 
REMARK   13  A    between atoms: N8_27  and  C14_29 
REMARK   14  A    between atoms: C24_41  and  C25_42 
ROOT
HETATM    1  C7  UNL     1      16.112  15.673  28.755  1.00  0.00     0.707 A 
HETATM    2  N3  UNL     1      15.124  15.961  27.893  1.00  0.00    -0.022 N 
ATOM      3  H3  UNL     1      14.354  16.551  28.207  1.00  0.00     0.203 HD
HETATM    4  C8  UNL     1      15.114  15.494  26.618  1.00  0.00     0.707 A 
HETATM    5  N7  UNL     1      16.158  14.712  26.237  1.00  0.00    -0.021 N 
ATOM      6  H7  UNL     1      16.177  14.346  25.285  1.00  0.00     0.203 HD
HETATM    7  C13 UNL     1      17.161  14.405  27.068  1.00  0.00     0.707 A 
HETATM    8  N9  UNL     1      17.114  14.898  28.324  1.00  0.00    -0.022 N 
ATOM      9  H9  UNL     1      17.871  14.672  28.969  1.00  0.00     0.203 HD
ENDROOT
BRANCH   1  10
HETATM   10  N2  UNL     1      16.043  16.154  29.938  1.00  0.00    -0.225 N 
ATOM     11  H2  UNL     1      15.229  15.879  30.488  1.00  0.00     0.177 HD
BRANCH  10  12
HETATM   12  C6  UNL     1      16.966  17.027  30.581  1.00  0.00     0.139 C 
BRANCH  12  13
HETATM   13  C5  UNL     1      17.495  18.134  29.726  1.00  0.00     0.040 C 
BRANCH  13  14
HETATM   14  C4  UNL     1      18.940  17.888  29.366  1.00  0.00     0.126 C 
BRANCH  14  15
HETATM   15  N1  UNL     1      19.368  18.665  28.217  1.00  0.00    -0.364 N 
BRANCH  15  16
HETATM   16  C3  UNL     1      19.652  17.915  27.011  1.00  0.00     0.151 C 
BRANCH  16  17
HETATM   17  C2  UNL     1      18.396  17.599  26.262  1.00  0.00    -0.017 C 
HETATM   18  C1  UNL     1      18.390  17.381  24.959  1.00  0.00     0.008 C 
ENDBRANCH  16  17
ENDBRANCH  15  16
BRANCH  15  19
HETATM   19  C20 UNL     1      19.494  20.080  28.313  1.00  0.00     0.103 A 
HETATM   20  C21 UNL     1      19.436  20.865  27.258  1.00  0.00     0.048 A 
HETATM   21  C22 UNL     1      19.574  22.310  27.441  1.00  0.00     0.006 A 
HETATM   22  C23 UNL     1      19.753  22.803  28.650  1.00  0.00     0.033 A 
HETATM   23  C24 UNL     1      19.815  21.910  29.810  1.00  0.00     0.074 A 
HETATM   24  N12 UNL     1      19.690  20.658  29.596  1.00  0.00    -0.340 N 
ATOM     25  H12 UNL     1      19.732  20.031  30.399  1.00  0.00     0.167 HD
BRANCH  23  26
HETATM   26  C25 UNL     1      20.009  22.384  31.163  1.00  0.00     0.137 C 
HETATM   27  N10 UNL     1      19.053  22.409  31.992  1.00  0.00    -0.386 N 
ATOM     28 2H10 UNL     1      18.125  22.091  31.714  1.00  0.00     0.157 HD
ATOM     29 1H10 UNL     1      19.190  22.742  32.946  1.00  0.00     0.157 HD
HETATM   30  N11 UNL     1      21.308  22.828  31.553  1.00  0.00    -0.081 NA
ENDBRANCH  23  26
ENDBRANCH  15  19
ENDBRANCH  14  15
ENDBRANCH  13  14
ENDBRANCH  12  13
ENDBRANCH  10  12
ENDBRANCH   1  10
BRANCH   4  31
HETATM   31  N4  UNL     1      14.150  15.789  25.812  1.00  0.00    -0.219 N 
ATOM     32  H4  UNL     1      13.193  15.491  25.999  1.00  0.00     0.178 HD
BRANCH  31  33
HETATM   33  C9  UNL     1      14.481  16.559  24.631  1.00  0.00     0.196 C 
BRANCH  33  34
HETATM   34  C10 UNL     1      14.602  15.654  23.468  1.00  0.00     0.044 A 
HETATM   35  C11 UNL     1      15.708  15.416  22.682  1.00  0.00     0.115 A 
HETATM   36  N5  UNL     1      15.368  14.529  21.747  1.00  0.00    -0.360 N 
HETATM   37  C12 UNL     1      14.089  14.187  21.903  1.00  0.00     0.180 A 
ATOM     38  H5  UNL     1      15.990  14.166  21.025  1.00  0.00     0.166 HD
HETATM   39  N6  UNL     1      13.632  14.882  22.958  1.00  0.00    -0.353 N 
ATOM     40  H6  UNL     1      12.679  14.830  23.320  1.00  0.00     0.166 HD
ENDBRANCH  33  34
ENDBRANCH  31  33
ENDBRANCH   4  31
BRANCH   7  41
HETATM   41  N8  UNL     1      18.124  13.675  26.700  1.00  0.00    -0.220 N 
ATOM     42  H8  UNL     1      18.106  12.712  27.037  1.00  0.00     0.178 HD
BRANCH  41  43
HETATM   43  C14 UNL     1      19.229  14.022  25.876  1.00  0.00     0.099 C 
HETATM   44  C15 UNL     1      19.461  13.048  24.739  1.00  0.00     0.026 C 
HETATM   45  C16 UNL     1      20.427  13.704  23.780  1.00  0.00     0.002 C 
HETATM   46  C17 UNL     1      21.728  14.071  24.456  1.00  0.00     0.000 C 
HETATM   47  C18 UNL     1      21.504  14.857  25.725  1.00  0.00     0.002 C 
HETATM   48  C19 UNL     1      20.531  14.137  26.636  1.00  0.00     0.026 C 
ENDBRANCH  41  43
ENDBRANCH   7  41
TORSDOF 14
ENDMDL
MODEL 2
REMARK VINA RESULT: -7.630603381      3.136      6.421
REMARK  14 active torsions:
REMARK  status: ('A' for Active; 'I' for Inactive)
REMARK    1  A    between atoms: C2_2  and  C3_3 
REMARK    2  A    between atoms: C3_3  and  N1_4 
REMARK    3  A    between atoms: N1_4  and  C4_5 
REMARK    4  A    between atoms: N1_4  and  C20_37 
REMARK    5  A    between atoms: C4_5  and  C5_6 
REMARK    6  A    between atoms: C5_6  and  C6_7 
REMARK    7  A    between atoms: C6_7  and  N2_8 
REMARK    8  A    between atoms: N2_8  and  C7_10 
REMARK    9  A    between atoms: C8_13  and  N4_14 
REMARK   10  A    between atoms: N4_14  and  C9_16 
REMARK   11  A    between atoms: C9_16  and  C10_17 
REMARK   12  A    between atoms: C13_26  and  N8_27 
REMARK   13  A    between atoms: N8_27  and  C14_29 
REMARK   14  A    between atoms: C24_41  and  C25_42 
ROOT
HETATM    1  C7  UNL     1      18.851  17.047  30.203  1.00  0.00     0.707 A 
HETATM    2  N3  UNL     1      18.572  17.124  31.513  1.00  0.00    -0.022 N 
ATOM      3  H3  UNL     1      19.272  17.518  32.142  1.00  0.00     0.203 HD
HETATM    4  C8  UNL     1      17.394  16.695  32.032  1.00  0.00     0.707 A 
HETATM    5  N7  UNL     1      16.487  16.176  31.162  1.00  0.00    -0.021 N 
ATOM      6  H7  UNL     1      15.593  15.846  31.522  1.00  0.00     0.203 HD
HETATM    7  C13 UNL     1      16.729  16.084  29.849  1.00  0.00     0.707 A 
HETATM    8  N9  UNL     1      17.921  16.527  29.394  1.00  0.00    -0.022 N 
ATOM      9  H9  UNL     1      18.119  16.463  28.395  1.00  0.00     0.203 HD
ENDROOT
BRANCH   1  10
HETATM   10  N2  UNL     1      19.987  17.474  29.798  1.00  0.00    -0.225 N 
ATOM     11  H2  UNL     1      20.660  17.717  30.525  1.00  0.00     0.177 HD
BRANCH  10  12
HETATM   12  C6  UNL     1      20.426  17.650  28.455  1.00  0.00     0.139 C 
BRANCH  12  13
HETATM   13  C5  UNL     1      20.721  19.063  28.063  1.00  0.00     0.040 C 
BRANCH  13  14
HETATM   14  C4  UNL     1      19.584  19.975  28.453  1.00  0.00     0.126 C 
BRANCH  14  15
HETATM   15  N1  UNL     1      20.045  21.260  28.947  1.00  0.00    -0.364 N 
BRANCH  15  16
HETATM   16  C3  UNL     1      20.433  22.228  27.943  1.00  0.00     0.151 C 
BRANCH  16  17
HETATM   17  C2  UNL     1      19.344  22.432  26.937  1.00  0.00    -0.017 C 
HETATM   18  C1  UNL     1      19.415  23.363  26.003  1.00  0.00     0.008 C 
ENDBRANCH  16  17
ENDBRANCH  15  16
BRANCH  15  19
HETATM   19  C20 UNL     1      20.102  21.512  30.348  1.00  0.00     0.103 A 
HETATM   20  C21 UNL     1      19.764  22.674  30.868  1.00  0.00     0.048 A 
HETATM   21  C22 UNL     1      19.849  22.852  32.318  1.00  0.00     0.006 A 
HETATM   22  C23 UNL     1      20.260  21.856  33.077  1.00  0.00     0.033 A 
HETATM   23  C24 UNL     1      20.630  20.573  32.477  1.00  0.00     0.074 A 
HETATM   24  N12 UNL     1      20.539  20.469  31.208  1.00  0.00    -0.340 N 
ATOM     25  H12 UNL     1      20.796  19.578  30.783  1.00  0.00     0.167 HD
BRANCH  23  26
HETATM   26  C25 UNL     1      21.088  19.440  33.251  1.00  0.00     0.137 C 
HETATM   27  N10 UNL     1      22.314  19.280  33.517  1.00  0.00    -0.386 N 
ATOM     28 2H10 UNL     1      23.003  19.956  33.187  1.00  0.00     0.157 HD
ATOM     29 1H10 UNL     1      22.637  18.481  34.064  1.00  0.00     0.157 HD
HETATM   30  N11 UNL     1      20.125  18.494  33.714  1.00  0.00    -0.081 NA
ENDBRANCH  23  26
ENDBRANCH  15  19
ENDBRANCH  14  15
ENDBRANCH  13  14
ENDBRANCH  12  13
ENDBRANCH  10  12
ENDBRANCH   1  10
BRANCH   4  31
HETATM   31  N4  UNL     1      17.155  16.783  33.298  1.00  0.00    -0.219 N 
ATOM     32  H4  UNL     1      16.579  17.534  33.677  1.00  0.00     0.178 HD
BRANCH  31  33
HETATM   33  C9  UNL     1      17.737  15.773  34.157  1.00  0.00     0.196 C 
BRANCH  33  34
HETATM   34  C10 UNL     1      17.105  14.465  33.884  1.00  0.00     0.044 A 
HETATM   35  C11 UNL     1      15.809  14.073  34.136  1.00  0.00     0.115 A 
HETATM   36  N5  UNL     1      15.672  12.811  33.728  1.00  0.00    -0.360 N 
HETATM   37  C12 UNL     1      16.827  12.380  33.223  1.00  0.00     0.180 A 
ATOM     38  H5  UNL     1      14.816  12.261  33.792  1.00  0.00     0.166 HD
HETATM   39  N6  UNL     1      17.696  13.400  33.324  1.00  0.00    -0.353 N 
ATOM     40  H6  UNL     1      18.668  13.368  33.017  1.00  0.00     0.166 HD
ENDBRANCH  33  34
ENDBRANCH  31  33
ENDBRANCH   4  31
BRANCH   7  41
HETATM   41  N8  UNL     1      15.877  15.598  29.053  1.00  0.00    -0.220 N 
ATOM     42  H8  UNL     1      15.533  14.667  29.286  1.00  0.00     0.178 HD
BRANCH  41  43
HETATM   43  C14 UNL     1      15.337  16.182  27.875  1.00  0.00     0.099 C 
HETATM   44  C15 UNL     1      13.828  16.304  27.902  1.00  0.00     0.026 C 
HETATM   45  C16 UNL     1      13.433  17.220  26.766  1.00  0.00     0.002 C 
HETATM   46  C17 UNL     1      13.913  16.697  25.431  1.00  0.00     0.000 C 
HETATM   47  C18 UNL     1      15.383  16.354  25.453  1.00  0.00     0.002 C 
HETATM   48  C19 UNL     1      15.700  15.432  26.613  1.00  0.00     0.026 C 
ENDBRANCH  41  43
ENDBRANCH   7  41
TORSDOF 14
ENDMDL
MODEL 3
REMARK VINA RESULT: -7.611298804      1.415      1.746
REMARK  14 active torsions:
REMARK  status: ('A' for Active; 'I' for Inactive)
REMARK    1  A    between atoms: C2_2  and  C3_3 
REMARK    2  A    between atoms: C3_3  and  N1_4 
REMARK    3  A    between atoms: N1_4  and  C4_5 
REMARK    4  A    between atoms: N1_4  and  C20_37 
REMARK    5  A    between atoms: C4_5  and  C5_6 
REMARK    6  A    between atoms: C5_6  and  C6_7 
REMARK    7  A    between atoms: C6_7  and  N2_8 
REMARK    8  A    between atoms: N2_8  and  C7_10 
REMARK    9  A    between atoms: C8_13  and  N4_14 
REMARK   10  A    between atoms: N4_14  and  C9_16 
REMARK   11  A    between atoms: C9_16  and  C10_17 
REMARK   12  A    between atoms: C13_26  and  N8_27 
REMARK   13  A    between atoms: N8_27  and  C14_29 
REMARK   14  A    between atoms: C24_41  and  C25_42 
ROOT
HETATM    1  C7  UNL     1      15.978  16.820  28.301  1.00  0.00     0.707 A 
HETATM    2  N3  UNL     1      14.993  16.839  27.389  1.00  0.00    -0.022 N 
ATOM      3  H3  UNL     1      14.344  17.626  27.383  1.00  0.00     0.203 HD
HETATM    4  C8  UNL     1      14.831  15.850  26.474  1.00  0.00     0.707 A 
HETATM    5  N7  UNL     1      15.716  14.819  26.513  1.00  0.00    -0.021 N 
ATOM      6  H7  UNL     1      15.619  14.061  25.839  1.00  0.00     0.203 HD
HETATM    7  C13 UNL     1      16.710  14.766  27.407  1.00  0.00     0.707 A 
HETATM    8  N9  UNL     1      16.820  15.780  28.292  1.00  0.00    -0.022 N 
ATOM      9  H9  UNL     1      17.573  15.752  28.979  1.00  0.00     0.203 HD
ENDROOT
BRANCH   1  10
HETATM   10  N2  UNL     1      16.059  17.794  29.127  1.00  0.00    -0.225 N 
ATOM     11  H2  UNL     1      15.175  18.212  29.415  1.00  0.00     0.177 HD
BRANCH  10  12
HETATM   12  C6  UNL     1      17.235  18.363  29.693  1.00  0.00     0.139 C 
BRANCH  12  13
HETATM   13  C5  UNL     1      18.202  18.935  28.706  1.00  0.00     0.040 C 
BRANCH  13  14
HETATM   14  C4  UNL     1      19.582  18.361  28.916  1.00  0.00     0.126 C 
BRANCH  14  15
HETATM   15  N1  UNL     1      20.628  19.358  28.778  1.00  0.00    -0.364 N 
BRANCH  15  16
HETATM   16  C3  UNL     1      21.765  18.982  27.964  1.00  0.00     0.151 C 
BRANCH  16  17
HETATM   17  C2  UNL     1      21.474  17.752  27.163  1.00  0.00    -0.017 C 
HETATM   18  C1  UNL     1      22.429  16.931  26.764  1.00  0.00     0.008 C 
ENDBRANCH  16  17
ENDBRANCH  15  16
BRANCH  15  19
HETATM   19  C20 UNL     1      20.506  20.621  29.425  1.00  0.00     0.103 A 
HETATM   20  C21 UNL     1      20.483  21.755  28.757  1.00  0.00     0.048 A 
HETATM   21  C22 UNL     1      20.354  23.010  29.498  1.00  0.00     0.006 A 
HETATM   22  C23 UNL     1      20.264  22.990  30.812  1.00  0.00     0.033 A 
HETATM   23  C24 UNL     1      20.292  21.716  31.534  1.00  0.00     0.074 A 
HETATM   24  N12 UNL     1      20.406  20.649  30.842  1.00  0.00    -0.340 N 
ATOM     25  H12 UNL     1      20.427  19.759  31.339  1.00  0.00     0.167 HD
BRANCH  23  26
HETATM   26  C25 UNL     1      20.197  21.621  32.975  1.00  0.00     0.137 C 
HETATM   27  N10 UNL     1      19.885  22.625  33.679  1.00  0.00    -0.386 N 
ATOM     28 2H10 UNL     1      19.693  23.523  33.234  1.00  0.00     0.157 HD
ATOM     29 1H10 UNL     1      19.818  22.558  34.694  1.00  0.00     0.157 HD
HETATM   30  N11 UNL     1      20.465  20.365  33.597  1.00  0.00    -0.081 NA
ENDBRANCH  23  26
ENDBRANCH  15  19
ENDBRANCH  14  15
ENDBRANCH  13  14
ENDBRANCH  12  13
ENDBRANCH  10  12
ENDBRANCH   1  10
BRANCH   4  31
HETATM   31  N4  UNL     1      13.874  15.898  25.609  1.00  0.00    -0.219 N 
ATOM     32  H4  UNL     1      12.976  15.449  25.787  1.00  0.00     0.178 HD
BRANCH  31  33
HETATM   33  C9  UNL     1      14.126  16.613  24.375  1.00  0.00     0.196 C 
BRANCH  33  34
HETATM   34  C10 UNL     1      14.388  15.646  23.287  1.00  0.00     0.044 A 
HETATM   35  C11 UNL     1      15.585  15.359  22.670  1.00  0.00     0.115 A 
HETATM   36  N5  UNL     1      15.361  14.425  21.745  1.00  0.00    -0.360 N 
HETATM   37  C12 UNL     1      14.067  14.102  21.747  1.00  0.00     0.180 A 
ATOM     38  H5  UNL     1      16.068  14.020  21.132  1.00  0.00     0.166 HD
HETATM   39  N6  UNL     1      13.484  14.855  22.693  1.00  0.00    -0.353 N 
ATOM     40  H6  UNL     1      12.491  14.829  22.927  1.00  0.00     0.166 HD
ENDBRANCH  33  34
ENDBRANCH  31  33
ENDBRANCH   4  31
BRANCH   7  41
HETATM   41  N8  UNL     1      17.525  13.800  27.432  1.00  0.00    -0.220 N 
ATOM     42  H8  UNL     1      17.459  13.185  28.243  1.00  0.00     0.178 HD
BRANCH  41  43
HETATM   43  C14 UNL     1      18.521  13.461  26.476  1.00  0.00     0.099 C 
HETATM   44  C15 UNL     1      19.032  12.043  26.618  1.00  0.00     0.026 C 
HETATM   45  C16 UNL     1      19.816  11.724  25.365  1.00  0.00     0.002 C 
HETATM   46  C17 UNL     1      20.955  12.695  25.154  1.00  0.00     0.000 C 
HETATM   47  C18 UNL     1      20.497  14.131  25.235  1.00  0.00     0.002 C 
HETATM   48  C19 UNL     1      19.725  14.375  26.515  1.00  0.00     0.026 C 
ENDBRANCH  41  43
ENDBRANCH   7  41
TORSDOF 14
ENDMDL
MODEL 4
REMARK VINA RESULT: -7.509315079      3.483      5.991
REMARK  14 active torsions:
REMARK  status: ('A' for Active; 'I' for Inactive)
REMARK    1  A    between atoms: C2_2  and  C3_3 
REMARK    2  A    between atoms: C3_3  and  N1_4 
REMARK    3  A    between atoms: N1_4  and  C4_5 
REMARK    4  A    between atoms: N1_4  and  C20_37 
REMARK    5  A    between atoms: C4_5  and  C5_6 
REMARK    6  A    between atoms: C5_6  and  C6_7 
REMARK    7  A    between atoms: C6_7  and  N2_8 
REMARK    8  A    between atoms: N2_8  and  C7_10 
REMARK    9  A    between atoms: C8_13  and  N4_14 
REMARK   10  A    between atoms: N4_14  and  C9_16 
REMARK   11  A    between atoms: C9_16  and  C10_17 
REMARK   12  A    between atoms: C13_26  and  N8_27 
REMARK   13  A    between atoms: N8_27  and  C14_29 
REMARK   14  A    between atoms: C24_41  and  C25_42 
ROOT
HETATM    1  C7  UNL     1      17.493  16.751  31.166  1.00  0.00     0.707 A 
HETATM    2  N3  UNL     1      16.536  16.104  30.483  1.00  0.00    -0.022 N 
ATOM      3  H3  UNL     1      16.269  15.165  30.781  1.00  0.00     0.203 HD
HETATM    4  C8  UNL     1      15.911  16.653  29.411  1.00  0.00     0.707 A 
HETATM    5  N7  UNL     1      16.293  17.905  29.046  1.00  0.00    -0.021 N 
ATOM      6  H7  UNL     1      15.841  18.344  28.244  1.00  0.00     0.203 HD
HETATM    7  C13 UNL     1      17.242  18.582  29.703  1.00  0.00     0.707 A 
HETATM    8  N9  UNL     1      17.828  17.982  30.761  1.00  0.00    -0.022 N 
ATOM      9  H9  UNL     1      18.554  18.486  31.271  1.00  0.00     0.203 HD
ENDROOT
BRANCH   1  10
HETATM   10  N2  UNL     1      18.031  16.160  32.165  1.00  0.00    -0.225 N 
ATOM     11  H2  UNL     1      17.968  15.142  32.171  1.00  0.00     0.177 HD
BRANCH  10  12
HETATM   12  C6  UNL     1      18.707  16.751  33.269  1.00  0.00     0.139 C 
BRANCH  12  13
HETATM   13  C5  UNL     1      20.193  16.842  33.131  1.00  0.00     0.040 C 
BRANCH  13  14
HETATM   14  C4  UNL     1      20.694  18.184  33.604  1.00  0.00     0.126 C 
BRANCH  14  15
HETATM   15  N1  UNL     1      21.598  18.809  32.655  1.00  0.00    -0.364 N 
BRANCH  15  16
HETATM   16  C3  UNL     1      21.090  19.974  31.962  1.00  0.00     0.151 C 
BRANCH  16  17
HETATM   17  C2  UNL     1      20.359  20.885  32.898  1.00  0.00    -0.017 C 
HETATM   18  C1  UNL     1      19.939  22.081  32.528  1.00  0.00     0.008 C 
ENDBRANCH  16  17
ENDBRANCH  15  16
BRANCH  15  19
HETATM   19  C20 UNL     1      22.900  18.271  32.444  1.00  0.00     0.103 A 
HETATM   20  C21 UNL     1      23.721  18.006  33.439  1.00  0.00     0.048 A 
HETATM   21  C22 UNL     1      25.043  17.454  33.138  1.00  0.00     0.006 A 
HETATM   22  C23 UNL     1      25.391  17.232  31.887  1.00  0.00     0.033 A 
HETATM   23  C24 UNL     1      24.461  17.535  30.796  1.00  0.00     0.074 A 
HETATM   24  N12 UNL     1      23.321  18.015  31.111  1.00  0.00    -0.340 N 
ATOM     25  H12 UNL     1      22.669  18.229  30.357  1.00  0.00     0.167 HD
BRANCH  23  26
HETATM   26  C25 UNL     1      24.778  17.316  29.402  1.00  0.00     0.137 C 
HETATM   27  N10 UNL     1      23.909  17.484  28.498  1.00  0.00    -0.386 N 
ATOM     28 2H10 UNL     1      22.964  17.780  28.744  1.00  0.00     0.157 HD
ATOM     29 1H10 UNL     1      24.132  17.330  27.515  1.00  0.00     0.157 HD
HETATM   30  N11 UNL     1      26.099  16.902  29.058  1.00  0.00    -0.081 NA
ENDBRANCH  23  26
ENDBRANCH  15  19
ENDBRANCH  14  15
ENDBRANCH  13  14
ENDBRANCH  12  13
ENDBRANCH  10  12
ENDBRANCH   1  10
BRANCH   4  31
HETATM   31  N4  UNL     1      14.993  16.005  28.775  1.00  0.00    -0.219 N 
ATOM     32  H4  UNL     1      14.012  16.072  29.046  1.00  0.00     0.178 HD
BRANCH  31  33
HETATM   33  C9  UNL     1      15.411  15.179  27.661  1.00  0.00     0.196 C 
BRANCH  33  34
HETATM   34  C10 UNL     1      14.753  15.646  26.423  1.00  0.00     0.044 A 
HETATM   35  C11 UNL     1      13.814  16.643  26.278  1.00  0.00     0.115 A 
HETATM   36  N5  UNL     1      13.497  16.729  24.986  1.00  0.00    -0.360 N 
HETATM   37  C12 UNL     1      14.197  15.829  24.297  1.00  0.00     0.180 A 
ATOM     38  H5  UNL     1      12.823  17.382  24.587  1.00  0.00     0.166 HD
HETATM   39  N6  UNL     1      14.961  15.173  25.186  1.00  0.00    -0.353 N 
ATOM     40  H6  UNL     1      15.609  14.420  24.952  1.00  0.00     0.166 HD
ENDBRANCH  33  34
ENDBRANCH  31  33
ENDBRANCH   4  31
BRANCH   7  41
HETATM   41  N8  UNL     1      17.588  19.745  29.351  1.00  0.00    -0.220 N 
ATOM     42  H8  UNL     1      16.828  20.409  29.202  1.00  0.00     0.178 HD
BRANCH  41  43
HETATM   43  C14 UNL     1      18.901  20.247  29.135  1.00  0.00     0.099 C 
HETATM   44  C15 UNL     1      18.923  21.669  28.615  1.00  0.00     0.026 C 
HETATM   45  C16 UNL     1      20.342  22.171  28.748  1.00  0.00     0.002 C 
HETATM   46  C17 UNL     1      21.319  21.300  27.991  1.00  0.00     0.000 C 
HETATM   47  C18 UNL     1      21.157  19.839  28.333  1.00  0.00     0.002 C 
HETATM   48  C19 UNL     1      19.713  19.409  28.173  1.00  0.00     0.026 C 
ENDBRANCH  41  43
ENDBRANCH   7  41
TORSDOF 14
ENDMDL
MODEL 5
REMARK VINA RESULT: -7.502474867      2.138      2.924
REMARK  14 active torsions:
REMARK  status: ('A' for Active; 'I' for Inactive)
REMARK    1  A    between atoms: C2_2  and  C3_3 
REMARK    2  A    between atoms: C3_3  and  N1_4 
REMARK    3  A    between atoms: N1_4  and  C4_5 
REMARK    4  A    between atoms: N1_4  and  C20_37 
REMARK    5  A    between atoms: C4_5  and  C5_6 
REMARK    6  A    between atoms: C5_6  and  C6_7 
REMARK    7  A    between atoms: C6_7  and  N2_8 
REMARK    8  A    between atoms: N2_8  and  C7_10 
REMARK    9  A    between atoms: C8_13  and  N4_14 
REMARK   10  A    between atoms: N4_14  and  C9_16 
REMARK   11  A    between atoms: C9_16  and  C10_17 
REMARK   12  A    between atoms: C13_26  and  N8_27 
REMARK   13  A    between atoms: N8_27  and  C14_29 
REMARK   14  A    between atoms: C24_41  and  C25_42 
ROOT
HETATM    1  C7  UNL     1      16.095  16.625  28.595  1.00  0.00     0.707 A 
HETATM    2  N3  UNL     1      15.122  16.740  27.679  1.00  0.00    -0.022 N 
ATOM      3  H3  UNL     1      14.475  17.526  27.745  1.00  0.00     0.203 HD
HETATM    4  C8  UNL     1      14.967  15.849  26.667  1.00  0.00     0.707 A 
HETATM    5  N7  UNL     1      15.848  14.815  26.612  1.00  0.00    -0.021 N 
ATOM      6  H7  UNL     1      15.756  14.130  25.863  1.00  0.00     0.203 HD
HETATM    7  C13 UNL     1      16.832  14.668  27.507  1.00  0.00     0.707 A 
HETATM    8  N9  UNL     1      16.934  15.587  28.491  1.00  0.00    -0.022 N 
ATOM      9  H9  UNL     1      17.679  15.486  29.181  1.00  0.00     0.203 HD
ENDROOT
BRANCH   1  10
HETATM   10  N2  UNL     1      16.170  17.509  29.516  1.00  0.00    -0.225 N 
ATOM     11  H2  UNL     1      15.772  17.252  30.419  1.00  0.00     0.177 HD
BRANCH  10  12
HETATM   12  C6  UNL     1      16.742  18.810  29.433  1.00  0.00     0.139 C 
BRANCH  12  13
HETATM   13  C5  UNL     1      18.227  18.863  29.598  1.00  0.00     0.040 C 
BRANCH  13  14
HETATM   14  C4  UNL     1      18.881  19.460  28.377  1.00  0.00     0.126 C 
BRANCH  14  15
HETATM   15  N1  UNL     1      20.160  20.080  28.674  1.00  0.00    -0.364 N 
BRANCH  15  16
HETATM   16  C3  UNL     1      20.181  21.527  28.685  1.00  0.00     0.151 C 
BRANCH  16  17
HETATM   17  C2  UNL     1      19.210  22.091  27.696  1.00  0.00    -0.017 C 
HETATM   18  C1  UNL     1      19.580  22.938  26.753  1.00  0.00     0.008 C 
ENDBRANCH  16  17
ENDBRANCH  15  16
BRANCH  15  19
HETATM   19  C20 UNL     1      21.305  19.273  28.931  1.00  0.00     0.103 A 
HETATM   20  C21 UNL     1      21.990  18.696  27.966  1.00  0.00     0.048 A 
HETATM   21  C22 UNL     1      23.156  17.883  28.313  1.00  0.00     0.006 A 
HETATM   22  C23 UNL     1      23.503  17.740  29.576  1.00  0.00     0.033 A 
HETATM   23  C24 UNL     1      22.726  18.392  30.633  1.00  0.00     0.074 A 
HETATM   24  N12 UNL     1      21.718  19.090  30.278  1.00  0.00    -0.340 N 
ATOM     25  H12 UNL     1      21.173  19.546  31.009  1.00  0.00     0.167 HD
BRANCH  23  26
HETATM   26  C25 UNL     1      23.051  18.278  32.038  1.00  0.00     0.137 C 
HETATM   27  N10 UNL     1      23.322  17.157  32.560  1.00  0.00    -0.386 N 
ATOM     28 2H10 UNL     1      23.314  16.312  31.989  1.00  0.00     0.157 HD
ATOM     29 1H10 UNL     1      23.551  17.077  33.550  1.00  0.00     0.157 HD
HETATM   30  N11 UNL     1      23.062  19.461  32.836  1.00  0.00    -0.081 NA
ENDBRANCH  23  26
ENDBRANCH  15  19
ENDBRANCH  14  15
ENDBRANCH  13  14
ENDBRANCH  12  13
ENDBRANCH  10  12
ENDBRANCH   1  10
BRANCH   4  31
HETATM   31  N4  UNL     1      14.020  15.988  25.800  1.00  0.00    -0.219 N 
ATOM     32  H4  UNL     1      13.094  15.594  25.960  1.00  0.00     0.178 HD
BRANCH  31  33
HETATM   33  C9  UNL     1      14.327  16.725  24.592  1.00  0.00     0.196 C 
BRANCH  33  34
HETATM   34  C10 UNL     1      14.525  15.780  23.472  1.00  0.00     0.044 A 
HETATM   35  C11 UNL     1      15.686  15.501  22.785  1.00  0.00     0.115 A 
HETATM   36  N5  UNL     1      15.408  14.587  21.856  1.00  0.00    -0.360 N 
HETATM   37  C12 UNL     1      14.115  14.268  21.920  1.00  0.00     0.180 A 
ATOM     38  H5  UNL     1      16.079  14.192  21.197  1.00  0.00     0.166 HD
HETATM   39  N6  UNL     1      13.587  15.003  22.912  1.00  0.00    -0.353 N 
ATOM     40  H6  UNL     1      12.608  14.975  23.199  1.00  0.00     0.166 HD
ENDBRANCH  33  34
ENDBRANCH  31  33
ENDBRANCH   4  31
BRANCH   7  41
HETATM   41  N8  UNL     1      17.642  13.701  27.444  1.00  0.00    -0.220 N 
ATOM     42  H8  UNL     1      17.610  13.042  28.223  1.00  0.00     0.178 HD
BRANCH  41  43
HETATM   43  C14 UNL     1      18.594  13.412  26.428  1.00  0.00     0.099 C 
HETATM   44  C15 UNL     1      19.133  11.999  26.493  1.00  0.00     0.026 C 
HETATM   45  C16 UNL     1      19.858  11.737  25.192  1.00  0.00     0.002 C 
HETATM   46  C17 UNL     1      20.970  12.734  24.960  1.00  0.00     0.000 C 
HETATM   47  C18 UNL     1      20.496  14.158  25.115  1.00  0.00     0.002 C 
HETATM   48  C19 UNL     1      19.785  14.344  26.440  1.00  0.00     0.026 C 
ENDBRANCH  41  43
ENDBRANCH   7  41
TORSDOF 14
ENDMDL
