MODEL 1
REMARK VINA RESULT: -6.990589335      0.000      0.000
REMARK  12 active torsions:
REMARK  status: ('A' for Active; 'I' for Inactive)
REMARK    1  A    between atoms: C2_2  and  C3_3 
REMARK    2  A    between atoms: C3_3  and  C5_5 
REMARK    3  A    between atoms: C5_5  and  C6_7 
REMARK       I    between atoms: C6_7  and  N2_9 
REMARK    4  A    between atoms: C10_13  and  C11_14 
REMARK    5  A    between atoms: C11_14  and  N3_17 
REMARK       I    between atoms: N3_17  and  C14_19 
REMARK    6  A    between atoms: N5_21  and  N6_23 
REMARK    7  A    between atoms: C15_25  and  C16_26 
REMARK    8  A    between atoms: C15_25  and  C20_34 
REMARK    9  A    between atoms: C16_26  and  C17_27 
REMARK   10  A    between atoms: C17_27  and  C18_28 
REMARK   11  A    between atoms: C18_28  and  N7_29 
REMARK       I    between atoms: C20_34  and  N10_36 
REMARK   12  A    between atoms: N10_36  and  C21_38 
ROOT
HETATM    1  N3  UNL     1      17.123  16.487  28.591  1.00  0.00    -0.353 N 
ATOM      2  H3  UNL     1      16.290  16.837  28.118  1.00  0.00     0.163 HD
HETATM    3  C14 UNL     1      16.979  15.896  29.875  1.00  0.00     0.203 C 
HETATM    4  N4  UNL     1      17.361  14.576  30.221  1.00  0.00    -0.062 NA
HETATM    5  N5  UNL     1      16.448  16.599  30.845  1.00  0.00    -0.273 N 
ATOM      6  H5  UNL     1      16.153  17.554  30.642  1.00  0.00     0.189 HD
ENDROOT
BRANCH   5   7
HETATM    7  N6  UNL     1      16.271  16.129  32.095  1.00  0.00    -0.297 N 
HETATM    8  C15 UNL     1      17.015  16.033  33.117  1.00  0.00     0.093 C 
ATOM      9  H6  UNL     1      15.329  15.770  32.254  1.00  0.00     0.187 HD
BRANCH   8  10
HETATM   10  C16 UNL     1      16.370  15.420  34.341  1.00  0.00     0.066 C 
BRANCH  10  11
HETATM   11  C17 UNL     1      15.770  14.106  33.982  1.00  0.00     0.026 C 
BRANCH  11  12
HETATM   12  C18 UNL     1      16.822  13.042  33.750  1.00  0.00     0.122 C 
BRANCH  12  13
HETATM   13  N7  UNL     1      16.753  12.639  32.364  1.00  0.00    -0.367 N 
HETATM   14  C19 UNL     1      16.345  11.448  32.040  1.00  0.00     0.196 C 
HETATM   15  N8  UNL     1      15.974  10.568  33.098  1.00  0.00    -0.067 NA
HETATM   16  N9  UNL     1      16.245  10.981  30.723  1.00  0.00    -0.067 NA
ATOM     17  H7  UNL     1      17.029  13.295  31.633  1.00  0.00     0.161 HD
ENDBRANCH  12  13
ENDBRANCH  11  12
ENDBRANCH  10  11
ENDBRANCH   8  10
BRANCH   8  18
HETATM   18  C20 UNL     1      18.400  16.430  33.219  1.00  0.00     0.266 C 
HETATM   19  O2  UNL     1      18.706  17.602  32.765  1.00  0.00    -0.266 OA
HETATM   20  N10 UNL     1      19.450  15.659  33.766  1.00  0.00    -0.348 N 
ATOM     21  H10 UNL     1      19.243  14.730  34.133  1.00  0.00     0.163 HD
BRANCH  20  22
HETATM   22  C21 UNL     1      20.825  16.152  33.821  1.00  0.00     0.022 C 
HETATM   23  C22 UNL     1      21.332  16.628  32.498  1.00  0.00     0.037 C 
HETATM   24  C23 UNL     1      20.959  17.244  34.850  1.00  0.00     0.037 C 
HETATM   25  C24 UNL     1      21.748  15.019  34.286  1.00  0.00     0.037 C 
ENDBRANCH  20  22
ENDBRANCH   8  18
ENDBRANCH   5   7
BRANCH   1  26
HETATM   26  C11 UNL     1      18.387  16.612  27.937  1.00  0.00     0.046 C 
HETATM   27  C12 UNL     1      18.298  17.279  26.623  1.00  0.00     0.040 C 
HETATM   28  C13 UNL     1      18.637  15.088  27.496  1.00  0.00     0.040 C 
BRANCH  26  29
HETATM   29  C10 UNL     1      19.559  16.928  28.790  1.00  0.00     0.115 C 
HETATM   30  N2  UNL     1      19.850  18.226  29.236  1.00  0.00    -0.340 N 
HETATM   31  C6  UNL     1      18.963  19.297  29.510  1.00  0.00     0.264 C 
HETATM   32  C7  UNL     1      21.309  18.317  29.430  1.00  0.00     0.127 C 
HETATM   33  O1  UNL     1      17.739  19.132  29.253  1.00  0.00    -0.267 OA
HETATM   34  C8  UNL     1      21.920  17.091  28.854  1.00  0.00     0.022 C 
HETATM   35  C9  UNL     1      20.836  16.369  28.172  1.00  0.00     0.029 C 
BRANCH  31  36
HETATM   36  C5  UNL     1      19.316  20.628  30.084  1.00  0.00     0.095 C 
HETATM   37  N1  UNL     1      19.955  20.607  31.352  1.00  0.00    -0.101 NA
BRANCH  36  38
HETATM   38  C3  UNL     1      19.893  21.575  29.084  1.00  0.00     0.034 C 
HETATM   39  C4  UNL     1      20.316  22.898  29.743  1.00  0.00     0.016 C 
BRANCH  38  40
HETATM   40  C2  UNL     1      19.092  21.935  27.897  1.00  0.00     0.006 C 
HETATM   41  C1  UNL     1      19.684  22.915  26.930  1.00  0.00     0.006 C 
ENDBRANCH  38  40
ENDBRANCH  36  38
ENDBRANCH  31  36
ENDBRANCH  26  29
ENDBRANCH   1  26
TORSDOF 12
ENDMDL
MODEL 2
REMARK VINA RESULT: -6.954696715      2.515      6.760
REMARK  12 active torsions:
REMARK  status: ('A' for Active; 'I' for Inactive)
REMARK    1  A    between atoms: C2_2  and  C3_3 
REMARK    2  A    between atoms: C3_3  and  C5_5 
REMARK    3  A    between atoms: C5_5  and  C6_7 
REMARK       I    between atoms: C6_7  and  N2_9 
REMARK    4  A    between atoms: C10_13  and  C11_14 
REMARK    5  A    between atoms: C11_14  and  N3_17 
REMARK       I    between atoms: N3_17  and  C14_19 
REMARK    6  A    between atoms: N5_21  and  N6_23 
REMARK    7  A    between atoms: C15_25  and  C16_26 
REMARK    8  A    between atoms: C15_25  and  C20_34 
REMARK    9  A    between atoms: C16_26  and  C17_27 
REMARK   10  A    between atoms: C17_27  and  C18_28 
REMARK   11  A    between atoms: C18_28  and  N7_29 
REMARK       I    between atoms: C20_34  and  N10_36 
REMARK   12  A    between atoms: N10_36  and  C21_38 
ROOT
HETATM    1  N3  UNL     1      19.725  15.381  26.245  1.00  0.00    -0.353 N 
ATOM      2  H3  UNL     1      20.529  14.760  26.152  1.00  0.00     0.163 HD
HETATM    3  C14 UNL     1      19.955  16.779  26.363  1.00  0.00     0.203 C 
HETATM    4  N4  UNL     1      19.449  17.772  25.489  1.00  0.00    -0.062 NA
HETATM    5  N5  UNL     1      20.695  17.221  27.349  1.00  0.00    -0.273 N 
ATOM      6  H5  UNL     1      21.086  16.542  28.001  1.00  0.00     0.189 HD
ENDROOT
BRANCH   5   7
HETATM    7  N6  UNL     1      20.969  18.525  27.547  1.00  0.00    -0.297 N 
HETATM    8  C15 UNL     1      21.341  19.209  28.548  1.00  0.00     0.093 C 
ATOM      9  H6  UNL     1      20.849  19.089  26.704  1.00  0.00     0.187 HD
BRANCH   8  10
HETATM   10  C16 UNL     1      21.531  20.688  28.296  1.00  0.00     0.066 C 
BRANCH  10  11
HETATM   11  C17 UNL     1      20.202  21.345  28.163  1.00  0.00     0.026 C 
BRANCH  11  12
HETATM   12  C18 UNL     1      20.151  22.681  28.875  1.00  0.00     0.122 C 
BRANCH  12  13
HETATM   13  N7  UNL     1      19.318  22.532  30.046  1.00  0.00    -0.367 N 
HETATM   14  C19 UNL     1      19.834  22.584  31.238  1.00  0.00     0.196 C 
HETATM   15  N8  UNL     1      21.242  22.790  31.337  1.00  0.00    -0.067 NA
HETATM   16  N9  UNL     1      19.098  22.455  32.422  1.00  0.00    -0.067 NA
ATOM     17  H7  UNL     1      18.314  22.385  29.937  1.00  0.00     0.161 HD
ENDBRANCH  12  13
ENDBRANCH  11  12
ENDBRANCH  10  11
ENDBRANCH   8  10
BRANCH   8  18
HETATM   18  C20 UNL     1      21.582  18.722  29.886  1.00  0.00     0.266 C 
HETATM   19  O2  UNL     1      21.900  17.473  30.004  1.00  0.00    -0.266 OA
HETATM   20  N10 UNL     1      21.502  19.479  31.076  1.00  0.00    -0.348 N 
ATOM     21  H10 UNL     1      21.254  20.467  31.018  1.00  0.00     0.163 HD
BRANCH  20  22
HETATM   22  C21 UNL     1      21.763  18.890  32.388  1.00  0.00     0.022 C 
HETATM   23  C22 UNL     1      21.135  17.545  32.563  1.00  0.00     0.037 C 
HETATM   24  C23 UNL     1      23.243  18.809  32.651  1.00  0.00     0.037 C 
HETATM   25  C24 UNL     1      21.191  19.809  33.475  1.00  0.00     0.037 C 
ENDBRANCH  20  22
ENDBRANCH   8  18
ENDBRANCH   5   7
BRANCH   1  26
HETATM   26  C11 UNL     1      18.415  14.811  26.250  1.00  0.00     0.046 C 
HETATM   27  C12 UNL     1      18.415  13.356  26.501  1.00  0.00     0.040 C 
HETATM   28  C13 UNL     1      18.072  14.857  24.681  1.00  0.00     0.040 C 
BRANCH  26  29
HETATM   29  C10 UNL     1      17.333  15.616  26.870  1.00  0.00     0.115 C 
HETATM   30  N2  UNL     1      17.046  15.579  28.243  1.00  0.00    -0.340 N 
HETATM   31  C6  UNL     1      17.918  15.331  29.332  1.00  0.00     0.264 C 
HETATM   32  C7  UNL     1      15.615  15.892  28.410  1.00  0.00     0.127 C 
HETATM   33  O1  UNL     1      19.112  15.014  29.074  1.00  0.00    -0.267 OA
HETATM   34  C8  UNL     1      14.989  15.886  27.062  1.00  0.00     0.022 C 
HETATM   35  C9  UNL     1      16.018  15.401  26.130  1.00  0.00     0.029 C 
BRANCH  31  36
HETATM   36  C5  UNL     1      17.582  15.407  30.783  1.00  0.00     0.095 C 
HETATM   37  N1  UNL     1      17.958  14.284  31.567  1.00  0.00    -0.101 NA
BRANCH  36  38
HETATM   38  C3  UNL     1      17.858  16.743  31.391  1.00  0.00     0.034 C 
HETATM   39  C4  UNL     1      16.831  17.085  32.483  1.00  0.00     0.016 C 
BRANCH  38  40
HETATM   40  C2  UNL     1      17.942  17.924  30.509  1.00  0.00     0.006 C 
HETATM   41  C1  UNL     1      17.915  19.277  31.154  1.00  0.00     0.006 C 
ENDBRANCH  38  40
ENDBRANCH  36  38
ENDBRANCH  31  36
ENDBRANCH  26  29
ENDBRANCH   1  26
TORSDOF 12
ENDMDL
MODEL 3
REMARK VINA RESULT: -6.802027919      3.030      6.895
REMARK  12 active torsions:
REMARK  status: ('A' for Active; 'I' for Inactive)
REMARK    1  A    between atoms: C2_2  and  C3_3 
REMARK    2  A    between atoms: C3_3  and  C5_5 
REMARK    3  A    between atoms: C5_5  and  C6_7 
REMARK       I    between atoms: C6_7  and  N2_9 
REMARK    4  A    between atoms: C10_13  and  C11_14 
REMARK    5  A    between atoms: C11_14  and  N3_17 
REMARK       I    between atoms: N3_17  and  C14_19 
REMARK    6  A    between atoms: N5_21  and  N6_23 
REMARK    7  A    between atoms: C15_25  and  C16_26 
REMARK    8  A    between atoms: C15_25  and  C20_34 
REMARK    9  A    between atoms: C16_26  and  C17_27 
REMARK   10  A    between atoms: C17_27  and  C18_28 
REMARK   11  A    between atoms: C18_28  and  N7_29 
REMARK       I    between atoms: C20_34  and  N10_36 
REMARK   12  A    between atoms: N10_36  and  C21_38 
ROOT
HETATM    1  N3  UNL     1      18.125  19.525  30.612  1.00  0.00    -0.353 N 
ATOM      2  H3  UNL     1      17.580  20.216  31.127  1.00  0.00     0.163 HD
HETATM    3  C14 UNL     1      17.517  18.859  29.513  1.00  0.00     0.203 C 
HETATM    4  N4  UNL     1      17.997  18.865  28.180  1.00  0.00    -0.062 NA
HETATM    5  N5  UNL     1      16.417  18.175  29.712  1.00  0.00    -0.273 N 
ATOM      6  H5  UNL     1      16.031  18.146  30.655  1.00  0.00     0.189 HD
ENDROOT
BRANCH   5   7
HETATM    7  N6  UNL     1      15.769  17.509  28.737  1.00  0.00    -0.297 N 
HETATM    8  C15 UNL     1      15.793  16.313  28.316  1.00  0.00     0.093 C 
ATOM      9  H6  UNL     1      15.112  18.097  28.223  1.00  0.00     0.187 HD
BRANCH   8  10
HETATM   10  C16 UNL     1      14.863  16.006  27.163  1.00  0.00     0.066 C 
BRANCH  10  11
HETATM   11  C17 UNL     1      15.455  16.517  25.896  1.00  0.00     0.026 C 
BRANCH  11  12
HETATM   12  C18 UNL     1      14.855  15.851  24.676  1.00  0.00     0.122 C 
BRANCH  12  13
HETATM   13  N7  UNL     1      13.542  16.415  24.459  1.00  0.00    -0.367 N 
HETATM   14  C19 UNL     1      12.913  16.219  23.338  1.00  0.00     0.196 C 
HETATM   15  N8  UNL     1      13.568  15.435  22.344  1.00  0.00    -0.067 NA
HETATM   16  N9  UNL     1      11.639  16.724  23.051  1.00  0.00    -0.067 NA
ATOM     17  H7  UNL     1      13.104  16.972  25.193  1.00  0.00     0.161 HD
ENDBRANCH  12  13
ENDBRANCH  11  12
ENDBRANCH  10  11
ENDBRANCH   8  10
BRANCH   8  18
HETATM   18  C20 UNL     1      16.621  15.239  28.812  1.00  0.00     0.266 C 
HETATM   19  O2  UNL     1      17.112  15.381  30.001  1.00  0.00    -0.266 OA
HETATM   20  N10 UNL     1      16.945  14.049  28.122  1.00  0.00    -0.348 N 
ATOM     21  H10 UNL     1      16.573  13.905  27.183  1.00  0.00     0.163 HD
BRANCH  20  22
HETATM   22  C21 UNL     1      17.796  13.018  28.713  1.00  0.00     0.022 C 
HETATM   23  C22 UNL     1      17.099  12.207  29.756  1.00  0.00     0.037 C 
HETATM   24  C23 UNL     1      18.361  12.117  27.647  1.00  0.00     0.037 C 
HETATM   25  C24 UNL     1      19.003  13.687  29.383  1.00  0.00     0.037 C 
ENDBRANCH  20  22
ENDBRANCH   8  18
ENDBRANCH   5   7
BRANCH   1  26
HETATM   26  C11 UNL     1      19.468  19.265  31.025  1.00  0.00     0.046 C 
HETATM   27  C12 UNL     1      19.859  20.016  32.234  1.00  0.00     0.040 C 
HETATM   28  C13 UNL     1      20.279  20.059  29.889  1.00  0.00     0.040 C 
BRANCH  26  29
HETATM   29  C10 UNL     1      19.954  17.869  30.894  1.00  0.00     0.115 C 
HETATM   30  N2  UNL     1      19.704  16.881  31.858  1.00  0.00    -0.340 N 
HETATM   31  C6  UNL     1      18.600  16.749  32.737  1.00  0.00     0.264 C 
HETATM   32  C7  UNL     1      20.811  15.908  31.800  1.00  0.00     0.127 C 
HETATM   33  O1  UNL     1      17.738  17.669  32.746  1.00  0.00    -0.267 OA
HETATM   34  C8  UNL     1      21.868  16.476  30.923  1.00  0.00     0.022 C 
HETATM   35  C9  UNL     1      21.452  17.851  30.611  1.00  0.00     0.029 C 
BRANCH  31  36
HETATM   36  C5  UNL     1      18.331  15.618  33.672  1.00  0.00     0.095 C 
HETATM   37  N1  UNL     1      18.449  15.915  35.055  1.00  0.00    -0.101 NA
BRANCH  36  38
HETATM   38  C3  UNL     1      17.148  14.792  33.285  1.00  0.00     0.034 C 
HETATM   39  C4  UNL     1      15.948  15.067  34.205  1.00  0.00     0.016 C 
BRANCH  38  40
HETATM   40  C2  UNL     1      17.295  13.325  33.214  1.00  0.00     0.006 C 
HETATM   41  C1  UNL     1      18.685  12.766  33.181  1.00  0.00     0.006 C 
ENDBRANCH  38  40
ENDBRANCH  36  38
ENDBRANCH  31  36
ENDBRANCH  26  29
ENDBRANCH   1  26
TORSDOF 12
ENDMDL
MODEL 4
REMARK VINA RESULT: -6.773464332      2.924      5.734
REMARK  12 active torsions:
REMARK  status: ('A' for Active; 'I' for Inactive)
REMARK    1  A    between atoms: C2_2  and  C3_3 
REMARK    2  A    between atoms: C3_3  and  C5_5 
REMARK    3  A    between atoms: C5_5  and  C6_7 
REMARK       I    between atoms: C6_7  and  N2_9 
REMARK    4  A    between atoms: C10_13  and  C11_14 
REMARK    5  A    between atoms: C11_14  and  N3_17 
REMARK       I    between atoms: N3_17  and  C14_19 
REMARK    6  A    between atoms: N5_21  and  N6_23 
REMARK    7  A    between atoms: C15_25  and  C16_26 
REMARK    8  A    between atoms: C15_25  and  C20_34 
REMARK    9  A    between atoms: C16_26  and  C17_27 
REMARK   10  A    between atoms: C17_27  and  C18_28 
REMARK   11  A    between atoms: C18_28  and  N7_29 
REMARK       I    between atoms: C20_34  and  N10_36 
REMARK   12  A    between atoms: N10_36  and  C21_38 
ROOT
HETATM    1  N3  UNL     1      19.254  14.723  24.965  1.00  0.00    -0.353 N 
ATOM      2  H3  UNL     1      19.072  15.202  24.083  1.00  0.00     0.163 HD
HETATM    3  C14 UNL     1      18.519  15.114  26.117  1.00  0.00     0.203 C 
HETATM    4  N4  UNL     1      17.694  14.263  26.895  1.00  0.00    -0.062 NA
HETATM    5  N5  UNL     1      18.582  16.358  26.521  1.00  0.00    -0.273 N 
ATOM      6  H5  UNL     1      19.159  17.009  25.990  1.00  0.00     0.189 HD
ENDROOT
BRANCH   5   7
HETATM    7  N6  UNL     1      17.925  16.825  27.601  1.00  0.00    -0.297 N 
HETATM    8  C15 UNL     1      17.977  17.899  28.272  1.00  0.00     0.093 C 
ATOM      9  H6  UNL     1      17.231  16.167  27.958  1.00  0.00     0.187 HD
BRANCH   8  10
HETATM   10  C16 UNL     1      17.020  17.988  29.440  1.00  0.00     0.066 C 
BRANCH  10  11
HETATM   11  C17 UNL     1      17.204  16.806  30.325  1.00  0.00     0.026 C 
BRANCH  11  12
HETATM   12  C18 UNL     1      17.088  17.167  31.791  1.00  0.00     0.122 C 
BRANCH  12  13
HETATM   13  N7  UNL     1      16.153  16.251  32.406  1.00  0.00    -0.367 N 
HETATM   14  C19 UNL     1      16.331  15.843  33.627  1.00  0.00     0.196 C 
HETATM   15  N8  UNL     1      17.474  16.331  34.325  1.00  0.00    -0.067 NA
HETATM   16  N9  UNL     1      15.472  14.963  34.296  1.00  0.00    -0.067 NA
ATOM     17  H7  UNL     1      15.347  15.922  31.875  1.00  0.00     0.161 HD
ENDBRANCH  12  13
ENDBRANCH  11  12
ENDBRANCH  10  11
ENDBRANCH   8  10
BRANCH   8  18
HETATM   18  C20 UNL     1      18.858  19.020  28.042  1.00  0.00     0.266 C 
HETATM   19  O2  UNL     1      19.679  18.922  27.046  1.00  0.00    -0.266 OA
HETATM   20  N10 UNL     1      18.908  20.211  28.801  1.00  0.00    -0.348 N 
ATOM     21  H10 UNL     1      18.274  20.320  29.592  1.00  0.00     0.163 HD
BRANCH  20  22
HETATM   22  C21 UNL     1      19.843  21.290  28.487  1.00  0.00     0.022 C 
HETATM   23  C22 UNL     1      21.220  20.803  28.176  1.00  0.00     0.037 C 
HETATM   24  C23 UNL     1      19.322  22.132  27.352  1.00  0.00     0.037 C 
HETATM   25  C24 UNL     1      19.950  22.230  29.695  1.00  0.00     0.037 C 
ENDBRANCH  20  22
ENDBRANCH   8  18
ENDBRANCH   5   7
BRANCH   1  26
HETATM   26  C11 UNL     1      20.236  13.686  24.992  1.00  0.00     0.046 C 
HETATM   27  C12 UNL     1      21.152  13.723  23.834  1.00  0.00     0.040 C 
HETATM   28  C13 UNL     1      19.326  12.414  24.629  1.00  0.00     0.040 C 
BRANCH  26  29
HETATM   29  C10 UNL     1      20.814  13.340  26.314  1.00  0.00     0.115 C 
HETATM   30  N2  UNL     1      21.898  14.030  26.878  1.00  0.00    -0.340 N 
HETATM   31  C6  UNL     1      22.276  15.386  26.714  1.00  0.00     0.264 C 
HETATM   32  C7  UNL     1      22.619  13.091  27.757  1.00  0.00     0.127 C 
HETATM   33  O1  UNL     1      21.625  16.087  25.892  1.00  0.00    -0.267 OA
HETATM   34  C8  UNL     1      22.067  11.732  27.518  1.00  0.00     0.022 C 
HETATM   35  C9  UNL     1      21.146  11.853  26.378  1.00  0.00     0.029 C 
BRANCH  31  36
HETATM   36  C5  UNL     1      23.380  16.099  27.421  1.00  0.00     0.095 C 
HETATM   37  N1  UNL     1      24.525  16.401  26.638  1.00  0.00    -0.101 NA
BRANCH  36  38
HETATM   38  C3  UNL     1      22.904  17.191  28.321  1.00  0.00     0.034 C 
HETATM   39  C4  UNL     1      24.040  17.717  29.214  1.00  0.00     0.016 C 
BRANCH  38  40
HETATM   40  C2  UNL     1      21.756  16.932  29.213  1.00  0.00     0.006 C 
HETATM   41  C1  UNL     1      21.526  17.887  30.346  1.00  0.00     0.006 C 
ENDBRANCH  38  40
ENDBRANCH  36  38
ENDBRANCH  31  36
ENDBRANCH  26  29
ENDBRANCH   1  26
TORSDOF 12
ENDMDL
MODEL 5
REMARK VINA RESULT: -6.665313808      3.450      7.105
REMARK  12 active torsions:
REMARK  status: ('A' for Active; 'I' for Inactive)
REMARK    1  A    between atoms: C2_2  and  C3_3 
REMARK    2  A    between atoms: C3_3  and  C5_5 
REMARK    3  A    between atoms: C5_5  and  C6_7 
REMARK       I    between atoms: C6_7  and  N2_9 
REMARK    4  A    between atoms: C10_13  and  C11_14 
REMARK    5  A    between atoms: C11_14  and  N3_17 
REMARK       I    between atoms: N3_17  and  C14_19 
REMARK    6  A    between atoms: N5_21  and  N6_23 
REMARK    7  A    between atoms: C15_25  and  C16_26 
REMARK    8  A    between atoms: C15_25  and  C20_34 
REMARK    9  A    between atoms: C16_26  and  C17_27 
REMARK   10  A    between atoms: C17_27  and  C18_28 
REMARK   11  A    between atoms: C18_28  and  N7_29 
REMARK       I    between atoms: C20_34  and  N10_36 
REMARK   12  A    between atoms: N10_36  and  C21_38 
ROOT
HETATM    1  N3  UNL     1      20.947  14.855  26.621  1.00  0.00    -0.353 N 
ATOM      2  H3  UNL     1      21.255  14.286  27.411  1.00  0.00     0.163 HD
HETATM    3  C14 UNL     1      21.262  16.240  26.616  1.00  0.00     0.203 C 
HETATM    4  N4  UNL     1      22.006  16.911  25.614  1.00  0.00    -0.062 NA
HETATM    5  N5  UNL     1      20.851  16.991  27.608  1.00  0.00    -0.273 N 
ATOM      6  H5  UNL     1      20.315  16.551  28.356  1.00  0.00     0.189 HD
ENDROOT
BRANCH   5   7
HETATM    7  N6  UNL     1      21.096  18.313  27.692  1.00  0.00    -0.297 N 
HETATM    8  C15 UNL     1      21.278  19.119  28.654  1.00  0.00     0.093 C 
ATOM      9  H6  UNL     1      21.147  18.767  26.780  1.00  0.00     0.187 HD
BRANCH   8  10
HETATM   10  C16 UNL     1      21.530  20.558  28.263  1.00  0.00     0.066 C 
BRANCH  10  11
HETATM   11  C17 UNL     1      20.230  21.268  28.114  1.00  0.00     0.026 C 
BRANCH  11  12
HETATM   12  C18 UNL     1      20.203  22.577  28.875  1.00  0.00     0.122 C 
BRANCH  12  13
HETATM   13  N7  UNL     1      19.351  22.406  30.030  1.00  0.00    -0.367 N 
HETATM   14  C19 UNL     1      19.839  22.493  31.232  1.00  0.00     0.196 C 
HETATM   15  N8  UNL     1      21.234  22.759  31.359  1.00  0.00    -0.067 NA
HETATM   16  N9  UNL     1      19.083  22.345  32.402  1.00  0.00    -0.067 NA
ATOM     17  H7  UNL     1      18.358  22.215  29.901  1.00  0.00     0.161 HD
ENDBRANCH  12  13
ENDBRANCH  11  12
ENDBRANCH  10  11
ENDBRANCH   8  10
BRANCH   8  18
HETATM   18  C20 UNL     1      21.252  18.803  30.063  1.00  0.00     0.266 C 
HETATM   19  O2  UNL     1      20.144  18.330  30.535  1.00  0.00    -0.266 OA
HETATM   20  N10 UNL     1      22.321  18.963  30.974  1.00  0.00    -0.348 N 
ATOM     21  H10 UNL     1      23.209  19.334  30.634  1.00  0.00     0.163 HD
BRANCH  20  22
HETATM   22  C21 UNL     1      22.193  18.615  32.387  1.00  0.00     0.022 C 
HETATM   23  C22 UNL     1      21.274  19.525  33.136  1.00  0.00     0.037 C 
HETATM   24  C23 UNL     1      21.747  17.185  32.545  1.00  0.00     0.037 C 
HETATM   25  C24 UNL     1      23.571  18.703  33.054  1.00  0.00     0.037 C 
ENDBRANCH  20  22
ENDBRANCH   8  18
ENDBRANCH   5   7
BRANCH   1  26
HETATM   26  C11 UNL     1      20.217  14.225  25.567  1.00  0.00     0.046 C 
HETATM   27  C12 UNL     1      19.926  12.802  25.831  1.00  0.00     0.040 C 
HETATM   28  C13 UNL     1      21.365  14.106  24.449  1.00  0.00     0.040 C 
BRANCH  26  29
HETATM   29  C10 UNL     1      19.163  15.031  24.904  1.00  0.00     0.115 C 
HETATM   30  N2  UNL     1      17.866  15.166  25.422  1.00  0.00    -0.340 N 
HETATM   31  C6  UNL     1      17.435  15.133  26.773  1.00  0.00     0.264 C 
HETATM   32  C7  UNL     1      16.952  15.400  24.289  1.00  0.00     0.127 C 
HETATM   33  O1  UNL     1      18.292  14.867  27.660  1.00  0.00    -0.267 OA
HETATM   34  C8  UNL     1      17.714  15.163  23.036  1.00  0.00     0.022 C 
HETATM   35  C9  UNL     1      19.021  14.625  23.441  1.00  0.00     0.029 C 
BRANCH  31  36
HETATM   36  C5  UNL     1      16.055  15.387  27.278  1.00  0.00     0.095 C 
HETATM   37  N1  UNL     1      15.592  14.504  28.289  1.00  0.00    -0.101 NA
BRANCH  36  38
HETATM   38  C3  UNL     1      15.756  16.834  27.496  1.00  0.00     0.034 C 
HETATM   39  C4  UNL     1      16.459  17.369  28.754  1.00  0.00     0.016 C 
BRANCH  38  40
HETATM   40  C2  UNL     1      14.347  17.265  27.588  1.00  0.00     0.006 C 
HETATM   41  C1  UNL     1      13.426  16.876  26.470  1.00  0.00     0.006 C 
ENDBRANCH  38  40
ENDBRANCH  36  38
ENDBRANCH  31  36
ENDBRANCH  26  29
ENDBRANCH   1  26
TORSDOF 12
ENDMDL
