MODEL 1
REMARK VINA RESULT: -6.811533399      0.000      0.000
REMARK  14 active torsions:
REMARK  status: ('A' for Active; 'I' for Inactive)
REMARK       I    between atoms: N2_7  and  C4_8 
REMARK    1  A    between atoms: C4_8  and  C5_10 
REMARK    2  A    between atoms: C5_10  and  C6_11 
REMARK    3  A    between atoms: C6_11  and  C7_12 
REMARK    4  A    between atoms: C7_12  and  C8_13 
REMARK    5  A    between atoms: C8_13  and  C9_14 
REMARK    6  A    between atoms: C9_14  and  N3_15 
REMARK    7  A    between atoms: N3_15  and  C10_18 
REMARK    8  A    between atoms: C10_18  and  C11_19 
REMARK    9  A    between atoms: C11_19  and  N4_20 
REMARK   10  A    between atoms: C21_36  and  C22_37 
REMARK   11  A    between atoms: C22_37  and  C23_38 
REMARK   12  A    between atoms: C23_38  and  C24_39 
REMARK   13  A    between atoms: C24_39  and  N6_40 
REMARK   14  A    between atoms: C25_46  and  O4_47 
ROOT
HETATM    1  C1  UNL     1      18.273  17.421  28.495  1.00  0.00     0.041 C 
HETATM    2  C2  UNL     1      16.832  17.644  28.666  1.00  0.00     0.156 C 
HETATM    3  N1  UNL     1      16.501  18.028  30.049  1.00  0.00    -0.331 N 
ATOM      4  H1  UNL     1      15.507  18.070  30.271  1.00  0.00     0.165 HD
HETATM    5  C3  UNL     1      17.364  18.340  31.092  1.00  0.00     0.325 C 
HETATM    6  O1  UNL     1      17.182  19.495  31.636  1.00  0.00    -0.247 OA
HETATM    7  N2  UNL     1      18.412  17.559  31.638  1.00  0.00    -0.270 N 
HETATM    8  C4  UNL     1      19.657  18.166  31.930  1.00  0.00     0.227 C 
HETATM    9  O2  UNL     1      20.567  17.399  32.415  1.00  0.00    -0.273 OA
HETATM   10  C12 UNL     1      18.306  16.144  31.923  1.00  0.00     0.137 C 
HETATM   11  C13 UNL     1      17.685  15.768  33.210  1.00  0.00     0.020 C 
HETATM   12  C14 UNL     1      18.090  14.305  33.467  1.00  0.00     0.002 C 
HETATM   13  C15 UNL     1      17.501  13.373  32.451  1.00  0.00     0.000 C 
HETATM   14  C16 UNL     1      18.581  12.632  31.705  1.00  0.00     0.000 C 
HETATM   15  C17 UNL     1      18.049  11.748  30.601  1.00  0.00     0.002 C 
HETATM   16  C18 UNL     1      17.252  12.559  29.656  1.00  0.00     0.020 C 
HETATM   17  C19 UNL     1      17.640  12.443  28.198  1.00  0.00     0.122 C 
HETATM   18  N5  UNL     1      18.425  13.570  27.741  1.00  0.00    -0.359 N 
ATOM     19  H5  UNL     1      19.303  13.755  28.224  1.00  0.00     0.162 HD
HETATM   20  C20 UNL     1      18.075  14.432  26.683  1.00  0.00     0.240 C 
HETATM   21  O3  UNL     1      18.996  14.773  25.896  1.00  0.00    -0.271 OA
HETATM   22  C21 UNL     1      16.722  14.979  26.401  1.00  0.00     0.175 C 
HETATM   23  N7  UNL     1      16.030  15.390  27.596  1.00  0.00    -0.359 N 
ATOM     24  H7  UNL     1      15.531  14.625  28.051  1.00  0.00     0.162 HD
HETATM   25  C25 UNL     1      15.896  16.590  28.258  1.00  0.00     0.135 C 
ENDROOT
BRANCH   8  26
HETATM   26  C5  UNL     1      19.985  19.601  31.719  1.00  0.00     0.103 C 
BRANCH  26  27
HETATM   27  C6  UNL     1      20.566  20.167  32.993  1.00  0.00     0.009 C 
BRANCH  27  28
HETATM   28  C7  UNL     1      20.218  21.625  33.186  1.00  0.00     0.002 C 
BRANCH  28  29
HETATM   29  C8  UNL     1      19.462  22.217  32.063  1.00  0.00     0.027 C 
BRANCH  29  30
HETATM   30  C9  UNL     1      20.282  23.243  31.341  1.00  0.00     0.232 C 
BRANCH  30  31
HETATM   31  N3  UNL     1      20.938  22.668  30.217  1.00  0.00    -0.074 N 
ATOM     32  H32 UNL     1      21.866  23.073  30.093  1.00  0.00     0.277 HD
ATOM     33  H31 UNL     1      21.200  21.701  30.406  1.00  0.00     0.277 HD
BRANCH  31  34
HETATM   34  C10 UNL     1      20.164  22.764  28.992  1.00  0.00     0.259 C 
BRANCH  34  35
HETATM   35  C11 UNL     1      19.816  21.433  28.395  1.00  0.00     0.257 C 
BRANCH  35  36
HETATM   36  N4  UNL     1      18.476  21.015  28.760  1.00  0.00    -0.078 N 
ATOM     37  H43 UNL     1      17.964  21.768  29.219  1.00  0.00     0.274 HD
ATOM     38  H42 UNL     1      17.886  20.898  27.937  1.00  0.00     0.274 HD
ATOM     39  H41 UNL     1      18.487  20.170  29.332  1.00  0.00     0.274 HD
ENDBRANCH  35  36
ENDBRANCH  34  35
ENDBRANCH  31  34
ENDBRANCH  30  31
ENDBRANCH  29  30
ENDBRANCH  28  29
ENDBRANCH  27  28
ENDBRANCH  26  27
ENDBRANCH   8  26
BRANCH  25  40
HETATM   40  O4  UNL     1      14.681  16.899  28.624  1.00  0.00    -0.348 OA
ATOM     41  H4  UNL     1      14.141  16.119  28.661  1.00  0.00     0.219 HD
ENDBRANCH  25  40
BRANCH  22  42
HETATM   42  C22 UNL     1      16.759  15.972  25.287  1.00  0.00     0.036 C 
BRANCH  42  43
HETATM   43  C23 UNL     1      15.560  15.877  24.374  1.00  0.00     0.030 C 
BRANCH  43  44
HETATM   44  C24 UNL     1      14.631  17.037  24.739  1.00  0.00     0.230 C 
BRANCH  44  45
HETATM   45  N6  UNL     1      13.497  16.589  25.500  1.00  0.00    -0.079 N 
ATOM     46  H63 UNL     1      12.972  17.374  25.884  1.00  0.00     0.274 HD
ATOM     47  H62 UNL     1      12.775  16.195  24.896  1.00  0.00     0.274 HD
ATOM     48  H61 UNL     1      13.771  15.931  26.231  1.00  0.00     0.274 HD
ENDBRANCH  44  45
ENDBRANCH  43  44
ENDBRANCH  42  43
ENDBRANCH  22  42
TORSDOF 14
ENDMDL
MODEL 2
REMARK VINA RESULT: -6.805095096      2.108      2.789
REMARK  14 active torsions:
REMARK  status: ('A' for Active; 'I' for Inactive)
REMARK       I    between atoms: N2_7  and  C4_8 
REMARK    1  A    between atoms: C4_8  and  C5_10 
REMARK    2  A    between atoms: C5_10  and  C6_11 
REMARK    3  A    between atoms: C6_11  and  C7_12 
REMARK    4  A    between atoms: C7_12  and  C8_13 
REMARK    5  A    between atoms: C8_13  and  C9_14 
REMARK    6  A    between atoms: C9_14  and  N3_15 
REMARK    7  A    between atoms: N3_15  and  C10_18 
REMARK    8  A    between atoms: C10_18  and  C11_19 
REMARK    9  A    between atoms: C11_19  and  N4_20 
REMARK   10  A    between atoms: C21_36  and  C22_37 
REMARK   11  A    between atoms: C22_37  and  C23_38 
REMARK   12  A    between atoms: C23_38  and  C24_39 
REMARK   13  A    between atoms: C24_39  and  N6_40 
REMARK   14  A    between atoms: C25_46  and  O4_47 
ROOT
HETATM    1  C1  UNL     1      17.080  17.457  27.879  1.00  0.00     0.041 C 
HETATM    2  C2  UNL     1      16.051  16.496  28.295  1.00  0.00     0.156 C 
HETATM    3  N1  UNL     1      16.298  15.987  29.654  1.00  0.00    -0.331 N 
ATOM      4  H1  UNL     1      15.698  15.219  29.955  1.00  0.00     0.165 HD
HETATM    5  C3  UNL     1      17.240  16.413  30.581  1.00  0.00     0.325 C 
HETATM    6  O1  UNL     1      16.768  16.776  31.726  1.00  0.00    -0.247 OA
HETATM    7  N2  UNL     1      18.647  16.501  30.438  1.00  0.00    -0.270 N 
HETATM    8  C4  UNL     1      19.328  17.649  30.909  1.00  0.00     0.227 C 
HETATM    9  O2  UNL     1      20.601  17.668  30.740  1.00  0.00    -0.273 OA
HETATM   10  C12 UNL     1      19.465  15.478  29.822  1.00  0.00     0.137 C 
HETATM   11  C13 UNL     1      19.868  14.343  30.678  1.00  0.00     0.020 C 
HETATM   12  C14 UNL     1      21.051  13.667  29.960  1.00  0.00     0.002 C 
HETATM   13  C15 UNL     1      20.640  13.058  28.654  1.00  0.00     0.000 C 
HETATM   14  C16 UNL     1      21.412  13.659  27.508  1.00  0.00     0.000 C 
HETATM   15  C17 UNL     1      20.972  13.150  26.155  1.00  0.00     0.002 C 
HETATM   16  C18 UNL     1      19.526  13.406  25.975  1.00  0.00     0.020 C 
HETATM   17  C19 UNL     1      19.140  14.142  24.711  1.00  0.00     0.122 C 
HETATM   18  N5  UNL     1      18.859  15.542  24.948  1.00  0.00    -0.359 N 
ATOM     19  H5  UNL     1      19.604  16.107  25.354  1.00  0.00     0.162 HD
HETATM   20  C20 UNL     1      17.639  16.188  24.664  1.00  0.00     0.240 C 
HETATM   21  O3  UNL     1      17.707  17.337  24.154  1.00  0.00    -0.271 OA
HETATM   22  C21 UNL     1      16.276  15.647  24.907  1.00  0.00     0.175 C 
HETATM   23  N7  UNL     1      16.168  14.964  26.170  1.00  0.00    -0.359 N 
ATOM     24  H7  UNL     1      16.453  13.986  26.120  1.00  0.00     0.162 HD
HETATM   25  C25 UNL     1      15.763  15.344  27.431  1.00  0.00     0.135 C 
ENDROOT
BRANCH   8  26
HETATM   26  C5  UNL     1      18.688  18.816  31.572  1.00  0.00     0.103 C 
BRANCH  26  27
HETATM   27  C6  UNL     1      19.765  19.743  32.085  1.00  0.00     0.009 C 
BRANCH  27  28
HETATM   28  C7  UNL     1      19.347  21.195  32.035  1.00  0.00     0.002 C 
BRANCH  28  29
HETATM   29  C8  UNL     1      20.474  22.142  31.914  1.00  0.00     0.027 C 
BRANCH  29  30
HETATM   30  C9  UNL     1      20.337  22.992  30.686  1.00  0.00     0.232 C 
BRANCH  30  31
HETATM   31  N3  UNL     1      19.503  22.359  29.723  1.00  0.00    -0.074 N 
ATOM     32  H32 UNL     1      19.014  21.564  30.134  1.00  0.00     0.277 HD
ATOM     33  H31 UNL     1      18.704  22.948  29.492  1.00  0.00     0.277 HD
BRANCH  31  34
HETATM   34  C10 UNL     1      20.217  21.962  28.522  1.00  0.00     0.259 C 
BRANCH  34  35
HETATM   35  C11 UNL     1      20.318  20.476  28.346  1.00  0.00     0.257 C 
BRANCH  35  36
HETATM   36  N4  UNL     1      21.511  19.940  28.971  1.00  0.00    -0.078 N 
ATOM     37  H43 UNL     1      22.105  20.685  29.337  1.00  0.00     0.274 HD
ATOM     38  H42 UNL     1      21.292  19.466  29.847  1.00  0.00     0.274 HD
ATOM     39  H41 UNL     1      22.028  19.330  28.338  1.00  0.00     0.274 HD
ENDBRANCH  35  36
ENDBRANCH  34  35
ENDBRANCH  31  34
ENDBRANCH  30  31
ENDBRANCH  29  30
ENDBRANCH  28  29
ENDBRANCH  27  28
ENDBRANCH  26  27
ENDBRANCH   8  26
BRANCH  25  40
HETATM   40  O4  UNL     1      14.940  14.526  28.030  1.00  0.00    -0.348 OA
ATOM     41  H4  UNL     1      15.068  13.641  27.710  1.00  0.00     0.219 HD
ENDBRANCH  25  40
BRANCH  22  42
HETATM   42  C22 UNL     1      15.227  16.670  24.618  1.00  0.00     0.036 C 
BRANCH  42  43
HETATM   43  C23 UNL     1      14.019  16.092  23.919  1.00  0.00     0.030 C 
BRANCH  43  44
HETATM   44  C24 UNL     1      14.543  15.229  22.769  1.00  0.00     0.230 C 
BRANCH  44  45
HETATM   45  N6  UNL     1      13.848  13.973  22.691  1.00  0.00    -0.079 N 
ATOM     46  H63 UNL     1      14.314  13.329  22.050  1.00  0.00     0.274 HD
ATOM     47  H62 UNL     1      13.948  13.438  23.553  1.00  0.00     0.274 HD
ATOM     48  H61 UNL     1      12.867  14.100  22.442  1.00  0.00     0.274 HD
ENDBRANCH  44  45
ENDBRANCH  43  44
ENDBRANCH  42  43
ENDBRANCH  22  42
TORSDOF 14
ENDMDL
MODEL 3
REMARK VINA RESULT: -6.801547830      2.064      3.070
REMARK  14 active torsions:
REMARK  status: ('A' for Active; 'I' for Inactive)
REMARK       I    between atoms: N2_7  and  C4_8 
REMARK    1  A    between atoms: C4_8  and  C5_10 
REMARK    2  A    between atoms: C5_10  and  C6_11 
REMARK    3  A    between atoms: C6_11  and  C7_12 
REMARK    4  A    between atoms: C7_12  and  C8_13 
REMARK    5  A    between atoms: C8_13  and  C9_14 
REMARK    6  A    between atoms: C9_14  and  N3_15 
REMARK    7  A    between atoms: N3_15  and  C10_18 
REMARK    8  A    between atoms: C10_18  and  C11_19 
REMARK    9  A    between atoms: C11_19  and  N4_20 
REMARK   10  A    between atoms: C21_36  and  C22_37 
REMARK   11  A    between atoms: C22_37  and  C23_38 
REMARK   12  A    between atoms: C23_38  and  C24_39 
REMARK   13  A    between atoms: C24_39  and  N6_40 
REMARK   14  A    between atoms: C25_46  and  O4_47 
ROOT
HETATM    1  C1  UNL     1      17.141  17.330  27.894  1.00  0.00     0.041 C 
HETATM    2  C2  UNL     1      16.047  16.427  28.270  1.00  0.00     0.156 C 
HETATM    3  N1  UNL     1      16.228  15.887  29.628  1.00  0.00    -0.331 N 
ATOM      4  H1  UNL     1      15.576  15.153  29.903  1.00  0.00     0.165 HD
HETATM    5  C3  UNL     1      17.168  16.246  30.585  1.00  0.00     0.325 C 
HETATM    6  O1  UNL     1      16.688  16.621  31.722  1.00  0.00    -0.247 OA
HETATM    7  N2  UNL     1      18.581  16.252  30.479  1.00  0.00    -0.270 N 
HETATM    8  C4  UNL     1      19.315  17.353  30.984  1.00  0.00     0.227 C 
HETATM    9  O2  UNL     1      20.592  17.298  30.848  1.00  0.00    -0.273 OA
HETATM   10  C12 UNL     1      19.354  15.190  29.871  1.00  0.00     0.137 C 
HETATM   11  C13 UNL     1      19.667  14.023  30.721  1.00  0.00     0.020 C 
HETATM   12  C14 UNL     1      20.827  13.287  30.024  1.00  0.00     0.002 C 
HETATM   13  C15 UNL     1      20.415  12.720  28.699  1.00  0.00     0.000 C 
HETATM   14  C16 UNL     1      21.252  13.289  27.583  1.00  0.00     0.000 C 
HETATM   15  C17 UNL     1      20.818  12.823  26.212  1.00  0.00     0.002 C 
HETATM   16  C18 UNL     1      19.396  13.166  25.998  1.00  0.00     0.020 C 
HETATM   17  C19 UNL     1      19.086  13.939  24.735  1.00  0.00     0.122 C 
HETATM   18  N5  UNL     1      18.882  15.350  24.984  1.00  0.00    -0.359 N 
ATOM     19  H5  UNL     1      19.648  15.865  25.416  1.00  0.00     0.162 HD
HETATM   20  C20 UNL     1      17.710  16.070  24.677  1.00  0.00     0.240 C 
HETATM   21  O3  UNL     1      17.859  17.219  24.185  1.00  0.00    -0.271 OA
HETATM   22  C21 UNL     1      16.312  15.608  24.877  1.00  0.00     0.175 C 
HETATM   23  N7  UNL     1      16.130  14.917  26.128  1.00  0.00    -0.359 N 
ATOM     24  H7  UNL     1      16.359  13.925  26.072  1.00  0.00     0.162 HD
HETATM   25  C25 UNL     1      15.715  15.305  27.383  1.00  0.00     0.135 C 
ENDROOT
BRANCH   8  26
HETATM   26  C5  UNL     1      18.728  18.547  31.646  1.00  0.00     0.103 C 
BRANCH  26  27
HETATM   27  C6  UNL     1      18.284  19.529  30.588  1.00  0.00     0.009 C 
BRANCH  27  28
HETATM   28  C7  UNL     1      19.379  19.837  29.593  1.00  0.00     0.002 C 
BRANCH  28  29
HETATM   29  C8  UNL     1      18.942  20.672  28.455  1.00  0.00     0.027 C 
BRANCH  29  30
HETATM   30  C9  UNL     1      19.430  22.082  28.600  1.00  0.00     0.232 C 
BRANCH  30  31
HETATM   31  N3  UNL     1      20.581  22.136  29.434  1.00  0.00    -0.074 N 
ATOM     32  H32 UNL     1      20.744  21.237  29.886  1.00  0.00     0.277 HD
ATOM     33  H31 UNL     1      21.432  22.200  28.874  1.00  0.00     0.277 HD
BRANCH  31  34
HETATM   34  C10 UNL     1      20.527  23.206  30.414  1.00  0.00     0.259 C 
BRANCH  34  35
HETATM   35  C11 UNL     1      20.234  22.731  31.806  1.00  0.00     0.257 C 
BRANCH  35  36
HETATM   36  N4  UNL     1      21.030  21.570  32.156  1.00  0.00    -0.078 N 
ATOM     37  H43 UNL     1      21.650  21.301  31.392  1.00  0.00     0.274 HD
ATOM     38  H42 UNL     1      21.733  21.799  32.859  1.00  0.00     0.274 HD
ATOM     39  H41 UNL     1      20.447  20.789  32.454  1.00  0.00     0.274 HD
ENDBRANCH  35  36
ENDBRANCH  34  35
ENDBRANCH  31  34
ENDBRANCH  30  31
ENDBRANCH  29  30
ENDBRANCH  28  29
ENDBRANCH  27  28
ENDBRANCH  26  27
ENDBRANCH   8  26
BRANCH  25  40
HETATM   40  O4  UNL     1      14.830  14.529  27.949  1.00  0.00    -0.348 OA
ATOM     41  H4  UNL     1      14.495  13.901  27.321  1.00  0.00     0.219 HD
ENDBRANCH  25  40
BRANCH  22  42
HETATM   42  C22 UNL     1      15.333  16.694  24.576  1.00  0.00     0.036 C 
BRANCH  42  43
HETATM   43  C23 UNL     1      14.085  16.187  23.893  1.00  0.00     0.030 C 
BRANCH  43  44
HETATM   44  C24 UNL     1      14.542  15.255  22.768  1.00  0.00     0.230 C 
BRANCH  44  45
HETATM   45  N6  UNL     1      13.810  14.018  22.776  1.00  0.00    -0.079 N 
ATOM     46  H63 UNL     1      14.398  13.239  23.074  1.00  0.00     0.274 HD
ATOM     47  H62 UNL     1      13.123  13.996  23.529  1.00  0.00     0.274 HD
ATOM     48  H61 UNL     1      13.377  13.832  21.871  1.00  0.00     0.274 HD
ENDBRANCH  44  45
ENDBRANCH  43  44
ENDBRANCH  42  43
ENDBRANCH  22  42
TORSDOF 14
ENDMDL
MODEL 4
REMARK VINA RESULT: -6.762521512      2.426      3.337
REMARK  14 active torsions:
REMARK  status: ('A' for Active; 'I' for Inactive)
REMARK       I    between atoms: N2_7  and  C4_8 
REMARK    1  A    between atoms: C4_8  and  C5_10 
REMARK    2  A    between atoms: C5_10  and  C6_11 
REMARK    3  A    between atoms: C6_11  and  C7_12 
REMARK    4  A    between atoms: C7_12  and  C8_13 
REMARK    5  A    between atoms: C8_13  and  C9_14 
REMARK    6  A    between atoms: C9_14  and  N3_15 
REMARK    7  A    between atoms: N3_15  and  C10_18 
REMARK    8  A    between atoms: C10_18  and  C11_19 
REMARK    9  A    between atoms: C11_19  and  N4_20 
REMARK   10  A    between atoms: C21_36  and  C22_37 
REMARK   11  A    between atoms: C22_37  and  C23_38 
REMARK   12  A    between atoms: C23_38  and  C24_39 
REMARK   13  A    between atoms: C24_39  and  N6_40 
REMARK   14  A    between atoms: C25_46  and  O4_47 
ROOT
HETATM    1  C1  UNL     1      17.039  17.245  27.911  1.00  0.00     0.041 C 
HETATM    2  C2  UNL     1      16.009  16.247  28.225  1.00  0.00     0.156 C 
HETATM    3  N1  UNL     1      16.236  15.625  29.540  1.00  0.00    -0.331 N 
ATOM      4  H1  UNL     1      15.636  14.832  29.764  1.00  0.00     0.165 HD
HETATM    5  C3  UNL     1      17.160  15.975  30.517  1.00  0.00     0.325 C 
HETATM    6  O1  UNL     1      16.666  16.236  31.679  1.00  0.00    -0.247 OA
HETATM    7  N2  UNL     1      18.568  16.082  30.406  1.00  0.00    -0.270 N 
HETATM    8  C4  UNL     1      19.233  17.189  30.986  1.00  0.00     0.227 C 
HETATM    9  O2  UNL     1      20.509  17.229  30.841  1.00  0.00    -0.273 OA
HETATM   10  C12 UNL     1      19.403  15.119  29.720  1.00  0.00     0.137 C 
HETATM   11  C13 UNL     1      19.799  13.917  30.483  1.00  0.00     0.020 C 
HETATM   12  C14 UNL     1      20.998  13.311  29.731  1.00  0.00     0.002 C 
HETATM   13  C15 UNL     1      20.613  12.814  28.371  1.00  0.00     0.000 C 
HETATM   14  C16 UNL     1      21.402  13.515  27.294  1.00  0.00     0.000 C 
HETATM   15  C17 UNL     1      20.988  13.121  25.895  1.00  0.00     0.002 C 
HETATM   16  C18 UNL     1      19.544  13.383  25.712  1.00  0.00     0.020 C 
HETATM   17  C19 UNL     1      19.174  14.223  24.509  1.00  0.00     0.122 C 
HETATM   18  N5  UNL     1      18.880  15.596  24.859  1.00  0.00    -0.359 N 
ATOM     19  H5  UNL     1      19.615  16.128  25.325  1.00  0.00     0.162 HD
HETATM   20  C20 UNL     1      17.662  16.258  24.610  1.00  0.00     0.240 C 
HETATM   21  O3  UNL     1      17.731  17.446  24.201  1.00  0.00    -0.271 OA
HETATM   22  C21 UNL     1      16.298  15.692  24.781  1.00  0.00     0.175 C 
HETATM   23  N7  UNL     1      16.173  14.903  25.980  1.00  0.00    -0.359 N 
ATOM     24  H7  UNL     1      16.465  13.934  25.852  1.00  0.00     0.162 HD
HETATM   25  C25 UNL     1      15.744  15.172  27.261  1.00  0.00     0.135 C 
ENDROOT
BRANCH   8  26
HETATM   26  C5  UNL     1      18.575  18.292  31.734  1.00  0.00     0.103 C 
BRANCH  26  27
HETATM   27  C6  UNL     1      18.979  19.613  31.123  1.00  0.00     0.009 C 
BRANCH  27  28
HETATM   28  C7  UNL     1      18.327  19.848  29.779  1.00  0.00     0.002 C 
BRANCH  28  29
HETATM   29  C8  UNL     1      19.282  20.143  28.690  1.00  0.00     0.027 C 
BRANCH  29  30
HETATM   30  C9  UNL     1      19.569  21.612  28.606  1.00  0.00     0.232 C 
BRANCH  30  31
HETATM   31  N3  UNL     1      19.088  22.153  27.381  1.00  0.00    -0.074 N 
ATOM     32  H32 UNL     1      19.050  21.434  26.658  1.00  0.00     0.277 HD
ATOM     33  H31 UNL     1      18.095  22.376  27.449  1.00  0.00     0.277 HD
BRANCH  31  34
HETATM   34  C10 UNL     1      19.848  23.304  26.927  1.00  0.00     0.259 C 
BRANCH  34  35
HETATM   35  C11 UNL     1      19.506  23.738  25.533  1.00  0.00     0.257 C 
BRANCH  35  36
HETATM   36  N4  UNL     1      19.601  25.177  25.380  1.00  0.00    -0.078 N 
ATOM     37  H43 UNL     1      19.842  25.629  26.262  1.00  0.00     0.274 HD
ATOM     38  H42 UNL     1      20.422  25.440  24.835  1.00  0.00     0.274 HD
ATOM     39  H41 UNL     1      18.749  25.571  24.981  1.00  0.00     0.274 HD
ENDBRANCH  35  36
ENDBRANCH  34  35
ENDBRANCH  31  34
ENDBRANCH  30  31
ENDBRANCH  29  30
ENDBRANCH  28  29
ENDBRANCH  27  28
ENDBRANCH  26  27
ENDBRANCH   8  26
BRANCH  25  40
HETATM   40  O4  UNL     1      14.916  14.301  27.773  1.00  0.00    -0.348 OA
ATOM     41  H4  UNL     1      15.242  13.992  28.610  1.00  0.00     0.219 HD
ENDBRANCH  25  40
BRANCH  22  42
HETATM   42  C22 UNL     1      15.248  16.730  24.562  1.00  0.00     0.036 C 
BRANCH  42  43
HETATM   43  C23 UNL     1      14.025  16.190  23.859  1.00  0.00     0.030 C 
BRANCH  43  44
HETATM   44  C24 UNL     1      14.525  15.263  22.749  1.00  0.00     0.230 C 
BRANCH  44  45
HETATM   45  N6  UNL     1      13.821  14.009  22.748  1.00  0.00    -0.079 N 
ATOM     46  H63 UNL     1      14.194  13.373  23.452  1.00  0.00     0.274 HD
ATOM     47  H62 UNL     1      12.875  14.113  23.114  1.00  0.00     0.274 HD
ATOM     48  H61 UNL     1      13.818  13.580  21.823  1.00  0.00     0.274 HD
ENDBRANCH  44  45
ENDBRANCH  43  44
ENDBRANCH  42  43
ENDBRANCH  22  42
TORSDOF 14
ENDMDL
MODEL 5
REMARK VINA RESULT: -6.735811707      1.127      1.249
REMARK  14 active torsions:
REMARK  status: ('A' for Active; 'I' for Inactive)
REMARK       I    between atoms: N2_7  and  C4_8 
REMARK    1  A    between atoms: C4_8  and  C5_10 
REMARK    2  A    between atoms: C5_10  and  C6_11 
REMARK    3  A    between atoms: C6_11  and  C7_12 
REMARK    4  A    between atoms: C7_12  and  C8_13 
REMARK    5  A    between atoms: C8_13  and  C9_14 
REMARK    6  A    between atoms: C9_14  and  N3_15 
REMARK    7  A    between atoms: N3_15  and  C10_18 
REMARK    8  A    between atoms: C10_18  and  C11_19 
REMARK    9  A    between atoms: C11_19  and  N4_20 
REMARK   10  A    between atoms: C21_36  and  C22_37 
REMARK   11  A    between atoms: C22_37  and  C23_38 
REMARK   12  A    between atoms: C23_38  and  C24_39 
REMARK   13  A    between atoms: C24_39  and  N6_40 
REMARK   14  A    between atoms: C25_46  and  O4_47 
ROOT
HETATM    1  C1  UNL     1      17.954  17.507  28.429  1.00  0.00     0.041 C 
HETATM    2  C2  UNL     1      16.592  17.165  28.856  1.00  0.00     0.156 C 
HETATM    3  N1  UNL     1      16.469  17.144  30.323  1.00  0.00    -0.331 N 
ATOM      4  H1  UNL     1      15.587  16.786  30.689  1.00  0.00     0.165 HD
HETATM    5  C3  UNL     1      17.396  17.546  31.276  1.00  0.00     0.325 C 
HETATM    6  O1  UNL     1      16.983  18.440  32.109  1.00  0.00    -0.247 OA
HETATM    7  N2  UNL     1      18.731  17.106  31.455  1.00  0.00    -0.270 N 
HETATM    8  C4  UNL     1      19.752  18.054  31.706  1.00  0.00     0.227 C 
HETATM    9  O2  UNL     1      20.941  17.588  31.850  1.00  0.00    -0.273 OA
HETATM   10  C12 UNL     1      19.143  15.720  31.392  1.00  0.00     0.137 C 
HETATM   11  C13 UNL     1      18.972  14.918  32.621  1.00  0.00     0.020 C 
HETATM   12  C14 UNL     1      19.865  13.676  32.446  1.00  0.00     0.002 C 
HETATM   13  C15 UNL     1      19.393  12.799  31.326  1.00  0.00     0.000 C 
HETATM   14  C16 UNL     1      20.460  12.643  30.273  1.00  0.00     0.000 C 
HETATM   15  C17 UNL     1      20.005  11.846  29.072  1.00  0.00     0.002 C 
HETATM   16  C18 UNL     1      18.805  12.477  28.482  1.00  0.00     0.020 C 
HETATM   17  C19 UNL     1      18.879  12.777  27.001  1.00  0.00     0.122 C 
HETATM   18  N5  UNL     1      19.146  14.173  26.730  1.00  0.00    -0.359 N 
ATOM     19  H5  UNL     1      20.005  14.568  27.112  1.00  0.00     0.162 HD
HETATM   20  C20 UNL     1      18.318  15.031  25.980  1.00  0.00     0.240 C 
HETATM   21  O3  UNL     1      18.886  15.818  25.179  1.00  0.00    -0.271 OA
HETATM   22  C21 UNL     1      16.834  15.100  26.040  1.00  0.00     0.175 C 
HETATM   23  N7  UNL     1      16.329  15.010  27.386  1.00  0.00    -0.359 N 
ATOM     24  H7  UNL     1      16.211  14.048  27.704  1.00  0.00     0.162 HD
HETATM   25  C25 UNL     1      15.971  15.939  28.337  1.00  0.00     0.135 C 
ENDROOT
BRANCH   8  26
HETATM   26  C5  UNL     1      19.554  19.524  31.813  1.00  0.00     0.103 C 
BRANCH  26  27
HETATM   27  C6  UNL     1      20.483  20.071  32.871  1.00  0.00     0.009 C 
BRANCH  27  28
HETATM   28  C7  UNL     1      20.239  21.537  33.148  1.00  0.00     0.002 C 
BRANCH  28  29
HETATM   29  C8  UNL     1      19.426  22.217  32.118  1.00  0.00     0.027 C 
BRANCH  29  30
HETATM   30  C9  UNL     1      20.237  23.236  31.375  1.00  0.00     0.232 C 
BRANCH  30  31
HETATM   31  N3  UNL     1      20.972  22.627  30.320  1.00  0.00    -0.074 N 
ATOM     32  H32 UNL     1      21.844  23.128  30.150  1.00  0.00     0.277 HD
ATOM     33  H31 UNL     1      21.349  21.726  30.614  1.00  0.00     0.277 HD
BRANCH  31  34
HETATM   34  C10 UNL     1      20.206  22.491  29.094  1.00  0.00     0.259 C 
BRANCH  34  35
HETATM   35  C11 UNL     1      20.777  21.489  28.136  1.00  0.00     0.257 C 
BRANCH  35  36
HETATM   36  N4  UNL     1      21.396  20.376  28.829  1.00  0.00    -0.078 N 
ATOM     37  H43 UNL     1      22.383  20.554  29.012  1.00  0.00     0.274 HD
ATOM     38  H42 UNL     1      21.065  20.307  29.792  1.00  0.00     0.274 HD
ATOM     39  H41 UNL     1      21.263  19.498  28.328  1.00  0.00     0.274 HD
ENDBRANCH  35  36
ENDBRANCH  34  35
ENDBRANCH  31  34
ENDBRANCH  30  31
ENDBRANCH  29  30
ENDBRANCH  28  29
ENDBRANCH  27  28
ENDBRANCH  26  27
ENDBRANCH   8  26
BRANCH  25  40
HETATM   40  O4  UNL     1      14.833  15.721  28.940  1.00  0.00    -0.348 OA
ATOM     41  H4  UNL     1      14.525  16.517  29.357  1.00  0.00     0.219 HD
ENDBRANCH  25  40
BRANCH  22  42
HETATM   42  C22 UNL     1      16.309  16.227  25.213  1.00  0.00     0.036 C 
BRANCH  42  43
HETATM   43  C23 UNL     1      14.952  15.936  24.616  1.00  0.00     0.030 C 
BRANCH  43  44
HETATM   44  C24 UNL     1      13.947  16.837  25.338  1.00  0.00     0.230 C 
BRANCH  44  45
HETATM   45  N6  UNL     1      13.145  16.094  26.271  1.00  0.00    -0.079 N 
ATOM     46  H63 UNL     1      12.169  16.056  25.976  1.00  0.00     0.274 HD
ATOM     47  H62 UNL     1      13.360  15.097  26.236  1.00  0.00     0.274 HD
ATOM     48  H61 UNL     1      13.233  16.461  27.219  1.00  0.00     0.274 HD
ENDBRANCH  44  45
ENDBRANCH  43  44
ENDBRANCH  42  43
ENDBRANCH  22  42
TORSDOF 14
ENDMDL
