MODEL 1
REMARK VINA RESULT: -8.148464783      0.000      0.000
REMARK  13 active torsions:
REMARK  status: ('A' for Active; 'I' for Inactive)
REMARK    1  A    between atoms: C2_2  and  O2_4 
REMARK    2  A    between atoms: O2_4  and  C3_5 
REMARK    3  A    between atoms: C4_8  and  N2_9 
REMARK    4  A    between atoms: N4_15  and  N5_17 
REMARK    5  A    between atoms: N5_17  and  O3_19 
REMARK    6  A    between atoms: O3_19  and  C6_20 
REMARK    7  A    between atoms: C6_20  and  C7_22 
REMARK    8  A    between atoms: C7_22  and  O5_23 
REMARK    9  A    between atoms: N6_25  and  O6_27 
REMARK   10  A    between atoms: N7_29  and  C8_30 
REMARK   11  A    between atoms: C8_30  and  O7_31 
REMARK   12  A    between atoms: C8_30  and  N8_33 
REMARK   13  A    between atoms: N8_33  and  O8_35 
ROOT
HETATM    1  C3  UNL     1      24.811  38.978  15.436  1.00  0.00     0.271 A 
HETATM    2  N1  UNL     1      25.852  39.783  15.043  1.00  0.00    -0.153 N 
ATOM      3  H1  UNL     1      26.435  39.478  14.263  1.00  0.00     0.188 HD
HETATM    4  C4  UNL     1      26.136  40.944  15.629  1.00  0.00     0.693 A 
HETATM    5  N3  UNL     1      25.360  41.315  16.642  1.00  0.00    -0.020 N 
ATOM      6  H3  UNL     1      25.543  42.196  17.121  1.00  0.00     0.203 HD
HETATM    7  C5  UNL     1      24.341  40.546  17.040  1.00  0.00     0.726 A 
HETATM    8  N4  UNL     1      23.621  40.968  18.031  1.00  0.00    -0.111 N 
ATOM      9  H4  UNL     1      22.838  40.399  18.354  1.00  0.00     0.207 HD
HETATM   10  N7  UNL     1      24.022  39.333  16.444  1.00  0.00    -0.068 N 
ENDROOT
BRANCH   8  11
HETATM   11  N5  UNL     1      23.887  42.176  18.667  1.00  0.00    -0.184 N 
ATOM     12  H5  UNL     1      23.294  42.988  18.500  1.00  0.00     0.217 HD
BRANCH  11  13
HETATM   13  O3  UNL     1      24.960  42.263  19.524  1.00  0.00    -0.176 OA
BRANCH  13  14
HETATM   14  C6  UNL     1      25.872  43.305  19.487  1.00  0.00     0.359 C 
HETATM   15  O4  UNL     1      26.353  43.575  18.342  1.00  0.00    -0.253 OA
BRANCH  14  16
HETATM   16  C7  UNL     1      26.277  44.061  20.646  1.00  0.00     0.239 C 
HETATM   17  N6  UNL     1      27.450  43.889  21.147  1.00  0.00    -0.242 N 
ATOM     18  H6  UNL     1      28.075  43.214  20.708  1.00  0.00     0.196 HD
BRANCH  16  19
HETATM   19  O5  UNL     1      25.431  44.971  21.236  1.00  0.00    -0.340 OA
ATOM     20  H5  UNL     1      25.735  45.553  21.923  1.00  0.00     0.219 HD
ENDBRANCH  16  19
BRANCH  17  21
HETATM   21  O6  UNL     1      27.894  44.579  22.249  1.00  0.00    -0.288 OA
ATOM     22  H6  UNL     1      28.666  44.322  22.739  1.00  0.00     0.244 HD
ENDBRANCH  17  21
ENDBRANCH  14  16
ENDBRANCH  13  14
ENDBRANCH  11  13
ENDBRANCH   8  11
BRANCH  10  23
HETATM   23  C8  UNL     1      22.851  38.708  16.892  1.00  0.00     0.268 C 
BRANCH  23  24
HETATM   24  O7  UNL     1      22.065  39.564  17.559  1.00  0.00    -0.330 OA
ATOM     25  H7  UNL     1      22.101  39.410  18.496  1.00  0.00     0.221 HD
ENDBRANCH  23  24
BRANCH  23  26
HETATM   26  N8  UNL     1      22.282  37.461  16.829  1.00  0.00    -0.227 N 
HETATM   27  C9  UNL     1      22.663  36.139  17.197  1.00  0.00     0.189 C 
BRANCH  26  28
HETATM   28  O8  UNL     1      20.970  37.471  16.256  1.00  0.00    -0.285 OA
ATOM     29  H8  UNL     1      20.352  36.928  16.730  1.00  0.00     0.245 HD
ENDBRANCH  26  28
ENDBRANCH  23  26
ENDBRANCH  10  23
BRANCH   4  30
HETATM   30  N2  UNL     1      27.129  41.691  15.233  1.00  0.00    -0.234 N 
ATOM     31  H22 UNL     1      28.014  41.278  14.938  1.00  0.00     0.174 HD
ATOM     32  H21 UNL     1      27.060  42.708  15.204  1.00  0.00     0.174 HD
ENDBRANCH   4  30
BRANCH   1  33
HETATM   33  O2  UNL     1      24.640  37.790  14.742  1.00  0.00    -0.245 OA
BRANCH  33  34
HETATM   34  C2  UNL     1      24.800  37.799  13.327  1.00  0.00     0.262 C 
HETATM   35  C1  UNL     1      25.292  36.579  12.637  1.00  0.00     0.126 C 
HETATM   36  O1  UNL     1      24.504  38.863  12.754  1.00  0.00    -0.265 OA
ENDBRANCH  33  34
ENDBRANCH   1  33
TORSDOF 13
ENDMDL
MODEL 2
REMARK VINA RESULT: -8.054956912      8.814     12.000
REMARK  13 active torsions:
REMARK  status: ('A' for Active; 'I' for Inactive)
REMARK    1  A    between atoms: C2_2  and  O2_4 
REMARK    2  A    between atoms: O2_4  and  C3_5 
REMARK    3  A    between atoms: C4_8  and  N2_9 
REMARK    4  A    between atoms: N4_15  and  N5_17 
REMARK    5  A    between atoms: N5_17  and  O3_19 
REMARK    6  A    between atoms: O3_19  and  C6_20 
REMARK    7  A    between atoms: C6_20  and  C7_22 
REMARK    8  A    between atoms: C7_22  and  O5_23 
REMARK    9  A    between atoms: N6_25  and  O6_27 
REMARK   10  A    between atoms: N7_29  and  C8_30 
REMARK   11  A    between atoms: C8_30  and  O7_31 
REMARK   12  A    between atoms: C8_30  and  N8_33 
REMARK   13  A    between atoms: N8_33  and  O8_35 
ROOT
HETATM    1  C3  UNL     1      31.917  44.044  22.481  1.00  0.00     0.271 A 
HETATM    2  N1  UNL     1      31.870  44.575  23.747  1.00  0.00    -0.153 N 
ATOM      3  H1  UNL     1      31.020  44.447  24.296  1.00  0.00     0.188 HD
HETATM    4  C4  UNL     1      32.880  45.249  24.291  1.00  0.00     0.693 A 
HETATM    5  N3  UNL     1      33.974  45.400  23.551  1.00  0.00    -0.020 N 
ATOM      6  H3  UNL     1      34.771  45.911  23.929  1.00  0.00     0.203 HD
HETATM    7  C5  UNL     1      34.041  44.889  22.317  1.00  0.00     0.726 A 
HETATM    8  N4  UNL     1      35.137  45.070  21.652  1.00  0.00    -0.111 N 
ATOM      9  H4  UNL     1      35.213  44.690  20.707  1.00  0.00     0.207 HD
HETATM   10  N7  UNL     1      33.003  44.181  21.727  1.00  0.00    -0.068 N 
ENDROOT
BRANCH   8  11
HETATM   11  N5  UNL     1      36.214  45.767  22.189  1.00  0.00    -0.184 N 
ATOM     12  H5  UNL     1      37.112  45.303  22.327  1.00  0.00     0.217 HD
BRANCH  11  13
HETATM   13  O3  UNL     1      36.055  47.089  22.532  1.00  0.00    -0.176 OA
BRANCH  13  14
HETATM   14  C6  UNL     1      36.199  48.126  21.625  1.00  0.00     0.359 C 
HETATM   15  O4  UNL     1      36.452  47.779  20.428  1.00  0.00    -0.253 OA
BRANCH  14  16
HETATM   16  C7  UNL     1      36.078  49.521  21.971  1.00  0.00     0.239 C 
HETATM   17  N6  UNL     1      35.684  49.859  23.148  1.00  0.00    -0.242 N 
ATOM     18  H6  UNL     1      35.463  49.124  23.820  1.00  0.00     0.196 HD
BRANCH  16  19
HETATM   19  O5  UNL     1      36.375  50.510  21.063  1.00  0.00    -0.340 OA
ATOM     20  H5  UNL     1      35.691  51.034  20.663  1.00  0.00     0.219 HD
ENDBRANCH  16  19
BRANCH  17  21
HETATM   21  O6  UNL     1      35.549  51.169  23.538  1.00  0.00    -0.288 OA
ATOM     22  H6  UNL     1      35.491  51.886  22.917  1.00  0.00     0.244 HD
ENDBRANCH  17  21
ENDBRANCH  14  16
ENDBRANCH  13  14
ENDBRANCH  11  13
ENDBRANCH   8  11
BRANCH  10  23
HETATM   23  C8  UNL     1      33.274  43.602  20.481  1.00  0.00     0.268 C 
BRANCH  23  24
HETATM   24  O7  UNL     1      33.827  42.388  20.616  1.00  0.00    -0.330 OA
ATOM     25  H7  UNL     1      33.277  41.812  21.133  1.00  0.00     0.221 HD
ENDBRANCH  23  24
BRANCH  23  26
HETATM   26  N8  UNL     1      33.122  43.931  19.157  1.00  0.00    -0.227 N 
HETATM   27  C9  UNL     1      32.342  43.456  18.065  1.00  0.00     0.189 C 
BRANCH  26  28
HETATM   28  O8  UNL     1      33.943  45.034  18.756  1.00  0.00    -0.285 OA
ATOM     29  H8  UNL     1      34.778  45.060  19.209  1.00  0.00     0.245 HD
ENDBRANCH  26  28
ENDBRANCH  23  26
ENDBRANCH  10  23
BRANCH   4  30
HETATM   30  N2  UNL     1      32.809  45.741  25.497  1.00  0.00    -0.234 N 
ATOM     31  H22 UNL     1      32.002  45.558  26.094  1.00  0.00     0.174 HD
ATOM     32  H21 UNL     1      33.551  46.323  25.886  1.00  0.00     0.174 HD
ENDBRANCH   4  30
BRANCH   1  33
HETATM   33  O2  UNL     1      30.786  43.376  22.038  1.00  0.00    -0.245 OA
BRANCH  33  34
HETATM   34  C2  UNL     1      29.607  44.133  21.777  1.00  0.00     0.262 C 
HETATM   35  C1  UNL     1      29.218  44.423  20.373  1.00  0.00     0.126 C 
HETATM   36  O1  UNL     1      28.969  44.507  22.778  1.00  0.00    -0.265 OA
ENDBRANCH  33  34
ENDBRANCH   1  33
TORSDOF 13
ENDMDL
MODEL 3
REMARK VINA RESULT: -8.048733227      7.157     12.060
REMARK  13 active torsions:
REMARK  status: ('A' for Active; 'I' for Inactive)
REMARK    1  A    between atoms: C2_2  and  O2_4 
REMARK    2  A    between atoms: O2_4  and  C3_5 
REMARK    3  A    between atoms: C4_8  and  N2_9 
REMARK    4  A    between atoms: N4_15  and  N5_17 
REMARK    5  A    between atoms: N5_17  and  O3_19 
REMARK    6  A    between atoms: O3_19  and  C6_20 
REMARK    7  A    between atoms: C6_20  and  C7_22 
REMARK    8  A    between atoms: C7_22  and  O5_23 
REMARK    9  A    between atoms: N6_25  and  O6_27 
REMARK   10  A    between atoms: N7_29  and  C8_30 
REMARK   11  A    between atoms: C8_30  and  O7_31 
REMARK   12  A    between atoms: C8_30  and  N8_33 
REMARK   13  A    between atoms: N8_33  and  O8_35 
ROOT
HETATM    1  C3  UNL     1      34.012  46.978  22.047  1.00  0.00     0.271 A 
HETATM    2  N1  UNL     1      33.385  47.819  21.161  1.00  0.00    -0.153 N 
ATOM      3  H1  UNL     1      33.698  48.789  21.107  1.00  0.00     0.188 HD
HETATM    4  C4  UNL     1      32.388  47.430  20.370  1.00  0.00     0.693 A 
HETATM    5  N3  UNL     1      32.002  46.162  20.463  1.00  0.00    -0.020 N 
ATOM      6  H3  UNL     1      31.241  45.822  19.875  1.00  0.00     0.203 HD
HETATM    7  C5  UNL     1      32.601  45.326  21.318  1.00  0.00     0.726 A 
HETATM    8  N4  UNL     1      32.178  44.102  21.356  1.00  0.00    -0.111 N 
ATOM      9  H4  UNL     1      32.619  43.445  22.001  1.00  0.00     0.207 HD
HETATM   10  N7  UNL     1      33.643  45.705  22.153  1.00  0.00    -0.068 N 
ENDROOT
BRANCH   8  11
HETATM   11  N5  UNL     1      31.141  43.660  20.542  1.00  0.00    -0.184 N 
ATOM     12  H5  UNL     1      31.222  43.714  19.527  1.00  0.00     0.217 HD
BRANCH  11  13
HETATM   13  O3  UNL     1      30.003  43.147  21.122  1.00  0.00    -0.176 OA
BRANCH  13  14
HETATM   14  C6  UNL     1      29.020  43.943  21.687  1.00  0.00     0.359 C 
HETATM   15  O4  UNL     1      29.297  44.433  22.827  1.00  0.00    -0.253 OA
BRANCH  14  16
HETATM   16  C7  UNL     1      27.753  44.224  21.059  1.00  0.00     0.239 C 
HETATM   17  N6  UNL     1      26.712  44.444  21.782  1.00  0.00    -0.242 N 
ATOM     18  H6  UNL     1      26.808  44.415  22.797  1.00  0.00     0.196 HD
BRANCH  16  19
HETATM   19  O5  UNL     1      27.628  44.262  19.690  1.00  0.00    -0.340 OA
ATOM     20  H5  UNL     1      27.989  43.573  19.142  1.00  0.00     0.219 HD
ENDBRANCH  16  19
BRANCH  17  21
HETATM   21  O6  UNL     1      25.479  44.718  21.244  1.00  0.00    -0.288 OA
ATOM     22  H6  UNL     1      24.696  44.813  21.775  1.00  0.00     0.244 HD
ENDBRANCH  17  21
ENDBRANCH  14  16
ENDBRANCH  13  14
ENDBRANCH  11  13
ENDBRANCH   8  11
BRANCH  10  23
HETATM   23  C8  UNL     1      34.248  44.685  22.897  1.00  0.00     0.268 C 
BRANCH  23  24
HETATM   24  O7  UNL     1      33.745  44.622  24.138  1.00  0.00    -0.330 OA
ATOM     25  H7  UNL     1      34.291  44.092  24.707  1.00  0.00     0.221 HD
ENDBRANCH  23  24
BRANCH  23  26
HETATM   26  N8  UNL     1      35.210  43.725  22.705  1.00  0.00    -0.227 N 
HETATM   27  C9  UNL     1      35.665  42.934  21.612  1.00  0.00     0.189 C 
BRANCH  26  28
HETATM   28  O8  UNL     1      35.959  43.437  23.890  1.00  0.00    -0.285 OA
ATOM     29  H8  UNL     1      36.606  42.752  23.765  1.00  0.00     0.245 HD
ENDBRANCH  26  28
ENDBRANCH  23  26
ENDBRANCH  10  23
BRANCH   4  30
HETATM   30  N2  UNL     1      31.811  48.250  19.535  1.00  0.00    -0.234 N 
ATOM     31  H22 UNL     1      31.518  49.182  19.830  1.00  0.00     0.174 HD
ATOM     32  H21 UNL     1      31.633  47.993  18.564  1.00  0.00     0.174 HD
ENDBRANCH   4  30
BRANCH   1  33
HETATM   33  O2  UNL     1      35.027  47.522  22.819  1.00  0.00    -0.245 OA
BRANCH  33  34
HETATM   34  C2  UNL     1      35.242  48.930  22.767  1.00  0.00     0.262 C 
HETATM   35  C1  UNL     1      36.541  49.454  22.275  1.00  0.00     0.126 C 
HETATM   36  O1  UNL     1      34.293  49.639  23.148  1.00  0.00    -0.265 OA
ENDBRANCH  33  34
ENDBRANCH   1  33
TORSDOF 13
ENDMDL
MODEL 4
REMARK VINA RESULT: -8.047626762      1.042      1.181
REMARK  13 active torsions:
REMARK  status: ('A' for Active; 'I' for Inactive)
REMARK    1  A    between atoms: C2_2  and  O2_4 
REMARK    2  A    between atoms: O2_4  and  C3_5 
REMARK    3  A    between atoms: C4_8  and  N2_9 
REMARK    4  A    between atoms: N4_15  and  N5_17 
REMARK    5  A    between atoms: N5_17  and  O3_19 
REMARK    6  A    between atoms: O3_19  and  C6_20 
REMARK    7  A    between atoms: C6_20  and  C7_22 
REMARK    8  A    between atoms: C7_22  and  O5_23 
REMARK    9  A    between atoms: N6_25  and  O6_27 
REMARK   10  A    between atoms: N7_29  and  C8_30 
REMARK   11  A    between atoms: C8_30  and  O7_31 
REMARK   12  A    between atoms: C8_30  and  N8_33 
REMARK   13  A    between atoms: N8_33  and  O8_35 
ROOT
HETATM    1  C3  UNL     1      24.641  38.324  15.211  1.00  0.00     0.271 A 
HETATM    2  N1  UNL     1      25.617  39.235  14.890  1.00  0.00    -0.153 N 
ATOM      3  H1  UNL     1      26.270  39.004  14.140  1.00  0.00     0.188 HD
HETATM    4  C4  UNL     1      25.753  40.404  15.509  1.00  0.00     0.693 A 
HETATM    5  N3  UNL     1      24.889  40.677  16.482  1.00  0.00    -0.020 N 
ATOM      6  H3  UNL     1      24.958  41.562  16.984  1.00  0.00     0.203 HD
HETATM    7  C5  UNL     1      23.930  39.805  16.809  1.00  0.00     0.726 A 
HETATM    8  N4  UNL     1      23.119  40.134  17.763  1.00  0.00    -0.111 N 
ATOM      9  H4  UNL     1      22.379  39.485  18.032  1.00  0.00     0.207 HD
HETATM   10  N7  UNL     1      23.765  38.579  16.177  1.00  0.00    -0.068 N 
ENDROOT
BRANCH   8  11
HETATM   11  N5  UNL     1      23.229  41.349  18.432  1.00  0.00    -0.184 N 
ATOM     12  H5  UNL     1      22.488  42.046  18.361  1.00  0.00     0.217 HD
BRANCH  11  13
HETATM   13  O3  UNL     1      24.349  41.599  19.190  1.00  0.00    -0.176 OA
BRANCH  13  14
HETATM   14  C6  UNL     1      25.155  42.710  19.001  1.00  0.00     0.359 C 
HETATM   15  O4  UNL     1      25.087  43.250  17.851  1.00  0.00    -0.253 OA
BRANCH  14  16
HETATM   16  C7  UNL     1      26.029  43.252  20.011  1.00  0.00     0.239 C 
HETATM   17  N6  UNL     1      25.547  43.989  20.949  1.00  0.00    -0.242 N 
ATOM     18  H6  UNL     1      24.544  44.177  20.957  1.00  0.00     0.196 HD
BRANCH  16  19
HETATM   19  O5  UNL     1      27.381  42.998  19.997  1.00  0.00    -0.340 OA
ATOM     20  H5  UNL     1      28.015  43.698  20.104  1.00  0.00     0.219 HD
ENDBRANCH  16  19
BRANCH  17  21
HETATM   21  O6  UNL     1      26.327  44.534  21.940  1.00  0.00    -0.288 OA
ATOM     22  H6  UNL     1      26.009  45.206  22.532  1.00  0.00     0.244 HD
ENDBRANCH  17  21
ENDBRANCH  14  16
ENDBRANCH  13  14
ENDBRANCH  11  13
ENDBRANCH   8  11
BRANCH  10  23
HETATM   23  C8  UNL     1      22.639  37.834  16.547  1.00  0.00     0.268 C 
BRANCH  23  24
HETATM   24  O7  UNL     1      21.565  38.621  16.710  1.00  0.00    -0.330 OA
ATOM     25  H7  UNL     1      20.806  38.268  16.260  1.00  0.00     0.221 HD
ENDBRANCH  23  24
BRANCH  23  26
HETATM   26  N8  UNL     1      22.328  36.518  16.782  1.00  0.00    -0.227 N 
HETATM   27  C9  UNL     1      23.057  35.311  16.974  1.00  0.00     0.189 C 
BRANCH  26  28
HETATM   28  O8  UNL     1      20.918  36.282  16.864  1.00  0.00    -0.285 OA
ATOM     29  H8  UNL     1      20.632  35.549  16.331  1.00  0.00     0.245 HD
ENDBRANCH  26  28
ENDBRANCH  23  26
ENDBRANCH  10  23
BRANCH   4  30
HETATM   30  N2  UNL     1      26.689  41.253  15.182  1.00  0.00    -0.234 N 
ATOM     31  H22 UNL     1      26.486  42.059  14.591  1.00  0.00     0.174 HD
ATOM     32  H21 UNL     1      27.651  41.143  15.502  1.00  0.00     0.174 HD
ENDBRANCH   4  30
BRANCH   1  33
HETATM   33  O2  UNL     1      24.626  37.140  14.490  1.00  0.00    -0.245 OA
BRANCH  33  34
HETATM   34  C2  UNL     1      24.799  37.200  13.077  1.00  0.00     0.262 C 
HETATM   35  C1  UNL     1      25.607  36.158  12.393  1.00  0.00     0.126 C 
HETATM   36  O1  UNL     1      24.242  38.152  12.501  1.00  0.00    -0.265 OA
ENDBRANCH  33  34
ENDBRANCH   1  33
TORSDOF 13
ENDMDL
MODEL 5
REMARK VINA RESULT: -8.024039218      3.431      8.135
REMARK  13 active torsions:
REMARK  status: ('A' for Active; 'I' for Inactive)
REMARK    1  A    between atoms: C2_2  and  O2_4 
REMARK    2  A    between atoms: O2_4  and  C3_5 
REMARK    3  A    between atoms: C4_8  and  N2_9 
REMARK    4  A    between atoms: N4_15  and  N5_17 
REMARK    5  A    between atoms: N5_17  and  O3_19 
REMARK    6  A    between atoms: O3_19  and  C6_20 
REMARK    7  A    between atoms: C6_20  and  C7_22 
REMARK    8  A    between atoms: C7_22  and  O5_23 
REMARK    9  A    between atoms: N6_25  and  O6_27 
REMARK   10  A    between atoms: N7_29  and  C8_30 
REMARK   11  A    between atoms: C8_30  and  O7_31 
REMARK   12  A    between atoms: C8_30  and  N8_33 
REMARK   13  A    between atoms: N8_33  and  O8_35 
ROOT
HETATM    1  C3  UNL     1      27.192  45.983  19.670  1.00  0.00     0.271 A 
HETATM    2  N1  UNL     1      26.287  46.247  18.671  1.00  0.00    -0.153 N 
ATOM      3  H1  UNL     1      26.193  47.207  18.341  1.00  0.00     0.188 HD
HETATM    4  C4  UNL     1      25.527  45.308  18.111  1.00  0.00     0.693 A 
HETATM    5  N3  UNL     1      25.671  44.066  18.562  1.00  0.00    -0.020 N 
ATOM      6  H3  UNL     1      25.107  43.316  18.162  1.00  0.00     0.203 HD
HETATM    7  C5  UNL     1      26.547  43.788  19.533  1.00  0.00     0.726 A 
HETATM    8  N4  UNL     1      26.641  42.557  19.923  1.00  0.00    -0.111 N 
ATOM      9  H4  UNL     1      27.302  42.319  20.663  1.00  0.00     0.207 HD
HETATM   10  N7  UNL     1      27.353  44.748  20.131  1.00  0.00    -0.068 N 
ENDROOT
BRANCH   8  11
HETATM   11  N5  UNL     1      25.864  41.549  19.361  1.00  0.00    -0.184 N 
ATOM     12  H5  UNL     1      26.280  40.874  18.720  1.00  0.00     0.217 HD
BRANCH  11  13
HETATM   13  O3  UNL     1      24.527  41.474  19.678  1.00  0.00    -0.176 OA
BRANCH  13  14
HETATM   14  C6  UNL     1      23.522  41.523  18.726  1.00  0.00     0.359 C 
HETATM   15  O4  UNL     1      23.417  42.621  18.093  1.00  0.00    -0.253 OA
BRANCH  14  16
HETATM   16  C7  UNL     1      22.632  40.426  18.438  1.00  0.00     0.239 C 
HETATM   17  N6  UNL     1      23.111  39.256  18.199  1.00  0.00    -0.242 N 
ATOM     18  H6  UNL     1      24.122  39.129  18.217  1.00  0.00     0.196 HD
BRANCH  16  19
HETATM   19  O5  UNL     1      21.268  40.602  18.412  1.00  0.00    -0.340 OA
ATOM     20  H5  UNL     1      20.795  40.670  17.591  1.00  0.00     0.219 HD
ENDBRANCH  16  19
BRANCH  17  21
HETATM   21  O6  UNL     1      22.315  38.172  17.919  1.00  0.00    -0.288 OA
ATOM     22  H6  UNL     1      22.586  37.278  18.092  1.00  0.00     0.244 HD
ENDBRANCH  17  21
ENDBRANCH  14  16
ENDBRANCH  13  14
ENDBRANCH  11  13
ENDBRANCH   8  11
BRANCH  10  23
HETATM   23  C8  UNL     1      28.308  44.279  21.042  1.00  0.00     0.268 C 
BRANCH  23  24
HETATM   24  O7  UNL     1      27.970  44.582  22.303  1.00  0.00    -0.330 OA
ATOM     25  H7  UNL     1      27.229  44.066  22.597  1.00  0.00     0.221 HD
ENDBRANCH  23  24
BRANCH  23  26
HETATM   26  N8  UNL     1      29.493  43.587  21.000  1.00  0.00    -0.227 N 
HETATM   27  C9  UNL     1      30.812  43.839  20.528  1.00  0.00     0.189 C 
BRANCH  26  28
HETATM   28  O8  UNL     1      29.399  42.280  21.579  1.00  0.00    -0.285 OA
ATOM     29  H8  UNL     1      29.794  41.605  21.040  1.00  0.00     0.245 HD
ENDBRANCH  26  28
ENDBRANCH  23  26
ENDBRANCH  10  23
BRANCH   4  30
HETATM   30  N2  UNL     1      24.677  45.586  17.161  1.00  0.00    -0.234 N 
ATOM     31  H22 UNL     1      24.727  46.467  16.651  1.00  0.00     0.174 HD
ATOM     32  H21 UNL     1      23.935  44.938  16.896  1.00  0.00     0.174 HD
ENDBRANCH   4  30
BRANCH   1  33
HETATM   33  O2  UNL     1      27.908  47.061  20.168  1.00  0.00    -0.245 OA
BRANCH  33  34
HETATM   34  C2  UNL     1      28.966  47.599  19.381  1.00  0.00     0.262 C 
HETATM   35  C1  UNL     1      30.364  47.510  19.874  1.00  0.00     0.126 C 
HETATM   36  O1  UNL     1      28.630  48.119  18.301  1.00  0.00    -0.265 OA
ENDBRANCH  33  34
ENDBRANCH   1  33
TORSDOF 13
ENDMDL
