MODEL 1
REMARK VINA RESULT: -8.085403113      0.000      0.000
REMARK  8 active torsions:
REMARK  status: ('A' for Active; 'I' for Inactive)
REMARK    1  A    between atoms: C2_2  and  N1_3 
REMARK    2  A    between atoms: C2_2  and  C7_21 
REMARK    3  A    between atoms: N1_3  and  N2_4 
REMARK    4  A    between atoms: N2_4  and  C3_6 
REMARK    5  A    between atoms: C5_11  and  N5_12 
REMARK    6  A    between atoms: C6_15  and  N6_16 
REMARK    7  A    between atoms: C9_23  and  N8_24 
REMARK    8  A    between atoms: N8_24  and  N9_26 
ROOT
HETATM    1  N1  UNL     1      24.835  42.414  19.592  1.00  0.00    -0.318 NA
ENDROOT
BRANCH   1   2
HETATM    2  C2  UNL     1      24.239  41.608  18.985  1.00  0.00     0.106 C 
HETATM    3  C1  UNL     1      23.461  40.501  19.665  1.00  0.00     0.084 C 
BRANCH   2   4
HETATM    4  C7  UNL     1      24.152  41.547  17.469  1.00  0.00     0.153 A 
HETATM    5  C8  UNL     1      23.881  40.182  16.959  1.00  0.00     0.110 A 
HETATM    6  C9  UNL     1      24.915  39.690  16.044  1.00  0.00     0.106 A 
HETATM    7  N10 UNL     1      25.930  40.383  15.732  1.00  0.00    -0.319 N 
HETATM    8  C10 UNL     1      26.215  41.689  16.201  1.00  0.00     0.190 A 
ATOM      9  H10 UNL     1      26.600  39.963  15.088  1.00  0.00     0.169 HD
HETATM   10  N11 UNL     1      27.376  42.393  15.798  1.00  0.00    -0.063 NA
HETATM   11  N12 UNL     1      25.352  42.183  17.007  1.00  0.00    -0.353 N 
ATOM     12  H12 UNL     1      25.535  43.124  17.356  1.00  0.00     0.163 HD
BRANCH   6  13
HETATM   13  N8  UNL     1      24.760  38.354  15.480  1.00  0.00    -0.229 N 
ATOM     14  H8  UNL     1      24.603  37.549  16.086  1.00  0.00     0.194 HD
BRANCH  13  15
HETATM   15  N9  UNL     1      24.831  38.201  14.115  1.00  0.00    -0.038 N 
HETATM   16  O3  UNL     1      24.930  37.059  13.630  1.00  0.00    -0.516 OA
HETATM   17  O4  UNL     1      24.797  39.261  13.249  1.00  0.00    -0.516 OA
ENDBRANCH  13  15
ENDBRANCH   6  13
ENDBRANCH   2   4
ENDBRANCH   1   2
BRANCH   1  18
HETATM   18  N2  UNL     1      25.354  43.386  20.252  1.00  0.00    -0.065 N 
ATOM     19  H2  UNL     1      24.732  43.952  20.828  1.00  0.00     0.221 HD
BRANCH  18  20
HETATM   20  C3  UNL     1      26.604  43.695  20.238  1.00  0.00     0.710 A 
HETATM   21  N3  UNL     1      27.194  43.990  21.401  1.00  0.00    -0.174 N 
HETATM   22  C4  UNL     1      28.518  44.318  21.379  1.00  0.00     0.168 A 
ATOM     23  H3  UNL     1      26.671  43.971  22.276  1.00  0.00     0.185 HD
HETATM   24  N4  UNL     1      29.219  44.642  22.559  1.00  0.00    -0.079 NA
HETATM   25  C5  UNL     1      29.171  44.332  20.184  1.00  0.00     0.188 A 
HETATM   26  C6  UNL     1      28.553  44.029  19.004  1.00  0.00     0.151 A 
HETATM   27  N7  UNL     1      27.244  43.708  19.062  1.00  0.00    -0.172 N 
ATOM     28  H7  UNL     1      26.741  43.474  18.207  1.00  0.00     0.186 HD
BRANCH  25  29
HETATM   29  N5  UNL     1      30.549  44.672  20.140  1.00  0.00    -0.108 N 
HETATM   30  O1  UNL     1      30.912  45.837  20.009  1.00  0.00    -0.532 OA
HETATM   31  O2  UNL     1      31.481  43.678  20.247  1.00  0.00    -0.532 OA
ENDBRANCH  25  29
BRANCH  26  32
HETATM   32  N6  UNL     1      29.164  44.039  17.870  1.00  0.00    -0.383 N 
ATOM     33  H62 UNL     1      29.987  44.627  17.740  1.00  0.00     0.157 HD
ATOM     34  H61 UNL     1      28.864  43.478  17.074  1.00  0.00     0.157 HD
ENDBRANCH  26  32
ENDBRANCH  18  20
ENDBRANCH   1  18
TORSDOF 8
ENDMDL
MODEL 2
REMARK VINA RESULT: -8.031122062      1.718      3.183
REMARK  8 active torsions:
REMARK  status: ('A' for Active; 'I' for Inactive)
REMARK    1  A    between atoms: C2_2  and  N1_3 
REMARK    2  A    between atoms: C2_2  and  C7_21 
REMARK    3  A    between atoms: N1_3  and  N2_4 
REMARK    4  A    between atoms: N2_4  and  C3_6 
REMARK    5  A    between atoms: C5_11  and  N5_12 
REMARK    6  A    between atoms: C6_15  and  N6_16 
REMARK    7  A    between atoms: C9_23  and  N8_24 
REMARK    8  A    between atoms: N8_24  and  N9_26 
ROOT
HETATM    1  N1  UNL     1      23.457  42.174  17.992  1.00  0.00    -0.318 NA
ENDROOT
BRANCH   1   2
HETATM    2  C2  UNL     1      23.043  41.078  18.023  1.00  0.00     0.106 C 
HETATM    3  C1  UNL     1      21.599  40.772  18.362  1.00  0.00     0.084 C 
BRANCH   2   4
HETATM    4  C7  UNL     1      23.861  39.830  17.737  1.00  0.00     0.153 A 
HETATM    5  C8  UNL     1      24.656  39.931  16.490  1.00  0.00     0.110 A 
HETATM    6  C9  UNL     1      24.339  38.883  15.515  1.00  0.00     0.106 A 
HETATM    7  N10 UNL     1      23.470  37.988  15.740  1.00  0.00    -0.319 N 
HETATM    8  C10 UNL     1      22.698  37.864  16.921  1.00  0.00     0.190 A 
ATOM      9  H10 UNL     1      23.312  37.297  15.007  1.00  0.00     0.169 HD
HETATM   10  N11 UNL     1      21.746  36.828  17.090  1.00  0.00    -0.063 NA
HETATM   11  N12 UNL     1      22.922  38.749  17.819  1.00  0.00    -0.353 N 
ATOM     12  H12 UNL     1      22.379  38.678  18.680  1.00  0.00     0.163 HD
BRANCH   6  13
HETATM   13  N8  UNL     1      25.054  38.882  14.244  1.00  0.00    -0.229 N 
ATOM     14  H8  UNL     1      25.744  39.604  14.035  1.00  0.00     0.194 HD
BRANCH  13  15
HETATM   15  N9  UNL     1      24.780  37.889  13.333  1.00  0.00    -0.038 N 
HETATM   16  O3  UNL     1      24.040  38.134  12.362  1.00  0.00    -0.516 OA
HETATM   17  O4  UNL     1      25.290  36.622  13.443  1.00  0.00    -0.516 OA
ENDBRANCH  13  15
ENDBRANCH   6  13
ENDBRANCH   2   4
ENDBRANCH   1   2
BRANCH   1  18
HETATM   18  N2  UNL     1      23.960  43.350  18.110  1.00  0.00    -0.065 N 
ATOM     19  H2  UNL     1      23.396  44.140  17.798  1.00  0.00     0.221 HD
BRANCH  18  20
HETATM   20  C3  UNL     1      25.127  43.602  18.595  1.00  0.00     0.710 A 
HETATM   21  N3  UNL     1      26.177  43.559  17.768  1.00  0.00    -0.174 N 
HETATM   22  C4  UNL     1      27.409  43.826  18.288  1.00  0.00     0.168 A 
ATOM     23  H3  UNL     1      26.060  43.334  16.780  1.00  0.00     0.185 HD
HETATM   24  N4  UNL     1      28.570  43.805  17.487  1.00  0.00    -0.079 NA
HETATM   25  C5  UNL     1      27.512  44.120  19.614  1.00  0.00     0.188 A 
HETATM   26  C6  UNL     1      26.429  44.158  20.445  1.00  0.00     0.151 A 
HETATM   27  N7  UNL     1      25.226  43.890  19.899  1.00  0.00    -0.172 N 
ATOM     28  H7  UNL     1      24.388  43.908  20.480  1.00  0.00     0.186 HD
BRANCH  25  29
HETATM   29  N5  UNL     1      28.786  44.399  20.175  1.00  0.00    -0.108 N 
HETATM   30  O1  UNL     1      29.227  45.544  20.211  1.00  0.00    -0.532 OA
HETATM   31  O2  UNL     1      29.529  43.369  20.681  1.00  0.00    -0.532 OA
ENDBRANCH  25  29
BRANCH  26  32
HETATM   32  N6  UNL     1      26.519  44.435  21.700  1.00  0.00    -0.383 N 
ATOM     33  H62 UNL     1      27.280  45.023  22.040  1.00  0.00     0.157 HD
ATOM     34  H61 UNL     1      25.854  44.091  22.393  1.00  0.00     0.157 HD
ENDBRANCH  26  32
ENDBRANCH  18  20
ENDBRANCH   1  18
TORSDOF 8
ENDMDL
MODEL 3
REMARK VINA RESULT: -7.912040174      2.075      3.104
REMARK  8 active torsions:
REMARK  status: ('A' for Active; 'I' for Inactive)
REMARK    1  A    between atoms: C2_2  and  N1_3 
REMARK    2  A    between atoms: C2_2  and  C7_21 
REMARK    3  A    between atoms: N1_3  and  N2_4 
REMARK    4  A    between atoms: N2_4  and  C3_6 
REMARK    5  A    between atoms: C5_11  and  N5_12 
REMARK    6  A    between atoms: C6_15  and  N6_16 
REMARK    7  A    between atoms: C9_23  and  N8_24 
REMARK    8  A    between atoms: N8_24  and  N9_26 
ROOT
HETATM    1  N1  UNL     1      23.377  42.341  18.052  1.00  0.00    -0.318 NA
ENDROOT
BRANCH   1   2
HETATM    2  C2  UNL     1      23.023  41.224  18.082  1.00  0.00     0.106 C 
HETATM    3  C1  UNL     1      21.596  40.840  18.417  1.00  0.00     0.084 C 
BRANCH   2   4
HETATM    4  C7  UNL     1      23.908  40.022  17.798  1.00  0.00     0.153 A 
HETATM    5  C8  UNL     1      24.687  40.160  16.545  1.00  0.00     0.110 A 
HETATM    6  C9  UNL     1      24.423  39.088  15.580  1.00  0.00     0.106 A 
HETATM    7  N10 UNL     1      23.608  38.147  15.817  1.00  0.00    -0.319 N 
HETATM    8  C10 UNL     1      22.852  37.988  17.005  1.00  0.00     0.190 A 
ATOM      9  H10 UNL     1      23.485  37.443  15.090  1.00  0.00     0.169 HD
HETATM   10  N11 UNL     1      21.963  36.901  17.188  1.00  0.00    -0.063 NA
HETATM   11  N12 UNL     1      23.032  38.890  17.895  1.00  0.00    -0.353 N 
ATOM     12  H12 UNL     1      22.500  38.795  18.760  1.00  0.00     0.163 HD
BRANCH   6  13
HETATM   13  N8  UNL     1      25.128  39.119  14.304  1.00  0.00    -0.229 N 
ATOM     14  H8  UNL     1      25.824  39.839  14.111  1.00  0.00     0.194 HD
BRANCH  13  15
HETATM   15  N9  UNL     1      24.837  38.157  13.365  1.00  0.00    -0.038 N 
HETATM   16  O3  UNL     1      24.339  38.494  12.275  1.00  0.00    -0.516 OA
HETATM   17  O4  UNL     1      25.071  36.824  13.574  1.00  0.00    -0.516 OA
ENDBRANCH  13  15
ENDBRANCH   6  13
ENDBRANCH   2   4
ENDBRANCH   1   2
BRANCH   1  18
HETATM   18  N2  UNL     1      23.608  43.603  18.008  1.00  0.00    -0.065 N 
ATOM     19  H2  UNL     1      22.873  44.207  17.639  1.00  0.00     0.221 HD
BRANCH  18  20
HETATM   20  C3  UNL     1      24.702  44.161  18.395  1.00  0.00     0.710 A 
HETATM   21  N3  UNL     1      25.249  43.749  19.544  1.00  0.00    -0.174 N 
HETATM   22  C4  UNL     1      26.406  44.345  19.949  1.00  0.00     0.168 A 
ATOM     23  H3  UNL     1      24.813  43.013  20.099  1.00  0.00     0.185 HD
HETATM   24  N4  UNL     1      27.051  43.971  21.146  1.00  0.00    -0.079 NA
HETATM   25  C5  UNL     1      26.947  45.325  19.172  1.00  0.00     0.188 A 
HETATM   26  C6  UNL     1      26.375  45.735  18.002  1.00  0.00     0.151 A 
HETATM   27  N7  UNL     1      25.232  45.124  17.630  1.00  0.00    -0.172 N 
ATOM     28  H7  UNL     1      24.769  45.396  16.763  1.00  0.00     0.186 HD
BRANCH  25  29
HETATM   29  N5  UNL     1      28.151  45.958  19.578  1.00  0.00    -0.108 N 
HETATM   30  O1  UNL     1      29.247  45.507  19.255  1.00  0.00    -0.532 OA
HETATM   31  O2  UNL     1      28.081  47.091  20.340  1.00  0.00    -0.532 OA
ENDBRANCH  25  29
BRANCH  26  32
HETATM   32  N6  UNL     1      26.881  46.661  17.262  1.00  0.00    -0.383 N 
ATOM     33  H62 UNL     1      27.798  47.047  17.484  1.00  0.00     0.157 HD
ATOM     34  H61 UNL     1      26.403  47.039  16.444  1.00  0.00     0.157 HD
ENDBRANCH  26  32
ENDBRANCH  18  20
ENDBRANCH   1  18
TORSDOF 8
ENDMDL
MODEL 4
REMARK VINA RESULT: -7.868942481      2.011      3.179
REMARK  8 active torsions:
REMARK  status: ('A' for Active; 'I' for Inactive)
REMARK    1  A    between atoms: C2_2  and  N1_3 
REMARK    2  A    between atoms: C2_2  and  C7_21 
REMARK    3  A    between atoms: N1_3  and  N2_4 
REMARK    4  A    between atoms: N2_4  and  C3_6 
REMARK    5  A    between atoms: C5_11  and  N5_12 
REMARK    6  A    between atoms: C6_15  and  N6_16 
REMARK    7  A    between atoms: C9_23  and  N8_24 
REMARK    8  A    between atoms: N8_24  and  N9_26 
ROOT
HETATM    1  N1  UNL     1      23.545  42.886  18.037  1.00  0.00    -0.318 NA
ENDROOT
BRANCH   1   2
HETATM    2  C2  UNL     1      23.421  41.721  17.992  1.00  0.00     0.106 C 
HETATM    3  C1  UNL     1      22.101  41.041  18.291  1.00  0.00     0.084 C 
BRANCH   2   4
HETATM    4  C7  UNL     1      24.526  40.740  17.640  1.00  0.00     0.153 A 
HETATM    5  C8  UNL     1      25.451  41.257  16.604  1.00  0.00     0.110 A 
HETATM    6  C9  UNL     1      25.517  40.408  15.411  1.00  0.00     0.106 A 
HETATM    7  N10 UNL     1      24.843  39.339  15.301  1.00  0.00    -0.319 N 
HETATM    8  C10 UNL     1      23.955  38.819  16.274  1.00  0.00     0.190 A 
ATOM      9  H10 UNL     1      24.950  38.808  14.437  1.00  0.00     0.169 HD
HETATM   10  N11 UNL     1      23.241  37.613  16.068  1.00  0.00    -0.063 NA
HETATM   11  N12 UNL     1      23.846  39.512  17.345  1.00  0.00    -0.353 N 
ATOM     12  H12 UNL     1      23.213  39.155  18.061  1.00  0.00     0.163 HD
BRANCH   6  13
HETATM   13  N8  UNL     1      26.391  40.817  14.318  1.00  0.00    -0.229 N 
ATOM     14  H8  UNL     1      27.354  41.101  14.501  1.00  0.00     0.194 HD
BRANCH  13  15
HETATM   15  N9  UNL     1      25.893  40.813  13.037  1.00  0.00    -0.038 N 
HETATM   16  O3  UNL     1      26.153  41.762  12.274  1.00  0.00    -0.516 OA
HETATM   17  O4  UNL     1      25.110  39.800  12.550  1.00  0.00    -0.516 OA
ENDBRANCH  13  15
ENDBRANCH   6  13
ENDBRANCH   2   4
ENDBRANCH   1   2
BRANCH   1  18
HETATM   18  N2  UNL     1      23.784  44.136  18.208  1.00  0.00    -0.065 N 
ATOM     19  H2  UNL     1      23.033  44.795  18.001  1.00  0.00     0.221 HD
BRANCH  18  20
HETATM   20  C3  UNL     1      24.905  44.617  18.624  1.00  0.00     0.710 A 
HETATM   21  N3  UNL     1      25.559  45.469  17.828  1.00  0.00    -0.174 N 
HETATM   22  C4  UNL     1      26.745  45.975  18.273  1.00  0.00     0.168 A 
ATOM     23  H3  UNL     1      25.183  45.733  16.917  1.00  0.00     0.185 HD
HETATM   24  N4  UNL     1      27.500  46.880  17.499  1.00  0.00    -0.079 NA
HETATM   25  C5  UNL     1      27.205  45.589  19.496  1.00  0.00     0.188 A 
HETATM   26  C6  UNL     1      26.524  44.717  20.296  1.00  0.00     0.151 A 
HETATM   27  N7  UNL     1      25.354  44.237  19.826  1.00  0.00    -0.172 N 
ATOM     28  H7  UNL     1      24.811  43.583  20.389  1.00  0.00     0.186 HD
BRANCH  25  29
HETATM   29  N5  UNL     1      28.438  46.103  19.976  1.00  0.00    -0.108 N 
HETATM   30  O1  UNL     1      28.486  47.156  20.605  1.00  0.00    -0.532 OA
HETATM   31  O2  UNL     1      29.588  45.405  19.731  1.00  0.00    -0.532 OA
ENDBRANCH  25  29
BRANCH  26  32
HETATM   32  N6  UNL     1      26.952  44.348  21.454  1.00  0.00    -0.383 N 
ATOM     33  H62 UNL     1      26.670  44.860  22.289  1.00  0.00     0.157 HD
ATOM     34  H61 UNL     1      27.575  43.551  21.586  1.00  0.00     0.157 HD
ENDBRANCH  26  32
ENDBRANCH  18  20
ENDBRANCH   1  18
TORSDOF 8
ENDMDL
MODEL 5
REMARK VINA RESULT: -7.859498249      1.551      1.813
REMARK  8 active torsions:
REMARK  status: ('A' for Active; 'I' for Inactive)
REMARK    1  A    between atoms: C2_2  and  N1_3 
REMARK    2  A    between atoms: C2_2  and  C7_21 
REMARK    3  A    between atoms: N1_3  and  N2_4 
REMARK    4  A    between atoms: N2_4  and  C3_6 
REMARK    5  A    between atoms: C5_11  and  N5_12 
REMARK    6  A    between atoms: C6_15  and  N6_16 
REMARK    7  A    between atoms: C9_23  and  N8_24 
REMARK    8  A    between atoms: N8_24  and  N9_26 
ROOT
HETATM    1  N1  UNL     1      24.839  42.377  19.710  1.00  0.00    -0.318 NA
ENDROOT
BRANCH   1   2
HETATM    2  C2  UNL     1      24.243  41.585  19.085  1.00  0.00     0.106 C 
HETATM    3  C1  UNL     1      23.492  40.443  19.738  1.00  0.00     0.084 C 
BRANCH   2   4
HETATM    4  C7  UNL     1      24.130  41.576  17.569  1.00  0.00     0.153 A 
HETATM    5  C8  UNL     1      23.776  40.246  17.022  1.00  0.00     0.110 A 
HETATM    6  C9  UNL     1      24.767  39.727  16.075  1.00  0.00     0.106 A 
HETATM    7  N10 UNL     1      25.814  40.371  15.768  1.00  0.00    -0.319 N 
HETATM    8  C10 UNL     1      26.179  41.644  16.272  1.00  0.00     0.190 A 
ATOM      9  H10 UNL     1      26.450  39.936  15.100  1.00  0.00     0.169 HD
HETATM   10  N11 UNL     1      27.371  42.296  15.871  1.00  0.00    -0.063 NA
HETATM   11  N12 UNL     1      25.356  42.160  17.107  1.00  0.00    -0.353 N 
ATOM     12  H12 UNL     1      25.598  43.077  17.482  1.00  0.00     0.163 HD
BRANCH   6  13
HETATM   13  N8  UNL     1      24.529  38.420  15.473  1.00  0.00    -0.229 N 
ATOM     14  H8  UNL     1      24.184  37.643  16.036  1.00  0.00     0.194 HD
BRANCH  13  15
HETATM   15  N9  UNL     1      24.780  38.256  14.131  1.00  0.00    -0.038 N 
HETATM   16  O3  UNL     1      24.913  37.108  13.667  1.00  0.00    -0.516 OA
HETATM   17  O4  UNL     1      24.894  39.311  13.264  1.00  0.00    -0.516 OA
ENDBRANCH  13  15
ENDBRANCH   6  13
ENDBRANCH   2   4
ENDBRANCH   1   2
BRANCH   1  18
HETATM   18  N2  UNL     1      25.422  43.179  20.524  1.00  0.00    -0.065 N 
ATOM     19  H2  UNL     1      25.259  43.043  21.522  1.00  0.00     0.221 HD
BRANCH  18  20
HETATM   20  C3  UNL     1      26.199  44.145  20.171  1.00  0.00     0.710 A 
HETATM   21  N3  UNL     1      27.220  44.459  20.975  1.00  0.00    -0.174 N 
HETATM   22  C4  UNL     1      28.038  45.482  20.596  1.00  0.00     0.168 A 
ATOM     23  H3  UNL     1      27.382  43.950  21.843  1.00  0.00     0.185 HD
HETATM   24  N4  UNL     1      29.140  45.879  21.383  1.00  0.00    -0.079 NA
HETATM   25  C5  UNL     1      27.778  46.132  19.427  1.00  0.00     0.188 A 
HETATM   26  C6  UNL     1      26.729  45.799  18.618  1.00  0.00     0.151 A 
HETATM   27  N7  UNL     1      25.941  44.782  19.022  1.00  0.00    -0.172 N 
ATOM     28  H7  UNL     1      25.147  44.497  18.450  1.00  0.00     0.186 HD
BRANCH  25  29
HETATM   29  N5  UNL     1      28.617  47.201  19.016  1.00  0.00    -0.108 N 
HETATM   30  O1  UNL     1      29.606  47.000  18.317  1.00  0.00    -0.532 OA
HETATM   31  O2  UNL     1      28.310  48.474  19.409  1.00  0.00    -0.532 OA
ENDBRANCH  25  29
BRANCH  26  32
HETATM   32  N6  UNL     1      26.477  46.409  17.512  1.00  0.00    -0.383 N 
ATOM     33  H62 UNL     1      25.680  47.042  17.449  1.00  0.00     0.157 HD
ATOM     34  H61 UNL     1      27.045  46.292  16.673  1.00  0.00     0.157 HD
ENDBRANCH  26  32
ENDBRANCH  18  20
ENDBRANCH   1  18
TORSDOF 8
ENDMDL
