MODEL 1
REMARK VINA RESULT: -8.118126001      0.000      0.000
REMARK  7 active torsions:
REMARK  status: ('A' for Active; 'I' for Inactive)
REMARK    1  A    between atoms: C2_5  and  O2_6 
REMARK    2  A    between atoms: C3_8  and  C4_9 
REMARK    3  A    between atoms: N2_10  and  N3_12 
REMARK    4  A    between atoms: C6_17  and  C7_18 
REMARK    5  A    between atoms: C8_27  and  N9_28 
REMARK    6  A    between atoms: N9_28  and  O3_29 
REMARK    7  A    between atoms: N9_28  and  O4_31 
ROOT
HETATM    1  N3  UNL     1      32.399  46.919  20.435  1.00  0.00    -0.280 N 
ATOM      2  H3  UNL     1      33.375  46.714  20.651  1.00  0.00     0.189 HD
HETATM    3  C5  UNL     1      31.470  46.100  20.870  1.00  0.00     0.165 A 
HETATM    4  N4  UNL     1      30.157  46.173  20.707  1.00  0.00    -0.330 N 
ATOM      5  H4  UNL     1      29.741  46.943  20.183  1.00  0.00     0.168 HD
HETATM    6  C6  UNL     1      29.397  45.235  21.232  1.00  0.00     0.115 A 
HETATM    7  C8  UNL     1      30.031  44.234  21.921  1.00  0.00     0.140 A 
HETATM    8  S1  UNL     1      31.668  44.680  21.784  1.00  0.00    -0.034 SA
ENDROOT
BRANCH   1   9
HETATM    9  N2  UNL     1      32.107  48.041  19.701  1.00  0.00    -0.307 N 
HETATM   10  C4  UNL     1      32.830  49.116  19.762  1.00  0.00     0.149 C 
ATOM     11  H2  UNL     1      31.293  48.029  19.085  1.00  0.00     0.186 HD
BRANCH  10  12
HETATM   12  C3  UNL     1      33.998  49.167  20.628  1.00  0.00     0.148 A 
HETATM   13  C2  UNL     1      35.304  49.233  20.207  1.00  0.00     0.180 A 
HETATM   14  N1  UNL     1      36.109  49.265  21.308  1.00  0.00    -0.280 N 
HETATM   15  C1  UNL     1      35.268  49.218  22.360  1.00  0.00     0.372 A 
ATOM     16  H1  UNL     1      37.128  49.314  21.329  1.00  0.00     0.173 HD
HETATM   17  O1  UNL     1      35.631  49.228  23.548  1.00  0.00    -0.238 OA
HETATM   18  O5  UNL     1      34.020  49.160  21.922  1.00  0.00    -0.255 OA
BRANCH  13  19
HETATM   19  O2  UNL     1      35.800  49.265  18.912  1.00  0.00    -0.344 OA
ATOM     20  H2  UNL     1      35.239  49.328  18.148  1.00  0.00     0.219 HD
ENDBRANCH  13  19
ENDBRANCH  10  12
ENDBRANCH   1   9
BRANCH   6  21
HETATM   21  C7  UNL     1      27.911  45.224  21.108  1.00  0.00     0.167 A 
HETATM   22  N5  UNL     1      27.163  46.128  20.475  1.00  0.00    -0.267 N 
HETATM   23  N6  UNL     1      25.900  45.769  20.590  1.00  0.00    -0.227 N 
ATOM     24  H5  UNL     1      27.508  46.955  19.987  1.00  0.00     0.190 HD
HETATM   25  N7  UNL     1      25.856  44.660  21.280  1.00  0.00    -0.227 N 
ATOM     26  H6  UNL     1      25.098  46.268  20.206  1.00  0.00     0.210 HD
HETATM   27  N8  UNL     1      27.071  44.316  21.603  1.00  0.00    -0.267 N 
ATOM     28  H7  UNL     1      25.009  44.148  21.526  1.00  0.00     0.210 HD
ATOM     29  H8  UNL     1      27.335  43.491  22.144  1.00  0.00     0.190 HD
ENDBRANCH   6  21
BRANCH   7  30
HETATM   30  N9  UNL     1      29.497  43.083  22.601  1.00  0.00    -0.027 NA
BRANCH  30  31
HETATM   31  O3  UNL     1      29.472  42.071  21.672  1.00  0.00    -0.284 OA
ATOM     32  H3  UNL     1      30.375  41.928  21.416  1.00  0.00     0.240 HD
ENDBRANCH  30  31
BRANCH  30  33
HETATM   33  O4  UNL     1      30.335  42.677  23.570  1.00  0.00    -0.284 OA
ATOM     34  H4  UNL     1      29.886  42.104  24.180  1.00  0.00     0.240 HD
ENDBRANCH  30  33
ENDBRANCH   7  30
TORSDOF 7
ENDMDL
MODEL 2
REMARK VINA RESULT: -8.054744694      7.664     10.292
REMARK  7 active torsions:
REMARK  status: ('A' for Active; 'I' for Inactive)
REMARK    1  A    between atoms: C2_5  and  O2_6 
REMARK    2  A    between atoms: C3_8  and  C4_9 
REMARK    3  A    between atoms: N2_10  and  N3_12 
REMARK    4  A    between atoms: C6_17  and  C7_18 
REMARK    5  A    between atoms: C8_27  and  N9_28 
REMARK    6  A    between atoms: N9_28  and  O3_29 
REMARK    7  A    between atoms: N9_28  and  O4_31 
ROOT
HETATM    1  N3  UNL     1      24.748  42.248  17.685  1.00  0.00    -0.280 N 
ATOM      2  H3  UNL     1      24.300  42.703  18.480  1.00  0.00     0.189 HD
HETATM    3  C5  UNL     1      24.322  41.063  17.312  1.00  0.00     0.165 A 
HETATM    4  N4  UNL     1      24.755  40.300  16.319  1.00  0.00    -0.330 N 
ATOM      5  H4  UNL     1      25.521  40.612  15.722  1.00  0.00     0.168 HD
HETATM    6  C6  UNL     1      24.182  39.134  16.117  1.00  0.00     0.115 A 
HETATM    7  C8  UNL     1      23.160  38.786  16.962  1.00  0.00     0.140 A 
HETATM    8  S1  UNL     1      23.072  40.136  17.996  1.00  0.00    -0.034 SA
ENDROOT
BRANCH   1   9
HETATM    9  N2  UNL     1      25.774  42.897  17.045  1.00  0.00    -0.307 N 
HETATM   10  C4  UNL     1      26.390  43.910  17.573  1.00  0.00     0.149 C 
ATOM     11  H2  UNL     1      26.063  42.572  16.122  1.00  0.00     0.186 HD
BRANCH  10  12
HETATM   12  C3  UNL     1      26.004  44.398  18.888  1.00  0.00     0.148 A 
HETATM   13  C2  UNL     1      26.445  43.897  20.088  1.00  0.00     0.180 A 
HETATM   14  N1  UNL     1      25.864  44.614  21.093  1.00  0.00    -0.280 N 
HETATM   15  C1  UNL     1      25.091  45.526  20.471  1.00  0.00     0.372 A 
ATOM     16  H1  UNL     1      25.988  44.486  22.097  1.00  0.00     0.173 HD
HETATM   17  O1  UNL     1      24.395  46.372  21.058  1.00  0.00    -0.238 OA
HETATM   18  O5  UNL     1      25.197  45.372  19.160  1.00  0.00    -0.255 OA
BRANCH  13  19
HETATM   19  O2  UNL     1      27.323  42.849  20.323  1.00  0.00    -0.344 OA
ATOM     20  H2  UNL     1      27.598  42.246  19.643  1.00  0.00     0.219 HD
ENDBRANCH  13  19
ENDBRANCH  10  12
ENDBRANCH   1   9
BRANCH   6  21
HETATM   21  C7  UNL     1      24.592  38.200  15.028  1.00  0.00     0.167 A 
HETATM   22  N5  UNL     1      23.917  37.947  13.906  1.00  0.00    -0.267 N 
HETATM   23  N6  UNL     1      24.605  37.071  13.203  1.00  0.00    -0.227 N 
ATOM     24  H5  UNL     1      23.024  38.361  13.639  1.00  0.00     0.190 HD
HETATM   25  N7  UNL     1      25.691  36.780  13.868  1.00  0.00    -0.227 N 
ATOM     26  H6  UNL     1      24.338  36.687  12.296  1.00  0.00     0.210 HD
HETATM   27  N8  UNL     1      25.698  37.458  14.982  1.00  0.00    -0.267 N 
ATOM     28  H7  UNL     1      26.415  36.128  13.566  1.00  0.00     0.210 HD
ATOM     29  H8  UNL     1      26.426  37.427  15.696  1.00  0.00     0.190 HD
ENDBRANCH   6  21
BRANCH   7  30
HETATM   30  N9  UNL     1      22.342  37.602  17.007  1.00  0.00    -0.027 NA
BRANCH  30  31
HETATM   31  O3  UNL     1      21.278  37.845  16.172  1.00  0.00    -0.284 OA
ATOM     32  H3  UNL     1      21.645  37.951  15.303  1.00  0.00     0.240 HD
ENDBRANCH  30  31
BRANCH  30  33
HETATM   33  O4  UNL     1      22.998  36.556  16.478  1.00  0.00    -0.284 OA
ATOM     34  H4  UNL     1      23.023  35.833  17.092  1.00  0.00     0.240 HD
ENDBRANCH  30  33
ENDBRANCH   7  30
TORSDOF 7
ENDMDL
MODEL 3
REMARK VINA RESULT: -8.032394394      7.550     10.270
REMARK  7 active torsions:
REMARK  status: ('A' for Active; 'I' for Inactive)
REMARK    1  A    between atoms: C2_5  and  O2_6 
REMARK    2  A    between atoms: C3_8  and  C4_9 
REMARK    3  A    between atoms: N2_10  and  N3_12 
REMARK    4  A    between atoms: C6_17  and  C7_18 
REMARK    5  A    between atoms: C8_27  and  N9_28 
REMARK    6  A    between atoms: N9_28  and  O3_29 
REMARK    7  A    between atoms: N9_28  and  O4_31 
ROOT
HETATM    1  N3  UNL     1      24.854  41.848  17.583  1.00  0.00    -0.280 N 
ATOM      2  H3  UNL     1      25.535  42.524  17.238  1.00  0.00     0.189 HD
HETATM    3  C5  UNL     1      24.648  40.750  16.893  1.00  0.00     0.165 A 
HETATM    4  N4  UNL     1      23.820  39.749  17.152  1.00  0.00    -0.330 N 
ATOM      5  H4  UNL     1      23.231  39.766  17.985  1.00  0.00     0.168 HD
HETATM    6  C6  UNL     1      23.769  38.732  16.319  1.00  0.00     0.115 A 
HETATM    7  C8  UNL     1      24.591  38.783  15.223  1.00  0.00     0.140 A 
HETATM    8  S1  UNL     1      25.388  40.272  15.438  1.00  0.00    -0.034 SA
ENDROOT
BRANCH   1   9
HETATM    9  N2  UNL     1      24.187  42.119  18.751  1.00  0.00    -0.307 N 
HETATM   10  C4  UNL     1      24.708  42.841  19.695  1.00  0.00     0.149 C 
ATOM     11  H2  UNL     1      23.249  41.740  18.882  1.00  0.00     0.186 HD
BRANCH  10  12
HETATM   12  C3  UNL     1      26.043  43.398  19.540  1.00  0.00     0.148 A 
HETATM   13  C2  UNL     1      26.714  44.141  20.480  1.00  0.00     0.180 A 
HETATM   14  N1  UNL     1      27.933  44.481  19.969  1.00  0.00    -0.280 N 
HETATM   15  C1  UNL     1      27.962  43.934  18.738  1.00  0.00     0.372 A 
ATOM     16  H1  UNL     1      28.663  45.031  20.422  1.00  0.00     0.173 HD
HETATM   17  O1  UNL     1      28.922  44.027  17.953  1.00  0.00    -0.238 OA
HETATM   18  O5  UNL     1      26.824  43.297  18.513  1.00  0.00    -0.255 OA
BRANCH  13  19
HETATM   19  O2  UNL     1      26.297  44.523  21.746  1.00  0.00    -0.344 OA
ATOM     20  H2  UNL     1      25.902  43.917  22.362  1.00  0.00     0.219 HD
ENDBRANCH  13  19
ENDBRANCH  10  12
ENDBRANCH   1   9
BRANCH   6  21
HETATM   21  C7  UNL     1      22.873  37.556  16.519  1.00  0.00     0.167 A 
HETATM   22  N5  UNL     1      23.235  36.273  16.497  1.00  0.00    -0.267 N 
HETATM   23  N6  UNL     1      22.161  35.541  16.714  1.00  0.00    -0.227 N 
ATOM     24  H5  UNL     1      24.178  35.920  16.339  1.00  0.00     0.190 HD
HETATM   25  N7  UNL     1      21.146  36.348  16.872  1.00  0.00    -0.227 N 
ATOM     26  H6  UNL     1      22.128  34.522  16.753  1.00  0.00     0.210 HD
HETATM   27  N8  UNL     1      21.562  37.578  16.755  1.00  0.00    -0.267 N 
ATOM     28  H7  UNL     1      20.183  36.062  17.055  1.00  0.00     0.210 HD
ATOM     29  H8  UNL     1      20.983  38.414  16.832  1.00  0.00     0.190 HD
ENDBRANCH   6  21
BRANCH   7  30
HETATM   30  N9  UNL     1      24.771  37.849  14.143  1.00  0.00    -0.027 NA
BRANCH  30  31
HETATM   31  O3  UNL     1      25.310  38.569  13.104  1.00  0.00    -0.284 OA
ATOM     32  H3  UNL     1      26.236  38.361  13.095  1.00  0.00     0.240 HD
ENDBRANCH  30  31
BRANCH  30  33
HETATM   33  O4  UNL     1      25.687  36.922  14.468  1.00  0.00    -0.284 OA
ATOM     34  H4  UNL     1      25.497  36.550  15.321  1.00  0.00     0.240 HD
ENDBRANCH  30  33
ENDBRANCH   7  30
TORSDOF 7
ENDMDL
MODEL 4
REMARK VINA RESULT: -7.965638130      6.471      8.617
REMARK  7 active torsions:
REMARK  status: ('A' for Active; 'I' for Inactive)
REMARK    1  A    between atoms: C2_5  and  O2_6 
REMARK    2  A    between atoms: C3_8  and  C4_9 
REMARK    3  A    between atoms: N2_10  and  N3_12 
REMARK    4  A    between atoms: C6_17  and  C7_18 
REMARK    5  A    between atoms: C8_27  and  N9_28 
REMARK    6  A    between atoms: N9_28  and  O3_29 
REMARK    7  A    between atoms: N9_28  and  O4_31 
ROOT
HETATM    1  N3  UNL     1      26.272  43.254  17.933  1.00  0.00    -0.280 N 
ATOM      2  H3  UNL     1      26.003  43.943  18.636  1.00  0.00     0.189 HD
HETATM    3  C5  UNL     1      25.437  42.282  17.649  1.00  0.00     0.165 A 
HETATM    4  N4  UNL     1      25.580  41.292  16.780  1.00  0.00    -0.330 N 
ATOM      5  H4  UNL     1      26.430  41.211  16.222  1.00  0.00     0.168 HD
HETATM    6  C6  UNL     1      24.609  40.414  16.650  1.00  0.00     0.115 A 
HETATM    7  C8  UNL     1      23.499  40.591  17.436  1.00  0.00     0.140 A 
HETATM    8  S1  UNL     1      23.899  41.993  18.315  1.00  0.00    -0.034 SA
ENDROOT
BRANCH   1   9
HETATM    9  N2  UNL     1      27.493  43.378  17.320  1.00  0.00    -0.307 N 
HETATM   10  C4  UNL     1      28.519  43.902  17.919  1.00  0.00     0.149 C 
ATOM     11  H2  UNL     1      27.599  43.048  16.360  1.00  0.00     0.186 HD
BRANCH  10  12
HETATM   12  C3  UNL     1      28.404  44.381  19.287  1.00  0.00     0.148 A 
HETATM   13  C2  UNL     1      27.621  45.430  19.704  1.00  0.00     0.180 A 
HETATM   14  N1  UNL     1      27.778  45.575  21.051  1.00  0.00    -0.280 N 
HETATM   15  C1  UNL     1      28.649  44.610  21.409  1.00  0.00     0.372 A 
ATOM     16  H1  UNL     1      27.332  46.265  21.657  1.00  0.00     0.173 HD
HETATM   17  O1  UNL     1      29.044  44.420  22.571  1.00  0.00    -0.238 OA
HETATM   18  O5  UNL     1      29.001  43.918  20.337  1.00  0.00    -0.255 OA
BRANCH  13  19
HETATM   19  O2  UNL     1      26.791  46.249  18.951  1.00  0.00    -0.344 OA
ATOM     20  H2  UNL     1      26.021  46.672  19.313  1.00  0.00     0.219 HD
ENDBRANCH  13  19
ENDBRANCH  10  12
ENDBRANCH   1   9
BRANCH   6  21
HETATM   21  C7  UNL     1      24.670  39.264  15.702  1.00  0.00     0.167 A 
HETATM   22  N5  UNL     1      25.431  39.177  14.611  1.00  0.00    -0.267 N 
HETATM   23  N6  UNL     1      25.201  38.011  14.042  1.00  0.00    -0.227 N 
ATOM     24  H5  UNL     1      26.079  39.889  14.275  1.00  0.00     0.190 HD
HETATM   25  N7  UNL     1      24.313  37.377  14.762  1.00  0.00    -0.227 N 
ATOM     26  H6  UNL     1      25.639  37.663  13.189  1.00  0.00     0.210 HD
HETATM   27  N8  UNL     1      23.980  38.126  15.775  1.00  0.00    -0.267 N 
ATOM     28  H7  UNL     1      23.942  36.448  14.563  1.00  0.00     0.210 HD
ATOM     29  H8  UNL     1      23.305  37.883  16.501  1.00  0.00     0.190 HD
ENDBRANCH   6  21
BRANCH   7  30
HETATM   30  N9  UNL     1      22.287  39.821  17.531  1.00  0.00    -0.027 NA
BRANCH  30  31
HETATM   31  O3  UNL     1      22.589  38.733  18.313  1.00  0.00    -0.284 OA
ATOM     32  H3  UNL     1      22.033  38.027  18.006  1.00  0.00     0.240 HD
ENDBRANCH  30  31
BRANCH  30  33
HETATM   33  O4  UNL     1      21.344  40.507  18.197  1.00  0.00    -0.284 OA
ATOM     34  H4  UNL     1      21.071  41.268  17.699  1.00  0.00     0.240 HD
ENDBRANCH  30  33
ENDBRANCH   7  30
TORSDOF 7
ENDMDL
MODEL 5
REMARK VINA RESULT: -7.861593836      7.551     10.090
REMARK  7 active torsions:
REMARK  status: ('A' for Active; 'I' for Inactive)
REMARK    1  A    between atoms: C2_5  and  O2_6 
REMARK    2  A    between atoms: C3_8  and  C4_9 
REMARK    3  A    between atoms: N2_10  and  N3_12 
REMARK    4  A    between atoms: C6_17  and  C7_18 
REMARK    5  A    between atoms: C8_27  and  N9_28 
REMARK    6  A    between atoms: N9_28  and  O3_29 
REMARK    7  A    between atoms: N9_28  and  O4_31 
ROOT
HETATM    1  N3  UNL     1      25.225  42.205  17.539  1.00  0.00    -0.280 N 
ATOM      2  H3  UNL     1      24.849  42.633  18.385  1.00  0.00     0.189 HD
HETATM    3  C5  UNL     1      24.706  41.075  17.118  1.00  0.00     0.165 A 
HETATM    4  N4  UNL     1      25.036  40.353  16.057  1.00  0.00    -0.330 N 
ATOM      5  H4  UNL     1      25.787  40.657  15.437  1.00  0.00     0.168 HD
HETATM    6  C6  UNL     1      24.380  39.239  15.816  1.00  0.00     0.115 A 
HETATM    7  C8  UNL     1      23.384  38.899  16.695  1.00  0.00     0.140 A 
HETATM    8  S1  UNL     1      23.438  40.181  17.814  1.00  0.00    -0.034 SA
ENDROOT
BRANCH   1   9
HETATM    9  N2  UNL     1      26.254  42.832  16.882  1.00  0.00    -0.307 N 
HETATM   10  C4  UNL     1      27.060  43.654  17.482  1.00  0.00     0.149 C 
ATOM     11  H2  UNL     1      26.392  42.645  15.889  1.00  0.00     0.186 HD
BRANCH  10  12
HETATM   12  C3  UNL     1      26.894  43.941  18.898  1.00  0.00     0.148 A 
HETATM   13  C2  UNL     1      25.731  44.359  19.499  1.00  0.00     0.180 A 
HETATM   14  N1  UNL     1      25.970  44.522  20.832  1.00  0.00    -0.280 N 
HETATM   15  C1  UNL     1      27.268  44.198  20.998  1.00  0.00     0.372 A 
ATOM     16  H1  UNL     1      25.309  44.824  21.548  1.00  0.00     0.173 HD
HETATM   17  O1  UNL     1      27.863  44.223  22.089  1.00  0.00    -0.238 OA
HETATM   18  O5  UNL     1      27.789  43.858  19.829  1.00  0.00    -0.255 OA
BRANCH  13  19
HETATM   19  O2  UNL     1      24.492  44.597  18.923  1.00  0.00    -0.344 OA
ATOM     20  H2  UNL     1      23.706  44.742  19.436  1.00  0.00     0.219 HD
ENDBRANCH  13  19
ENDBRANCH  10  12
ENDBRANCH   1   9
BRANCH   6  21
HETATM   21  C7  UNL     1      24.672  38.356  14.649  1.00  0.00     0.167 A 
HETATM   22  N5  UNL     1      24.517  37.033  14.600  1.00  0.00    -0.267 N 
HETATM   23  N6  UNL     1      24.881  36.622  13.403  1.00  0.00    -0.227 N 
ATOM     24  H5  UNL     1      24.175  36.442  15.358  1.00  0.00     0.190 HD
HETATM   25  N7  UNL     1      25.257  37.666  12.713  1.00  0.00    -0.227 N 
ATOM     26  H6  UNL     1      24.872  35.657  13.071  1.00  0.00     0.210 HD
HETATM   27  N8  UNL     1      25.136  38.729  13.457  1.00  0.00    -0.267 N 
ATOM     28  H7  UNL     1      25.591  37.651  11.749  1.00  0.00     0.210 HD
ATOM     29  H8  UNL     1      25.359  39.684  13.175  1.00  0.00     0.190 HD
ENDBRANCH   6  21
BRANCH   7  30
HETATM   30  N9  UNL     1      22.497  37.766  16.712  1.00  0.00    -0.027 NA
BRANCH  30  31
HETATM   31  O3  UNL     1      22.275  37.479  18.038  1.00  0.00    -0.284 OA
ATOM     32  H3  UNL     1      21.795  36.660  18.051  1.00  0.00     0.240 HD
ENDBRANCH  30  31
BRANCH  30  33
HETATM   33  O4  UNL     1      21.301  38.095  16.198  1.00  0.00    -0.284 OA
ATOM     34  H4  UNL     1      21.229  39.037  16.099  1.00  0.00     0.240 HD
ENDBRANCH  30  33
ENDBRANCH   7  30
TORSDOF 7
ENDMDL
