MODEL 1
REMARK VINA RESULT: -6.541364120      0.000      0.000
REMARK  7 active torsions:
REMARK  status: ('A' for Active; 'I' for Inactive)
REMARK    1  A    between atoms: C1_4  and  C2_6 
REMARK    2  A    between atoms: C3_11  and  N5_12 
REMARK    3  A    between atoms: N7_20  and  C8_21 
REMARK    4  A    between atoms: C9_27  and  C10_28 
REMARK    5  A    between atoms: C10_28  and  N11_33 
REMARK    6  A    between atoms: N10_29  and  O1_31 
REMARK    7  A    between atoms: N11_33  and  N12_35 
ROOT
HETATM    1  C2  UNL     1      31.863  44.366  20.679  1.00  0.00     0.186 A 
HETATM    2  N3  UNL     1      31.398  43.170  20.225  1.00  0.00    -0.267 N 
ATOM      3  H3  UNL     1      30.434  42.846  20.304  1.00  0.00     0.189 HD
HETATM    4  N4  UNL     1      32.374  42.500  19.673  1.00  0.00    -0.130 N 
ATOM      5  H4  UNL     1      32.286  41.574  19.255  1.00  0.00     0.205 HD
HETATM    6  C3  UNL     1      33.543  43.233  19.738  1.00  0.00     0.705 A 
HETATM    7  N7  UNL     1      33.165  44.357  20.361  1.00  0.00    -0.108 N 
ENDROOT
BRANCH   7   8
HETATM    8  C8  UNL     1      34.045  45.472  20.682  1.00  0.00     0.169 A 
HETATM    9  N8  UNL     1      34.159  46.474  19.822  1.00  0.00    -0.295 N 
HETATM   10  S1  UNL     1      35.224  47.534  20.550  1.00  0.00     0.069 SA
ATOM     11  H8  UNL     1      33.699  46.575  18.918  1.00  0.00     0.177 HD
HETATM   12  N9  UNL     1      35.510  46.670  21.959  1.00  0.00    -0.306 N 
HETATM   13  C9  UNL     1      34.762  45.559  21.836  1.00  0.00     0.133 A 
ATOM     14  H9  UNL     1      36.116  46.930  22.736  1.00  0.00     0.176 HD
BRANCH  13  15
HETATM   15  C10 UNL     1      34.771  44.538  22.931  1.00  0.00     0.171 C 
HETATM   16  N10 UNL     1      35.759  43.757  23.067  1.00  0.00    -0.250 N 
ATOM     17  H10 UNL     1      36.541  43.840  22.417  1.00  0.00     0.196 HD
BRANCH  16  18
HETATM   18  O1  UNL     1      35.821  42.814  24.040  1.00  0.00    -0.288 OA
ATOM     19  H1  UNL     1      36.557  42.737  24.636  1.00  0.00     0.244 HD
ENDBRANCH  16  18
BRANCH  15  20
HETATM   20  N11 UNL     1      33.669  44.441  23.824  1.00  0.00    -0.289 N 
ATOM     21  H11 UNL     1      33.252  43.530  24.010  1.00  0.00     0.188 HD
BRANCH  20  22
HETATM   22  N12 UNL     1      33.149  45.575  24.450  1.00  0.00    -0.344 N 
ATOM     23 2H12 UNL     1      32.968  46.403  23.884  1.00  0.00     0.176 HD
ATOM     24 1H12 UNL     1      32.954  45.579  25.451  1.00  0.00     0.176 HD
ENDBRANCH  20  22
ENDBRANCH  15  20
ENDBRANCH  13  15
ENDBRANCH   7   8
BRANCH   1  25
HETATM   25  C1  UNL     1      31.042  45.357  21.338  1.00  0.00     0.157 C 
HETATM   26  N1  UNL     1      30.621  46.377  20.688  1.00  0.00    -0.385 N 
ATOM     27  H12 UNL     1      30.041  47.076  21.152  1.00  0.00     0.157 HD
ATOM     28  H11 UNL     1      30.868  46.474  19.703  1.00  0.00     0.157 HD
HETATM   29  N2  UNL     1      30.701  45.223  22.696  1.00  0.00    -0.079 NA
ENDBRANCH   1  25
BRANCH   6  30
HETATM   30  N5  UNL     1      34.786  42.801  19.227  1.00  0.00    -0.213 N 
HETATM   31  C4  UNL     1      35.758  41.959  19.850  1.00  0.00     0.168 C 
HETATM   32  C5  UNL     1      36.937  41.741  18.867  1.00  0.00     0.252 C 
HETATM   33  N6  UNL     1      36.465  41.243  17.616  1.00  0.00    -0.072 N 
HETATM   34  C6  UNL     1      35.515  42.130  16.972  1.00  0.00     0.252 C 
ATOM     35  H62 UNL     1      37.244  41.030  16.993  1.00  0.00     0.277 HD
ATOM     36  H61 UNL     1      36.074  40.306  17.722  1.00  0.00     0.277 HD
HETATM   37  C7  UNL     1      35.160  43.261  17.883  1.00  0.00     0.168 C 
ENDBRANCH   6  30
TORSDOF 7
ENDMDL
MODEL 2
REMARK VINA RESULT: -6.385117462      1.244      4.460
REMARK  7 active torsions:
REMARK  status: ('A' for Active; 'I' for Inactive)
REMARK    1  A    between atoms: C1_4  and  C2_6 
REMARK    2  A    between atoms: C3_11  and  N5_12 
REMARK    3  A    between atoms: N7_20  and  C8_21 
REMARK    4  A    between atoms: C9_27  and  C10_28 
REMARK    5  A    between atoms: C10_28  and  N11_33 
REMARK    6  A    between atoms: N10_29  and  O1_31 
REMARK    7  A    between atoms: N11_33  and  N12_35 
ROOT
HETATM    1  C2  UNL     1      34.474  42.922  19.891  1.00  0.00     0.186 A 
HETATM    2  N3  UNL     1      33.493  42.021  19.607  1.00  0.00    -0.267 N 
ATOM      3  H3  UNL     1      33.648  41.068  19.279  1.00  0.00     0.189 HD
HETATM    4  N4  UNL     1      32.324  42.564  19.819  1.00  0.00    -0.130 N 
ATOM      5  H4  UNL     1      31.428  42.098  19.680  1.00  0.00     0.205 HD
HETATM    6  C3  UNL     1      32.482  43.864  20.258  1.00  0.00     0.705 A 
HETATM    7  N7  UNL     1      33.812  44.020  20.281  1.00  0.00    -0.108 N 
ENDROOT
BRANCH   7   8
HETATM    8  C8  UNL     1      34.506  45.239  20.675  1.00  0.00     0.169 A 
HETATM    9  N8  UNL     1      34.646  46.217  19.793  1.00  0.00    -0.295 N 
HETATM   10  S1  UNL     1      35.463  47.416  20.621  1.00  0.00     0.069 SA
ATOM     11  H8  UNL     1      34.327  46.234  18.825  1.00  0.00     0.177 HD
HETATM   12  N9  UNL     1      35.614  46.638  22.099  1.00  0.00    -0.306 N 
HETATM   13  C9  UNL     1      35.018  45.445  21.920  1.00  0.00     0.133 A 
ATOM     14  H9  UNL     1      36.058  46.991  22.946  1.00  0.00     0.176 HD
BRANCH  13  15
HETATM   15  C10 UNL     1      34.964  44.469  23.054  1.00  0.00     0.171 C 
HETATM   16  N10 UNL     1      35.947  43.706  23.287  1.00  0.00    -0.250 N 
ATOM     17  H10 UNL     1      36.769  43.772  22.688  1.00  0.00     0.196 HD
BRANCH  16  18
HETATM   18  O1  UNL     1      35.952  42.803  24.300  1.00  0.00    -0.288 OA
ATOM     19  H1  UNL     1      36.634  42.776  24.961  1.00  0.00     0.244 HD
ENDBRANCH  16  18
BRANCH  15  20
HETATM   20  N11 UNL     1      33.805  44.396  23.876  1.00  0.00    -0.289 N 
ATOM     21  H11 UNL     1      33.383  43.488  24.069  1.00  0.00     0.188 HD
BRANCH  20  22
HETATM   22  N12 UNL     1      33.236  45.547  24.420  1.00  0.00    -0.344 N 
ATOM     23 2H12 UNL     1      33.357  46.431  23.926  1.00  0.00     0.176 HD
ATOM     24 1H12 UNL     1      32.709  45.511  25.292  1.00  0.00     0.176 HD
ENDBRANCH  20  22
ENDBRANCH  15  20
ENDBRANCH  13  15
ENDBRANCH   7   8
BRANCH   1  25
HETATM   25  C1  UNL     1      35.888  42.644  19.772  1.00  0.00     0.157 C 
HETATM   26  N1  UNL     1      36.533  43.032  18.736  1.00  0.00    -0.385 N 
ATOM     27  H12 UNL     1      37.531  42.836  18.652  1.00  0.00     0.157 HD
ATOM     28  H11 UNL     1      36.037  43.543  18.006  1.00  0.00     0.157 HD
HETATM   29  N2  UNL     1      36.572  41.939  20.779  1.00  0.00    -0.079 NA
ENDBRANCH   1  25
BRANCH   6  30
HETATM   30  N5  UNL     1      31.418  44.732  20.584  1.00  0.00    -0.213 N 
HETATM   31  C4  UNL     1      30.817  45.744  19.774  1.00  0.00     0.168 C 
HETATM   32  C5  UNL     1      29.655  46.397  20.566  1.00  0.00     0.252 C 
HETATM   33  N6  UNL     1      28.735  45.406  21.020  1.00  0.00    -0.072 N 
HETATM   34  C6  UNL     1      29.348  44.412  21.880  1.00  0.00     0.252 C 
ATOM     35  H62 UNL     1      27.932  45.838  21.479  1.00  0.00     0.277 HD
ATOM     36  H61 UNL     1      28.260  44.962  20.234  1.00  0.00     0.277 HD
HETATM   37  C7  UNL     1      30.830  44.605  21.924  1.00  0.00     0.168 C 
ENDBRANCH   6  30
TORSDOF 7
ENDMDL
MODEL 3
REMARK VINA RESULT: -6.252730321      4.407      6.921
REMARK  7 active torsions:
REMARK  status: ('A' for Active; 'I' for Inactive)
REMARK    1  A    between atoms: C1_4  and  C2_6 
REMARK    2  A    between atoms: C3_11  and  N5_12 
REMARK    3  A    between atoms: N7_20  and  C8_21 
REMARK    4  A    between atoms: C9_27  and  C10_28 
REMARK    5  A    between atoms: C10_28  and  N11_33 
REMARK    6  A    between atoms: N10_29  and  O1_31 
REMARK    7  A    between atoms: N11_33  and  N12_35 
ROOT
HETATM    1  C2  UNL     1      28.700  46.864  19.847  1.00  0.00     0.186 A 
HETATM    2  N3  UNL     1      27.540  47.212  20.468  1.00  0.00    -0.267 N 
ATOM      3  H3  UNL     1      27.386  48.079  20.983  1.00  0.00     0.189 HD
HETATM    4  N4  UNL     1      26.654  46.266  20.305  1.00  0.00    -0.130 N 
ATOM      5  H4  UNL     1      25.703  46.284  20.673  1.00  0.00     0.205 HD
HETATM    6  C3  UNL     1      27.195  45.238  19.559  1.00  0.00     0.705 A 
HETATM    7  N7  UNL     1      28.442  45.663  19.312  1.00  0.00    -0.108 N 
ENDROOT
BRANCH   7   8
HETATM    8  C8  UNL     1      29.442  44.926  18.552  1.00  0.00     0.169 A 
HETATM    9  N8  UNL     1      29.497  45.080  17.238  1.00  0.00    -0.295 N 
HETATM   10  S1  UNL     1      30.759  44.099  16.751  1.00  0.00     0.069 SA
ATOM     11  H8  UNL     1      28.902  45.666  16.652  1.00  0.00     0.177 HD
HETATM   12  N9  UNL     1      31.201  43.502  18.255  1.00  0.00    -0.306 N 
HETATM   13  C9  UNL     1      30.349  44.083  19.118  1.00  0.00     0.133 A 
ATOM     14  H9  UNL     1      31.950  42.843  18.467  1.00  0.00     0.176 HD
BRANCH  13  15
HETATM   15  C10 UNL     1      30.454  43.774  20.579  1.00  0.00     0.171 C 
HETATM   16  N10 UNL     1      29.618  42.997  21.129  1.00  0.00    -0.250 N 
ATOM     17  H10 UNL     1      28.879  42.590  20.555  1.00  0.00     0.196 HD
BRANCH  16  18
HETATM   18  O1  UNL     1      29.664  42.683  22.447  1.00  0.00    -0.288 OA
ATOM     19  H1  UNL     1      30.158  41.944  22.783  1.00  0.00     0.244 HD
ENDBRANCH  16  18
BRANCH  15  20
HETATM   20  N11 UNL     1      31.493  44.354  21.358  1.00  0.00    -0.289 N 
ATOM     21  H11 UNL     1      32.459  44.281  21.040  1.00  0.00     0.188 HD
BRANCH  20  22
HETATM   22  N12 UNL     1      31.211  45.022  22.549  1.00  0.00    -0.344 N 
ATOM     23 2H12 UNL     1      30.252  45.014  22.897  1.00  0.00     0.176 HD
ATOM     24 1H12 UNL     1      31.944  45.509  23.065  1.00  0.00     0.176 HD
ENDBRANCH  20  22
ENDBRANCH  15  20
ENDBRANCH  13  15
ENDBRANCH   7   8
BRANCH   1  25
HETATM   25  C1  UNL     1      29.886  47.690  19.826  1.00  0.00     0.157 C 
HETATM   26  N1  UNL     1      29.921  48.745  19.100  1.00  0.00    -0.385 N 
ATOM     27  H12 UNL     1      30.758  49.328  19.085  1.00  0.00     0.157 HD
ATOM     28  H11 UNL     1      29.101  48.993  18.547  1.00  0.00     0.157 HD
HETATM   29  N2  UNL     1      31.017  47.348  20.590  1.00  0.00    -0.079 NA
ENDBRANCH   1  25
BRANCH   6  30
HETATM   30  N5  UNL     1      26.502  44.063  19.195  1.00  0.00    -0.213 N 
HETATM   31  C4  UNL     1      26.341  42.858  19.946  1.00  0.00     0.168 C 
HETATM   32  C5  UNL     1      25.460  41.875  19.134  1.00  0.00     0.252 C 
HETATM   33  N6  UNL     1      24.226  42.489  18.766  1.00  0.00    -0.072 N 
HETATM   34  C6  UNL     1      24.403  43.685  17.964  1.00  0.00     0.252 C 
ATOM     35  H62 UNL     1      23.614  41.822  18.295  1.00  0.00     0.277 HD
ATOM     36  H61 UNL     1      23.657  42.686  19.590  1.00  0.00     0.277 HD
HETATM   37  C7  UNL     1      25.852  44.044  17.879  1.00  0.00     0.168 C 
ENDBRANCH   6  30
TORSDOF 7
ENDMDL
MODEL 4
REMARK VINA RESULT: -6.244685545      5.342      7.930
REMARK  7 active torsions:
REMARK  status: ('A' for Active; 'I' for Inactive)
REMARK    1  A    between atoms: C1_4  and  C2_6 
REMARK    2  A    between atoms: C3_11  and  N5_12 
REMARK    3  A    between atoms: N7_20  and  C8_21 
REMARK    4  A    between atoms: C9_27  and  C10_28 
REMARK    5  A    between atoms: C10_28  and  N11_33 
REMARK    6  A    between atoms: N10_29  and  O1_31 
REMARK    7  A    between atoms: N11_33  and  N12_35 
ROOT
HETATM    1  C2  UNL     1      25.663  44.444  19.365  1.00  0.00     0.186 A 
HETATM    2  N3  UNL     1      25.374  44.575  20.689  1.00  0.00    -0.267 N 
ATOM      3  H3  UNL     1      24.435  44.632  21.082  1.00  0.00     0.189 HD
HETATM    4  N4  UNL     1      26.483  44.615  21.378  1.00  0.00    -0.130 N 
ATOM      5  H4  UNL     1      26.539  44.709  22.392  1.00  0.00     0.205 HD
HETATM    6  C3  UNL     1      27.568  44.512  20.530  1.00  0.00     0.705 A 
HETATM    7  N7  UNL     1      27.002  44.411  19.320  1.00  0.00    -0.108 N 
ENDROOT
BRANCH   7   8
HETATM    8  C8  UNL     1      27.728  44.281  18.064  1.00  0.00     0.169 A 
HETATM    9  N8  UNL     1      28.021  43.072  17.609  1.00  0.00    -0.295 N 
HETATM   10  S1  UNL     1      28.824  43.348  16.170  1.00  0.00     0.069 SA
ATOM     11  H8  UNL     1      27.805  42.174  18.040  1.00  0.00     0.177 HD
HETATM   12  N9  UNL     1      28.772  45.024  16.175  1.00  0.00    -0.306 N 
HETATM   13  C9  UNL     1      28.122  45.343  17.308  1.00  0.00     0.133 A 
ATOM     14  H9  UNL     1      29.148  45.661  15.472  1.00  0.00     0.176 HD
BRANCH  13  15
HETATM   15  C10 UNL     1      27.888  46.783  17.645  1.00  0.00     0.171 C 
HETATM   16  N10 UNL     1      28.420  47.292  18.676  1.00  0.00    -0.250 N 
ATOM     17  H10 UNL     1      29.007  46.701  19.265  1.00  0.00     0.196 HD
BRANCH  16  18
HETATM   18  O1  UNL     1      28.243  48.589  19.030  1.00  0.00    -0.288 OA
ATOM     19  H1  UNL     1      28.742  49.300  18.644  1.00  0.00     0.244 HD
ENDBRANCH  16  18
BRANCH  15  20
HETATM   20  N11 UNL     1      27.066  47.586  16.808  1.00  0.00    -0.289 N 
ATOM     21  H11 UNL     1      26.070  47.379  16.734  1.00  0.00     0.188 HD
BRANCH  20  22
HETATM   22  N12 UNL     1      27.601  48.654  16.086  1.00  0.00    -0.344 N 
ATOM     23 2H12 UNL     1      28.607  48.812  16.126  1.00  0.00     0.176 HD
ATOM     24 1H12 UNL     1      27.002  49.263  15.529  1.00  0.00     0.176 HD
ENDBRANCH  20  22
ENDBRANCH  15  20
ENDBRANCH  13  15
ENDBRANCH   7   8
BRANCH   1  25
HETATM   25  C1  UNL     1      24.664  44.360  18.323  1.00  0.00     0.157 C 
HETATM   26  N1  UNL     1      24.523  45.323  17.490  1.00  0.00    -0.385 N 
ATOM     27  H12 UNL     1      23.818  45.265  16.755  1.00  0.00     0.157 HD
ATOM     28  H11 UNL     1      25.128  46.141  17.571  1.00  0.00     0.157 HD
HETATM   29  N2  UNL     1      23.830  43.233  18.211  1.00  0.00    -0.079 NA
ENDBRANCH   1  25
BRANCH   6  30
HETATM   30  N5  UNL     1      28.915  44.516  20.951  1.00  0.00    -0.213 N 
HETATM   31  C4  UNL     1      29.836  45.609  20.970  1.00  0.00     0.168 C 
HETATM   32  C5  UNL     1      31.183  45.119  21.562  1.00  0.00     0.252 C 
HETATM   33  N6  UNL     1      30.984  44.516  22.839  1.00  0.00    -0.072 N 
HETATM   34  C6  UNL     1      30.084  43.379  22.797  1.00  0.00     0.252 C 
ATOM     35  H62 UNL     1      31.875  44.258  23.262  1.00  0.00     0.277 HD
ATOM     36  H61 UNL     1      30.667  45.205  23.521  1.00  0.00     0.277 HD
HETATM   37  C7  UNL     1      29.473  43.249  21.439  1.00  0.00     0.168 C 
ENDBRANCH   6  30
TORSDOF 7
ENDMDL
MODEL 5
REMARK VINA RESULT: -6.225078066      2.551      4.714
REMARK  7 active torsions:
REMARK  status: ('A' for Active; 'I' for Inactive)
REMARK    1  A    between atoms: C1_4  and  C2_6 
REMARK    2  A    between atoms: C3_11  and  N5_12 
REMARK    3  A    between atoms: N7_20  and  C8_21 
REMARK    4  A    between atoms: C9_27  and  C10_28 
REMARK    5  A    between atoms: C10_28  and  N11_33 
REMARK    6  A    between atoms: N10_29  and  O1_31 
REMARK    7  A    between atoms: N11_33  and  N12_35 
ROOT
HETATM    1  C2  UNL     1      32.604  45.146  19.796  1.00  0.00     0.186 A 
HETATM    2  N3  UNL     1      32.218  46.399  19.429  1.00  0.00    -0.267 N 
ATOM      3  H3  UNL     1      31.450  46.614  18.795  1.00  0.00     0.189 HD
HETATM    4  N4  UNL     1      32.983  47.282  20.014  1.00  0.00    -0.130 N 
ATOM      5  H4  UNL     1      32.900  48.293  19.904  1.00  0.00     0.205 HD
HETATM    6  C3  UNL     1      33.919  46.645  20.804  1.00  0.00     0.705 A 
HETATM    7  N7  UNL     1      33.636  45.347  20.627  1.00  0.00    -0.108 N 
ENDROOT
BRANCH   7   8
HETATM    8  C8  UNL     1      34.351  44.242  21.250  1.00  0.00     0.169 A 
HETATM    9  N8  UNL     1      35.306  43.625  20.571  1.00  0.00    -0.295 N 
HETATM   10  S1  UNL     1      35.878  42.455  21.616  1.00  0.00     0.069 SA
ATOM     11  H8  UNL     1      35.622  43.821  19.622  1.00  0.00     0.177 HD
HETATM   12  N9  UNL     1      34.874  42.776  22.920  1.00  0.00    -0.306 N 
HETATM   13  C9  UNL     1      34.103  43.801  22.515  1.00  0.00     0.133 A 
ATOM     14  H9  UNL     1      34.853  42.300  23.822  1.00  0.00     0.176 HD
BRANCH  13  15
HETATM   15  C10 UNL     1      33.071  44.361  23.443  1.00  0.00     0.171 C 
HETATM   16  N10 UNL     1      33.411  45.141  24.380  1.00  0.00    -0.250 N 
ATOM     17  H10 UNL     1      34.398  45.377  24.485  1.00  0.00     0.196 HD
BRANCH  16  18
HETATM   18  O1  UNL     1      32.520  45.677  25.250  1.00  0.00    -0.288 OA
ATOM     19  H1  UNL     1      32.649  45.667  26.191  1.00  0.00     0.244 HD
ENDBRANCH  16  18
BRANCH  15  20
HETATM   20  N11 UNL     1      31.701  44.017  23.276  1.00  0.00    -0.289 N 
ATOM     21  H11 UNL     1      31.370  43.105  23.591  1.00  0.00     0.188 HD
BRANCH  20  22
HETATM   22  N12 UNL     1      30.803  44.907  22.687  1.00  0.00    -0.344 N 
ATOM     23 2H12 UNL     1      31.055  45.333  21.795  1.00  0.00     0.176 HD
ATOM     24 1H12 UNL     1      29.914  45.129  23.134  1.00  0.00     0.176 HD
ENDBRANCH  20  22
ENDBRANCH  15  20
ENDBRANCH  13  15
ENDBRANCH   7   8
BRANCH   1  25
HETATM   25  C1  UNL     1      31.964  43.934  19.335  1.00  0.00     0.157 C 
HETATM   26  N1  UNL     1      31.915  43.670  18.083  1.00  0.00    -0.385 N 
ATOM     27  H12 UNL     1      31.464  42.815  17.757  1.00  0.00     0.157 HD
ATOM     28  H11 UNL     1      32.339  44.322  17.422  1.00  0.00     0.157 HD
HETATM   29  N2  UNL     1      31.380  43.035  20.246  1.00  0.00    -0.079 NA
ENDBRANCH   1  25
BRANCH   6  30
HETATM   30  N5  UNL     1      34.896  47.307  21.579  1.00  0.00    -0.213 N 
HETATM   31  C4  UNL     1      36.299  47.418  21.333  1.00  0.00     0.168 C 
HETATM   32  C5  UNL     1      36.937  48.283  22.450  1.00  0.00     0.252 C 
HETATM   33  N6  UNL     1      36.273  49.541  22.555  1.00  0.00    -0.072 N 
HETATM   34  C6  UNL     1      34.859  49.416  22.851  1.00  0.00     0.252 C 
ATOM     35  H62 UNL     1      36.736  50.140  23.240  1.00  0.00     0.277 HD
ATOM     36  H61 UNL     1      36.420  50.101  21.715  1.00  0.00     0.277 HD
HETATM   37  C7  UNL     1      34.443  47.980  22.802  1.00  0.00     0.168 C 
ENDBRANCH   6  30
TORSDOF 7
ENDMDL
