MODEL 1
REMARK VINA RESULT: -7.073534494      0.000      0.000
REMARK  11 active torsions:
REMARK  status: ('A' for Active; 'I' for Inactive)
REMARK    1  A    between atoms: O1_2  and  C2_3 
REMARK    2  A    between atoms: C2_3  and  C3_5 
REMARK    3  A    between atoms: C4_6  and  N1_7 
REMARK       I    between atoms: N1_7  and  C5_9 
REMARK    4  A    between atoms: C5_9  and  C6_11 
REMARK    5  A    between atoms: C12_20  and  C13_21 
REMARK    6  A    between atoms: C13_21  and  O4_22 
REMARK    7  A    between atoms: C13_21  and  N2_24 
REMARK    8  A    between atoms: N2_24  and  C14_25 
REMARK    9  A    between atoms: N2_24  and  C18_31 
REMARK   10  A    between atoms: C14_25  and  C15_26 
REMARK       I    between atoms: C15_26  and  N3_28 
REMARK   11  A    between atoms: C21_34  and  C22_35 
ROOT
HETATM    1  C3  UNL     1      15.561  66.107  20.955  1.00  0.00     0.086 A 
HETATM    2  C4  UNL     1      15.224  65.374  22.053  1.00  0.00     0.095 A 
HETATM    3  S3  UNL     1      13.902  66.217  22.698  1.00  0.00    -0.066 SA
HETATM    4  C12 UNL     1      13.793  67.536  21.531  1.00  0.00     0.070 A 
HETATM    5  C21 UNL     1      14.816  67.227  20.693  1.00  0.00     0.015 A 
ENDROOT
BRANCH   4   6
HETATM    6  C13 UNL     1      12.708  68.495  21.565  1.00  0.00     0.157 C 
BRANCH   6   7
HETATM    7  O4  UNL     1      12.491  68.853  22.869  1.00  0.00    -0.345 OA
ATOM      8  H4  UNL     1      12.700  69.774  22.965  1.00  0.00     0.219 HD
ENDBRANCH   6   7
BRANCH   6   9
HETATM    9  N2  UNL     1      11.831  69.162  20.750  1.00  0.00    -0.347 N 
BRANCH   9  10
HETATM   10  C14 UNL     1      10.572  68.392  20.400  1.00  0.00     0.228 C 
BRANCH  10  11
HETATM   11  C15 UNL     1       9.576  68.621  21.459  1.00  0.00     0.236 C 
HETATM   12  O5  UNL     1       9.012  69.729  21.568  1.00  0.00    -0.272 OA
HETATM   13  N3  UNL     1       9.273  67.561  22.344  1.00  0.00    -0.359 N 
HETATM   14  C16 UNL     1       9.925  66.259  22.224  1.00  0.00     0.152 C 
HETATM   15  C17 UNL     1       8.296  67.790  23.388  1.00  0.00     0.152 C 
ENDBRANCH  10  11
ENDBRANCH   9  10
BRANCH   9  16
HETATM   16  C18 UNL     1      11.775  70.508  20.301  1.00  0.00     0.087 A 
HETATM   17  C19 UNL     1      11.496  70.921  18.900  1.00  0.00     0.027 A 
HETATM   18  C20 UNL     1      12.865  71.120  19.440  1.00  0.00     0.027 A 
ENDBRANCH   9  16
ENDBRANCH   6   9
ENDBRANCH   4   6
BRANCH   5  19
HETATM   19  C22 UNL     1      15.125  68.041  19.466  1.00  0.00    -0.023 A 
HETATM   20  C23 UNL     1      14.392  67.883  18.293  1.00  0.00     0.015 A 
HETATM   21  C24 UNL     1      14.672  68.630  17.168  1.00  0.00     0.043 A 
HETATM   22  C25 UNL     1      15.708  69.564  17.197  1.00  0.00     0.116 A 
HETATM   23  F1  UNL     1      16.006  70.314  16.104  1.00  0.00    -0.206 F 
HETATM   24  C26 UNL     1      16.445  69.734  18.353  1.00  0.00     0.043 A 
HETATM   25  C27 UNL     1      16.136  68.970  19.455  1.00  0.00     0.015 A 
ENDBRANCH   5  19
BRANCH   2  26
HETATM   26  N1  UNL     1      15.810  64.169  22.620  1.00  0.00    -0.316 N 
HETATM   27  C5  UNL     1      16.921  64.305  23.489  1.00  0.00     0.263 C 
HETATM   28  O3  UNL     1      17.368  65.431  23.750  1.00  0.00    -0.267 OA
ATOM     29  H1  UNL     1      15.430  63.248  22.398  1.00  0.00     0.169 HD
BRANCH  27  30
HETATM   30  C6  UNL     1      17.564  63.134  24.094  1.00  0.00     0.073 A 
HETATM   31  C7  UNL     1      17.593  61.851  23.633  1.00  0.00     0.033 A 
HETATM   32  C8  UNL     1      18.279  60.920  24.396  1.00  0.00    -0.034 A 
HETATM   33  C9  UNL     1      18.848  61.355  25.506  1.00  0.00    -0.000 A 
HETATM   34  C11 UNL     1      18.469  59.418  24.136  1.00  0.00     0.114 C 
HETATM   35  S1  UNL     1      18.461  63.036  25.536  1.00  0.00    -0.088 SA
HETATM   36  C10 UNL     1      19.597  60.394  26.355  1.00  0.00     0.120 C 
HETATM   37  S2  UNL     1      19.949  59.079  25.121  1.00  0.00    -0.159 SA
ENDBRANCH  27  30
ENDBRANCH   2  26
BRANCH   1  38
HETATM   38  C2  UNL     1      16.669  65.622  20.066  1.00  0.00     0.296 C 
HETATM   39  O2  UNL     1      16.564  64.637  19.309  1.00  0.00    -0.259 OA
BRANCH  38  40
HETATM   40  O1  UNL     1      17.888  66.248  20.038  1.00  0.00    -0.322 OA
HETATM   41  C1  UNL     1      18.688  66.282  18.875  1.00  0.00     0.213 C 
ENDBRANCH  38  40
ENDBRANCH   1  38
TORSDOF 11
ENDMDL
MODEL 2
REMARK VINA RESULT: -7.041276893      1.620      2.721
REMARK  11 active torsions:
REMARK  status: ('A' for Active; 'I' for Inactive)
REMARK    1  A    between atoms: O1_2  and  C2_3 
REMARK    2  A    between atoms: C2_3  and  C3_5 
REMARK    3  A    between atoms: C4_6  and  N1_7 
REMARK       I    between atoms: N1_7  and  C5_9 
REMARK    4  A    between atoms: C5_9  and  C6_11 
REMARK    5  A    between atoms: C12_20  and  C13_21 
REMARK    6  A    between atoms: C13_21  and  O4_22 
REMARK    7  A    between atoms: C13_21  and  N2_24 
REMARK    8  A    between atoms: N2_24  and  C14_25 
REMARK    9  A    between atoms: N2_24  and  C18_31 
REMARK   10  A    between atoms: C14_25  and  C15_26 
REMARK       I    between atoms: C15_26  and  N3_28 
REMARK   11  A    between atoms: C21_34  and  C22_35 
ROOT
HETATM    1  C3  UNL     1      15.933  65.192  21.503  1.00  0.00     0.086 A 
HETATM    2  C4  UNL     1      15.750  64.397  22.594  1.00  0.00     0.095 A 
HETATM    3  S3  UNL     1      14.670  65.287  23.551  1.00  0.00    -0.066 SA
HETATM    4  C12 UNL     1      14.462  66.706  22.523  1.00  0.00     0.070 A 
HETATM    5  C21 UNL     1      15.265  66.387  21.475  1.00  0.00     0.015 A 
ENDROOT
BRANCH   4   6
HETATM    6  C13 UNL     1      13.504  67.744  22.843  1.00  0.00     0.157 C 
BRANCH   6   7
HETATM    7  O4  UNL     1      13.948  68.413  23.953  1.00  0.00    -0.345 OA
ATOM      8  H4  UNL     1      14.766  68.844  23.734  1.00  0.00     0.219 HD
ENDBRANCH   6   7
BRANCH   6   9
HETATM    9  N2  UNL     1      12.316  68.283  22.423  1.00  0.00    -0.347 N 
BRANCH   9  10
HETATM   10  C14 UNL     1      12.447  69.497  21.525  1.00  0.00     0.228 C 
BRANCH  10  11
HETATM   11  C15 UNL     1      11.819  70.646  22.198  1.00  0.00     0.236 C 
HETATM   12  O5  UNL     1      12.277  71.074  23.276  1.00  0.00    -0.272 OA
HETATM   13  N3  UNL     1      10.692  71.249  21.596  1.00  0.00    -0.359 N 
HETATM   14  C16 UNL     1      10.148  70.757  20.332  1.00  0.00     0.152 C 
HETATM   15  C17 UNL     1      10.072  72.375  22.262  1.00  0.00     0.152 C 
ENDBRANCH  10  11
ENDBRANCH   9  10
BRANCH   9  16
HETATM   16  C18 UNL     1      10.973  67.830  22.515  1.00  0.00     0.087 A 
HETATM   17  C19 UNL     1      10.490  66.805  23.478  1.00  0.00     0.027 A 
HETATM   18  C20 UNL     1      10.548  66.453  22.037  1.00  0.00     0.027 A 
ENDBRANCH   9  16
ENDBRANCH   6   9
ENDBRANCH   4   6
BRANCH   5  19
HETATM   19  C22 UNL     1      15.403  67.276  20.269  1.00  0.00    -0.023 A 
HETATM   20  C23 UNL     1      16.352  68.294  20.229  1.00  0.00     0.015 A 
HETATM   21  C24 UNL     1      16.481  69.108  19.123  1.00  0.00     0.043 A 
HETATM   22  C25 UNL     1      15.652  68.914  18.019  1.00  0.00     0.116 A 
HETATM   23  F1  UNL     1      15.758  69.700  16.915  1.00  0.00    -0.206 F 
HETATM   24  C26 UNL     1      14.706  67.907  18.041  1.00  0.00     0.043 A 
HETATM   25  C27 UNL     1      14.606  67.116  19.163  1.00  0.00     0.015 A 
ENDBRANCH   5  19
BRANCH   2  26
HETATM   26  N1  UNL     1      16.316  63.104  22.947  1.00  0.00    -0.316 N 
HETATM   27  C5  UNL     1      17.564  63.075  23.616  1.00  0.00     0.263 C 
HETATM   28  O3  UNL     1      18.144  64.136  23.890  1.00  0.00    -0.267 OA
ATOM     29  H1  UNL     1      15.826  62.238  22.718  1.00  0.00     0.169 HD
BRANCH  27  30
HETATM   30  C6  UNL     1      18.196  61.808  23.999  1.00  0.00     0.073 A 
HETATM   31  C7  UNL     1      18.997  61.551  25.072  1.00  0.00     0.033 A 
HETATM   32  C8  UNL     1      19.470  60.257  25.213  1.00  0.00    -0.034 A 
HETATM   33  C9  UNL     1      19.103  59.380  24.295  1.00  0.00    -0.000 A 
HETATM   34  C11 UNL     1      20.389  59.683  26.302  1.00  0.00     0.114 C 
HETATM   35  S1  UNL     1      18.110  60.297  23.222  1.00  0.00    -0.088 SA
HETATM   36  C10 UNL     1      19.582  57.979  24.407  1.00  0.00     0.120 C 
HETATM   37  S2  UNL     1      19.995  57.920  26.196  1.00  0.00    -0.159 SA
ENDBRANCH  27  30
ENDBRANCH   2  26
BRANCH   1  38
HETATM   38  C2  UNL     1      16.792  64.695  20.376  1.00  0.00     0.296 C 
HETATM   39  O2  UNL     1      16.367  63.972  19.454  1.00  0.00    -0.259 OA
BRANCH  38  40
HETATM   40  O1  UNL     1      18.122  65.018  20.296  1.00  0.00    -0.322 OA
HETATM   41  C1  UNL     1      18.653  65.748  19.210  1.00  0.00     0.213 C 
ENDBRANCH  38  40
ENDBRANCH   1  38
TORSDOF 11
ENDMDL
MODEL 3
REMARK VINA RESULT: -7.004433457      4.718      7.650
REMARK  11 active torsions:
REMARK  status: ('A' for Active; 'I' for Inactive)
REMARK    1  A    between atoms: O1_2  and  C2_3 
REMARK    2  A    between atoms: C2_3  and  C3_5 
REMARK    3  A    between atoms: C4_6  and  N1_7 
REMARK       I    between atoms: N1_7  and  C5_9 
REMARK    4  A    between atoms: C5_9  and  C6_11 
REMARK    5  A    between atoms: C12_20  and  C13_21 
REMARK    6  A    between atoms: C13_21  and  O4_22 
REMARK    7  A    between atoms: C13_21  and  N2_24 
REMARK    8  A    between atoms: N2_24  and  C14_25 
REMARK    9  A    between atoms: N2_24  and  C18_31 
REMARK   10  A    between atoms: C14_25  and  C15_26 
REMARK       I    between atoms: C15_26  and  N3_28 
REMARK   11  A    between atoms: C21_34  and  C22_35 
ROOT
HETATM    1  C3  UNL     1      17.221  68.871  18.100  1.00  0.00     0.086 A 
HETATM    2  C4  UNL     1      18.358  68.121  18.087  1.00  0.00     0.095 A 
HETATM    3  S3  UNL     1      17.977  66.814  19.100  1.00  0.00    -0.066 SA
HETATM    4  C12 UNL     1      16.327  67.255  19.545  1.00  0.00     0.070 A 
HETATM    5  C21 UNL     1      16.175  68.417  18.860  1.00  0.00     0.015 A 
ENDROOT
BRANCH   4   6
HETATM    6  C13 UNL     1      15.487  66.368  20.323  1.00  0.00     0.157 C 
BRANCH   6   7
HETATM    7  O4  UNL     1      15.258  65.236  19.586  1.00  0.00    -0.345 OA
ATOM      8  H4  UNL     1      14.954  64.554  20.173  1.00  0.00     0.219 HD
ENDBRANCH   6   7
BRANCH   6   9
HETATM    9  N2  UNL     1      14.846  66.271  21.530  1.00  0.00    -0.347 N 
BRANCH   9  10
HETATM   10  C14 UNL     1      15.743  65.932  22.704  1.00  0.00     0.228 C 
BRANCH  10  11
HETATM   11  C15 UNL     1      15.693  64.478  22.926  1.00  0.00     0.236 C 
HETATM   12  O5  UNL     1      16.186  63.694  22.090  1.00  0.00    -0.272 OA
HETATM   13  N3  UNL     1      15.077  63.994  24.102  1.00  0.00    -0.359 N 
HETATM   14  C16 UNL     1      14.498  64.903  25.089  1.00  0.00     0.152 C 
HETATM   15  C17 UNL     1      15.024  62.563  24.316  1.00  0.00     0.152 C 
ENDBRANCH  10  11
ENDBRANCH   9  10
BRANCH   9  16
HETATM   16  C18 UNL     1      13.527  66.597  21.944  1.00  0.00     0.087 A 
HETATM   17  C19 UNL     1      12.448  67.068  21.035  1.00  0.00     0.027 A 
HETATM   18  C20 UNL     1      13.029  68.030  22.005  1.00  0.00     0.027 A 
ENDBRANCH   9  16
ENDBRANCH   6   9
ENDBRANCH   4   6
BRANCH   5  19
HETATM   19  C22 UNL     1      14.885  69.191  18.866  1.00  0.00    -0.023 A 
HETATM   20  C23 UNL     1      14.736  70.338  19.643  1.00  0.00     0.015 A 
HETATM   21  C24 UNL     1      13.555  71.050  19.648  1.00  0.00     0.043 A 
HETATM   22  C25 UNL     1      12.484  70.621  18.863  1.00  0.00     0.116 A 
HETATM   23  F1  UNL     1      11.309  71.304  18.848  1.00  0.00    -0.206 F 
HETATM   24  C26 UNL     1      12.615  69.487  18.086  1.00  0.00     0.043 A 
HETATM   25  C27 UNL     1      13.809  68.803  18.107  1.00  0.00     0.015 A 
ENDBRANCH   5  19
BRANCH   2  26
HETATM   26  N1  UNL     1      19.636  68.323  17.422  1.00  0.00    -0.316 N 
HETATM   27  C5  UNL     1      20.733  68.774  18.195  1.00  0.00     0.263 C 
HETATM   28  O3  UNL     1      20.592  68.984  19.408  1.00  0.00    -0.267 OA
ATOM     29  H1  UNL     1      19.738  68.144  16.422  1.00  0.00     0.169 HD
BRANCH  27  30
HETATM   30  C6  UNL     1      22.049  69.004  17.589  1.00  0.00     0.073 A 
HETATM   31  C7  UNL     1      23.190  68.273  17.741  1.00  0.00     0.033 A 
HETATM   32  C8  UNL     1      24.313  68.701  17.051  1.00  0.00    -0.034 A 
HETATM   33  C9  UNL     1      24.182  69.783  16.303  1.00  0.00    -0.000 A 
HETATM   34  C11 UNL     1      25.723  68.092  17.038  1.00  0.00     0.114 C 
HETATM   35  S1  UNL     1      22.533  70.239  16.524  1.00  0.00    -0.088 SA
HETATM   36  C10 UNL     1      25.357  70.277  15.543  1.00  0.00     0.120 C 
HETATM   37  S2  UNL     1      26.370  68.746  15.479  1.00  0.00    -0.159 SA
ENDBRANCH  27  30
ENDBRANCH   2  26
BRANCH   1  38
HETATM   38  C2  UNL     1      17.150  70.101  17.243  1.00  0.00     0.296 C 
HETATM   39  O2  UNL     1      16.307  70.263  16.339  1.00  0.00    -0.259 OA
BRANCH  38  40
HETATM   40  O1  UNL     1      18.030  71.139  17.409  1.00  0.00    -0.322 OA
HETATM   41  C1  UNL     1      18.190  71.797  18.649  1.00  0.00     0.213 C 
ENDBRANCH  38  40
ENDBRANCH   1  38
TORSDOF 11
ENDMDL
MODEL 4
REMARK VINA RESULT: -6.975392622      1.075      1.427
REMARK  11 active torsions:
REMARK  status: ('A' for Active; 'I' for Inactive)
REMARK    1  A    between atoms: O1_2  and  C2_3 
REMARK    2  A    between atoms: C2_3  and  C3_5 
REMARK    3  A    between atoms: C4_6  and  N1_7 
REMARK       I    between atoms: N1_7  and  C5_9 
REMARK    4  A    between atoms: C5_9  and  C6_11 
REMARK    5  A    between atoms: C12_20  and  C13_21 
REMARK    6  A    between atoms: C13_21  and  O4_22 
REMARK    7  A    between atoms: C13_21  and  N2_24 
REMARK    8  A    between atoms: N2_24  and  C14_25 
REMARK    9  A    between atoms: N2_24  and  C18_31 
REMARK   10  A    between atoms: C14_25  and  C15_26 
REMARK       I    between atoms: C15_26  and  N3_28 
REMARK   11  A    between atoms: C21_34  and  C22_35 
ROOT
HETATM    1  C3  UNL     1      15.915  65.895  21.386  1.00  0.00     0.086 A 
HETATM    2  C4  UNL     1      15.710  65.211  22.546  1.00  0.00     0.095 A 
HETATM    3  S3  UNL     1      14.729  66.257  23.451  1.00  0.00    -0.066 SA
HETATM    4  C12 UNL     1      14.592  67.597  22.310  1.00  0.00     0.070 A 
HETATM    5  C21 UNL     1      15.335  67.132  21.273  1.00  0.00     0.015 A 
ENDROOT
BRANCH   4   6
HETATM    6  C13 UNL     1      13.723  68.727  22.564  1.00  0.00     0.157 C 
BRANCH   6   7
HETATM    7  O4  UNL     1      13.689  68.948  23.916  1.00  0.00    -0.345 OA
ATOM      8  H4  UNL     1      12.951  69.514  24.107  1.00  0.00     0.219 HD
ENDBRANCH   6   7
BRANCH   6   9
HETATM    9  N2  UNL     1      12.930  69.644  21.926  1.00  0.00    -0.347 N 
BRANCH   9  10
HETATM   10  C14 UNL     1      11.469  69.616  22.328  1.00  0.00     0.228 C 
BRANCH  10  11
HETATM   11  C15 UNL     1      10.877  68.356  21.850  1.00  0.00     0.236 C 
HETATM   12  O5  UNL     1      10.836  68.099  20.630  1.00  0.00    -0.272 OA
HETATM   13  N3  UNL     1      10.361  67.447  22.802  1.00  0.00    -0.359 N 
HETATM   14  C16 UNL     1      10.406  67.736  24.234  1.00  0.00     0.152 C 
HETATM   15  C17 UNL     1       9.775  66.210  22.331  1.00  0.00     0.152 C 
ENDBRANCH  10  11
ENDBRANCH   9  10
BRANCH   9  16
HETATM   16  C18 UNL     1      13.229  70.747  21.082  1.00  0.00     0.087 A 
HETATM   17  C19 UNL     1      12.216  71.674  20.510  1.00  0.00     0.027 A 
HETATM   18  C20 UNL     1      12.918  70.737  19.596  1.00  0.00     0.027 A 
ENDBRANCH   9  16
ENDBRANCH   6   9
ENDBRANCH   4   6
BRANCH   5  19
HETATM   19  C22 UNL     1      15.498  67.902  19.991  1.00  0.00    -0.023 A 
HETATM   20  C23 UNL     1      16.456  68.907  19.871  1.00  0.00     0.015 A 
HETATM   21  C24 UNL     1      16.608  69.612  18.696  1.00  0.00     0.043 A 
HETATM   22  C25 UNL     1      15.793  69.321  17.602  1.00  0.00     0.116 A 
HETATM   23  F1  UNL     1      15.922  70.000  16.432  1.00  0.00    -0.206 F 
HETATM   24  C26 UNL     1      14.839  68.328  17.704  1.00  0.00     0.043 A 
HETATM   25  C27 UNL     1      14.717  67.646  18.892  1.00  0.00     0.015 A 
ENDBRANCH   5  19
BRANCH   2  26
HETATM   26  N1  UNL     1      16.191  63.913  22.994  1.00  0.00    -0.316 N 
HETATM   27  C5  UNL     1      17.435  63.853  23.668  1.00  0.00     0.263 C 
HETATM   28  O3  UNL     1      18.084  64.891  23.866  1.00  0.00    -0.267 OA
ATOM     29  H1  UNL     1      15.646  63.067  22.827  1.00  0.00     0.169 HD
BRANCH  27  30
HETATM   30  C6  UNL     1      17.984  62.579  24.144  1.00  0.00     0.073 A 
HETATM   31  C7  UNL     1      17.779  61.328  23.642  1.00  0.00     0.033 A 
HETATM   32  C8  UNL     1      18.422  60.278  24.276  1.00  0.00    -0.034 A 
HETATM   33  C9  UNL     1      19.180  60.577  25.316  1.00  0.00    -0.000 A 
HETATM   34  C11 UNL     1      18.370  58.779  23.944  1.00  0.00     0.114 C 
HETATM   35  S1  UNL     1      19.034  62.292  25.452  1.00  0.00    -0.088 SA
HETATM   36  C10 UNL     1      19.892  59.485  26.026  1.00  0.00     0.120 C 
HETATM   37  S2  UNL     1      19.903  58.199  24.714  1.00  0.00    -0.159 SA
ENDBRANCH  27  30
ENDBRANCH   2  26
BRANCH   1  38
HETATM   38  C2  UNL     1      16.697  65.243  20.283  1.00  0.00     0.296 C 
HETATM   39  O2  UNL     1      16.190  64.485  19.434  1.00  0.00    -0.259 OA
BRANCH  38  40
HETATM   40  O1  UNL     1      18.046  65.449  20.147  1.00  0.00    -0.322 OA
HETATM   41  C1  UNL     1      18.597  66.089  19.015  1.00  0.00     0.213 C 
ENDBRANCH  38  40
ENDBRANCH   1  38
TORSDOF 11
ENDMDL
MODEL 5
REMARK VINA RESULT: -6.946029238      3.587      4.592
REMARK  11 active torsions:
REMARK  status: ('A' for Active; 'I' for Inactive)
REMARK    1  A    between atoms: O1_2  and  C2_3 
REMARK    2  A    between atoms: C2_3  and  C3_5 
REMARK    3  A    between atoms: C4_6  and  N1_7 
REMARK       I    between atoms: N1_7  and  C5_9 
REMARK    4  A    between atoms: C5_9  and  C6_11 
REMARK    5  A    between atoms: C12_20  and  C13_21 
REMARK    6  A    between atoms: C13_21  and  O4_22 
REMARK    7  A    between atoms: C13_21  and  N2_24 
REMARK    8  A    between atoms: N2_24  and  C14_25 
REMARK    9  A    between atoms: N2_24  and  C18_31 
REMARK   10  A    between atoms: C14_25  and  C15_26 
REMARK       I    between atoms: C15_26  and  N3_28 
REMARK   11  A    between atoms: C21_34  and  C22_35 
ROOT
HETATM    1  C3  UNL     1      14.491  66.097  22.366  1.00  0.00     0.086 A 
HETATM    2  C4  UNL     1      13.407  65.954  23.178  1.00  0.00     0.095 A 
HETATM    3  S3  UNL     1      12.222  66.902  22.421  1.00  0.00    -0.066 SA
HETATM    4  C12 UNL     1      13.151  67.491  21.041  1.00  0.00     0.070 A 
HETATM    5  C21 UNL     1      14.351  66.897  21.262  1.00  0.00     0.015 A 
ENDROOT
BRANCH   4   6
HETATM    6  C13 UNL     1      12.534  68.266  19.984  1.00  0.00     0.157 C 
BRANCH   6   7
HETATM    7  O4  UNL     1      11.253  67.812  19.808  1.00  0.00    -0.345 OA
ATOM      8  H4  UNL     1      10.769  67.969  20.610  1.00  0.00     0.219 HD
ENDBRANCH   6   7
BRANCH   6   9
HETATM    9  N2  UNL     1      12.787  69.287  19.105  1.00  0.00    -0.347 N 
BRANCH   9  10
HETATM   10  C14 UNL     1      12.880  70.663  19.735  1.00  0.00     0.228 C 
BRANCH  10  11
HETATM   11  C15 UNL     1      11.549  71.037  20.240  1.00  0.00     0.236 C 
HETATM   12  O5  UNL     1      10.534  70.856  19.539  1.00  0.00    -0.272 OA
HETATM   13  N3  UNL     1      11.451  71.602  21.531  1.00  0.00    -0.359 N 
HETATM   14  C16 UNL     1      12.633  71.817  22.362  1.00  0.00     0.152 C 
HETATM   15  C17 UNL     1      10.141  71.974  22.025  1.00  0.00     0.152 C 
ENDBRANCH  10  11
ENDBRANCH   9  10
BRANCH   9  16
HETATM   16  C18 UNL     1      13.157  69.302  17.734  1.00  0.00     0.087 A 
HETATM   17  C19 UNL     1      13.716  68.138  16.996  1.00  0.00     0.027 A 
HETATM   18  C20 UNL     1      14.608  69.289  17.287  1.00  0.00     0.027 A 
ENDBRANCH   9  16
ENDBRANCH   6   9
ENDBRANCH   4   6
BRANCH   5  19
HETATM   19  C22 UNL     1      15.510  67.046  20.315  1.00  0.00    -0.023 A 
HETATM   20  C23 UNL     1      15.781  66.080  19.349  1.00  0.00     0.015 A 
HETATM   21  C24 UNL     1      16.842  66.217  18.478  1.00  0.00     0.043 A 
HETATM   22  C25 UNL     1      17.663  67.341  18.558  1.00  0.00     0.116 A 
HETATM   23  F1  UNL     1      18.715  67.502  17.713  1.00  0.00    -0.206 F 
HETATM   24  C26 UNL     1      17.408  68.310  19.509  1.00  0.00     0.043 A 
HETATM   25  C27 UNL     1      16.341  68.138  20.361  1.00  0.00     0.015 A 
ENDBRANCH   5  19
BRANCH   2  26
HETATM   26  N1  UNL     1      13.225  65.214  24.417  1.00  0.00    -0.316 N 
HETATM   27  C5  UNL     1      13.381  65.905  25.643  1.00  0.00     0.263 C 
HETATM   28  O3  UNL     1      13.664  67.113  25.642  1.00  0.00    -0.267 OA
ATOM     29  H1  UNL     1      12.990  64.221  24.404  1.00  0.00     0.169 HD
BRANCH  27  30
HETATM   30  C6  UNL     1      13.217  65.222  26.931  1.00  0.00     0.073 A 
HETATM   31  C7  UNL     1      12.788  63.950  27.166  1.00  0.00     0.033 A 
HETATM   32  C8  UNL     1      12.723  63.537  28.486  1.00  0.00    -0.034 A 
HETATM   33  C9  UNL     1      13.084  64.413  29.408  1.00  0.00    -0.000 A 
HETATM   34  C11 UNL     1      12.272  62.181  29.048  1.00  0.00     0.114 C 
HETATM   35  S1  UNL     1      13.517  65.814  28.498  1.00  0.00    -0.088 SA
HETATM   36  C10 UNL     1      13.035  64.015  30.837  1.00  0.00     0.120 C 
HETATM   37  S2  UNL     1      13.084  62.186  30.666  1.00  0.00    -0.159 SA
ENDBRANCH  27  30
ENDBRANCH   2  26
BRANCH   1  38
HETATM   38  C2  UNL     1      15.743  65.330  22.680  1.00  0.00     0.296 C 
HETATM   39  O2  UNL     1      16.740  65.834  23.233  1.00  0.00    -0.259 OA
BRANCH  38  40
HETATM   40  O1  UNL     1      15.863  64.000  22.368  1.00  0.00    -0.322 OA
HETATM   41  C1  UNL     1      15.948  63.000  23.362  1.00  0.00     0.213 C 
ENDBRANCH  38  40
ENDBRANCH   1  38
TORSDOF 11
ENDMDL
