MODEL 1
REMARK VINA RESULT: -9.615539091      0.000      0.000
REMARK  11 active torsions:
REMARK  status: ('A' for Active; 'I' for Inactive)
REMARK    1  A    between atoms: C2_2  and  C3_4 
REMARK    2  A    between atoms: C8_10  and  C9_11 
REMARK    3  A    between atoms: C9_11  and  O3_12 
REMARK    4  A    between atoms: C9_11  and  N1_14 
REMARK    5  A    between atoms: N1_14  and  C10_15 
REMARK    6  A    between atoms: N1_14  and  C19_26 
REMARK    7  A    between atoms: C10_15  and  S1_16 
REMARK    8  A    between atoms: S1_16  and  C11_17 
REMARK    9  A    between atoms: C20_31  and  C21_32 
REMARK   10  A    between atoms: C21_32  and  C22_33 
REMARK   11  A    between atoms: C22_33  and  C23_34 
ROOT
HETATM    1  N1  UNL     1      15.902  63.110  24.956  1.00  0.00    -0.296 N 
ENDROOT
BRANCH   1   2
HETATM    2  C9  UNL     1      16.985  62.730  25.745  1.00  0.00     0.159 C 
BRANCH   2   3
HETATM    3  C8  UNL     1      18.393  62.978  25.660  1.00  0.00     0.061 A 
HETATM    4  C3  UNL     1      18.959  64.236  25.938  1.00  0.00     0.056 A 
HETATM    5  C4  UNL     1      20.313  64.067  25.861  1.00  0.00     0.064 A 
HETATM    6  C5  UNL     1      21.361  65.124  26.078  1.00  0.00     0.077 C 
HETATM    7  O2  UNL     1      20.563  62.832  25.568  1.00  0.00    -0.318 OA
HETATM    8  C6  UNL     1      19.443  62.124  25.435  1.00  0.00     0.065 A 
HETATM    9  C7  UNL     1      19.447  60.653  25.107  1.00  0.00     0.077 C 
BRANCH   4  10
HETATM   10  C2  UNL     1      18.306  65.497  26.247  1.00  0.00     0.159 C 
HETATM   11  C1  UNL     1      17.904  65.789  27.657  1.00  0.00     0.097 C 
HETATM   12  O1  UNL     1      18.066  66.347  25.380  1.00  0.00    -0.293 OA
ENDBRANCH   4  10
ENDBRANCH   2   3
BRANCH   2  13
HETATM   13  O3  UNL     1      16.615  61.995  26.764  1.00  0.00    -0.345 OA
ATOM     14  H3  UNL     1      16.243  62.478  27.493  1.00  0.00     0.219 HD
ENDBRANCH   2  13
ENDBRANCH   1   2
BRANCH   1  15
HETATM   15  C10 UNL     1      14.527  62.789  25.267  1.00  0.00     0.212 C 
BRANCH  15  16
HETATM   16  S1  UNL     1      13.886  63.995  26.511  1.00  0.00    -0.110 SA
BRANCH  16  17
HETATM   17  C11 UNL     1      13.107  63.086  27.830  1.00  0.00     0.002 A 
HETATM   18  C12 UNL     1      13.537  63.181  29.133  1.00  0.00     0.021 A 
HETATM   19  C13 UNL     1      12.948  62.486  30.167  1.00  0.00     0.038 A 
HETATM   20  C14 UNL     1      11.884  61.655  29.910  1.00  0.00     0.075 A 
HETATM   21  C15 UNL     1      11.430  61.538  28.618  1.00  0.00    -0.021 A 
HETATM   22  O4  UNL     1      11.095  60.836  30.728  1.00  0.00    -0.350 OA
HETATM   23  C16 UNL     1      12.041  62.252  27.584  1.00  0.00     0.028 A 
HETATM   24  C17 UNL     1      10.291  60.592  28.623  1.00  0.00     0.068 C 
HETATM   25  C18 UNL     1       9.866  60.591  30.067  1.00  0.00     0.180 C 
ENDBRANCH  16  17
ENDBRANCH  15  16
ENDBRANCH   1  15
BRANCH   1  26
HETATM   26  C19 UNL     1      16.205  63.681  23.652  1.00  0.00     0.170 A 
HETATM   27  N2  UNL     1      16.966  63.124  22.726  1.00  0.00    -0.279 N 
HETATM   28  N3  UNL     1      17.156  63.723  21.627  1.00  0.00    -0.296 N 
ATOM     29  H2  UNL     1      17.398  62.216  22.896  1.00  0.00     0.189 HD
HETATM   30  C20 UNL     1      16.588  64.904  21.412  1.00  0.00     0.070 A 
ATOM     31  H3  UNL     1      17.743  63.299  20.909  1.00  0.00     0.187 HD
HETATM   32  S3  UNL     1      15.747  65.130  22.894  1.00  0.00    -0.038 SA
BRANCH  30  33
HETATM   33  C21 UNL     1      16.666  65.790  20.205  1.00  0.00     0.071 C 
BRANCH  33  34
HETATM   34  C22 UNL     1      15.675  65.297  19.210  1.00  0.00     0.045 C 
BRANCH  34  35
HETATM   35  C23 UNL     1      14.656  66.387  18.978  1.00  0.00    -0.050 A 
HETATM   36  C24 UNL     1      14.603  66.907  17.707  1.00  0.00     0.057 A 
HETATM   37  C25 UNL     1      13.753  67.900  17.288  1.00  0.00     0.161 A 
HETATM   38  F1  UNL     1      13.747  68.375  16.011  1.00  0.00    -0.198 F 
HETATM   39  S2  UNL     1      12.689  68.508  18.485  1.00  0.00    -0.018 SA
HETATM   40  C26 UNL     1      12.901  67.742  20.001  1.00  0.00     0.216 A 
HETATM   41  O5  UNL     1      12.201  68.065  20.999  1.00  0.00    -0.280 OA
HETATM   42  C27 UNL     1      13.865  66.781  20.029  1.00  0.00     0.070 A 
ENDBRANCH  34  35
ENDBRANCH  33  34
ENDBRANCH  30  33
ENDBRANCH   1  26
TORSDOF 11
ENDMDL
MODEL 2
REMARK VINA RESULT: -9.592558179      1.328      1.462
REMARK  11 active torsions:
REMARK  status: ('A' for Active; 'I' for Inactive)
REMARK    1  A    between atoms: C2_2  and  C3_4 
REMARK    2  A    between atoms: C8_10  and  C9_11 
REMARK    3  A    between atoms: C9_11  and  O3_12 
REMARK    4  A    between atoms: C9_11  and  N1_14 
REMARK    5  A    between atoms: N1_14  and  C10_15 
REMARK    6  A    between atoms: N1_14  and  C19_26 
REMARK    7  A    between atoms: C10_15  and  S1_16 
REMARK    8  A    between atoms: S1_16  and  C11_17 
REMARK    9  A    between atoms: C20_31  and  C21_32 
REMARK   10  A    between atoms: C21_32  and  C22_33 
REMARK   11  A    between atoms: C22_33  and  C23_34 
ROOT
HETATM    1  N1  UNL     1      16.073  63.126  24.762  1.00  0.00    -0.296 N 
ENDROOT
BRANCH   1   2
HETATM    2  C9  UNL     1      17.107  62.814  25.641  1.00  0.00     0.159 C 
BRANCH   2   3
HETATM    3  C8  UNL     1      18.502  63.134  25.665  1.00  0.00     0.061 A 
HETATM    4  C3  UNL     1      18.977  64.436  25.911  1.00  0.00     0.056 A 
HETATM    5  C4  UNL     1      20.340  64.338  25.964  1.00  0.00     0.064 A 
HETATM    6  C5  UNL     1      21.309  65.463  26.204  1.00  0.00     0.077 C 
HETATM    7  O2  UNL     1      20.676  63.103  25.775  1.00  0.00    -0.318 OA
HETATM    8  C6  UNL     1      19.610  62.327  25.590  1.00  0.00     0.065 A 
HETATM    9  C7  UNL     1      19.718  60.842  25.360  1.00  0.00     0.077 C 
BRANCH   4  10
HETATM   10  C2  UNL     1      18.236  65.675  26.078  1.00  0.00     0.159 C 
HETATM   11  C1  UNL     1      17.729  66.049  27.434  1.00  0.00     0.097 C 
HETATM   12  O1  UNL     1      18.006  66.440  25.133  1.00  0.00    -0.293 OA
ENDBRANCH   4  10
ENDBRANCH   2   3
BRANCH   2  13
HETATM   13  O3  UNL     1      16.693  62.073  26.640  1.00  0.00    -0.345 OA
ATOM     14  H3  UNL     1      15.917  61.556  26.461  1.00  0.00     0.219 HD
ENDBRANCH   2  13
ENDBRANCH   1   2
BRANCH   1  15
HETATM   15  C10 UNL     1      14.685  62.801  25.001  1.00  0.00     0.212 C 
BRANCH  15  16
HETATM   16  S1  UNL     1      13.962  64.035  26.169  1.00  0.00    -0.110 SA
BRANCH  16  17
HETATM   17  C11 UNL     1      13.262  63.160  27.555  1.00  0.00     0.002 A 
HETATM   18  C12 UNL     1      13.784  63.270  28.823  1.00  0.00     0.021 A 
HETATM   19  C13 UNL     1      13.257  62.601  29.907  1.00  0.00     0.038 A 
HETATM   20  C14 UNL     1      12.165  61.784  29.738  1.00  0.00     0.075 A 
HETATM   21  C15 UNL     1      11.620  61.654  28.484  1.00  0.00    -0.021 A 
HETATM   22  O4  UNL     1      11.422  60.992  30.624  1.00  0.00    -0.350 OA
HETATM   23  C16 UNL     1      12.169  62.341  27.397  1.00  0.00     0.028 A 
HETATM   24  C17 UNL     1      10.469  60.728  28.583  1.00  0.00     0.068 C 
HETATM   25  C18 UNL     1      10.146  60.757  30.053  1.00  0.00     0.180 C 
ENDBRANCH  16  17
ENDBRANCH  15  16
ENDBRANCH   1  15
BRANCH   1  26
HETATM   26  C19 UNL     1      16.454  63.623  23.448  1.00  0.00     0.170 A 
HETATM   27  N2  UNL     1      17.408  63.123  22.683  1.00  0.00    -0.279 N 
HETATM   28  N3  UNL     1      17.647  63.647  21.555  1.00  0.00    -0.296 N 
ATOM     29  H2  UNL     1      17.951  62.319  23.000  1.00  0.00     0.189 HD
HETATM   30  C20 UNL     1      16.935  64.692  21.149  1.00  0.00     0.070 A 
ATOM     31  H3  UNL     1      18.383  63.267  20.961  1.00  0.00     0.187 HD
HETATM   32  S3  UNL     1      15.880  64.902  22.489  1.00  0.00    -0.038 SA
BRANCH  30  33
HETATM   33  C21 UNL     1      17.034  65.469  19.871  1.00  0.00     0.071 C 
BRANCH  33  34
HETATM   34  C22 UNL     1      15.676  65.523  19.261  1.00  0.00     0.045 C 
BRANCH  34  35
HETATM   35  C23 UNL     1      15.492  66.885  18.637  1.00  0.00    -0.050 A 
HETATM   36  C24 UNL     1      14.259  67.136  18.084  1.00  0.00     0.057 A 
HETATM   37  C25 UNL     1      13.887  68.306  17.468  1.00  0.00     0.161 A 
HETATM   38  F1  UNL     1      12.647  68.497  16.938  1.00  0.00    -0.198 F 
HETATM   39  S2  UNL     1      15.093  69.521  17.412  1.00  0.00    -0.018 SA
HETATM   40  C26 UNL     1      16.556  69.027  18.149  1.00  0.00     0.216 A 
HETATM   41  O5  UNL     1      17.554  69.798  18.198  1.00  0.00    -0.280 OA
HETATM   42  C27 UNL     1      16.545  67.766  18.661  1.00  0.00     0.070 A 
ENDBRANCH  34  35
ENDBRANCH  33  34
ENDBRANCH  30  33
ENDBRANCH   1  26
TORSDOF 11
ENDMDL
MODEL 3
REMARK VINA RESULT: -9.578779046      5.369      8.856
REMARK  11 active torsions:
REMARK  status: ('A' for Active; 'I' for Inactive)
REMARK    1  A    between atoms: C2_2  and  C3_4 
REMARK    2  A    between atoms: C8_10  and  C9_11 
REMARK    3  A    between atoms: C9_11  and  O3_12 
REMARK    4  A    between atoms: C9_11  and  N1_14 
REMARK    5  A    between atoms: N1_14  and  C10_15 
REMARK    6  A    between atoms: N1_14  and  C19_26 
REMARK    7  A    between atoms: C10_15  and  S1_16 
REMARK    8  A    between atoms: S1_16  and  C11_17 
REMARK    9  A    between atoms: C20_31  and  C21_32 
REMARK   10  A    between atoms: C21_32  and  C22_33 
REMARK   11  A    between atoms: C22_33  and  C23_34 
ROOT
HETATM    1  N1  UNL     1      17.347  63.888  26.804  1.00  0.00    -0.296 N 
ENDROOT
BRANCH   1   2
HETATM    2  C9  UNL     1      18.254  64.089  27.843  1.00  0.00     0.159 C 
BRANCH   2   3
HETATM    3  C8  UNL     1      18.655  65.249  28.581  1.00  0.00     0.061 A 
HETATM    4  C3  UNL     1      18.137  65.553  29.854  1.00  0.00     0.056 A 
HETATM    5  C4  UNL     1      18.822  66.654  30.287  1.00  0.00     0.064 A 
HETATM    6  C5  UNL     1      18.633  67.367  31.598  1.00  0.00     0.077 C 
HETATM    7  O2  UNL     1      19.678  66.996  29.380  1.00  0.00    -0.318 OA
HETATM    8  C6  UNL     1      19.626  66.184  28.325  1.00  0.00     0.065 A 
HETATM    9  C7  UNL     1      20.526  66.350  27.129  1.00  0.00     0.077 C 
BRANCH   4  10
HETATM   10  C2  UNL     1      17.090  64.887  30.611  1.00  0.00     0.159 C 
HETATM   11  C1  UNL     1      17.466  63.968  31.729  1.00  0.00     0.097 C 
HETATM   12  O1  UNL     1      15.889  65.052  30.365  1.00  0.00    -0.293 OA
ENDBRANCH   4  10
ENDBRANCH   2   3
BRANCH   2  13
HETATM   13  O3  UNL     1      18.848  62.977  28.196  1.00  0.00    -0.345 OA
ATOM     14  H3  UNL     1      18.798  62.275  27.557  1.00  0.00     0.219 HD
ENDBRANCH   2  13
ENDBRANCH   1   2
BRANCH   1  15
HETATM   15  C10 UNL     1      17.636  64.173  25.417  1.00  0.00     0.212 C 
BRANCH  15  16
HETATM   16  S1  UNL     1      19.317  63.531  24.998  1.00  0.00    -0.110 SA
BRANCH  16  17
HETATM   17  C11 UNL     1      19.211  61.765  24.786  1.00  0.00     0.002 A 
HETATM   18  C12 UNL     1      18.641  61.200  23.669  1.00  0.00     0.021 A 
HETATM   19  C13 UNL     1      18.549  59.836  23.487  1.00  0.00     0.038 A 
HETATM   20  C14 UNL     1      19.041  58.986  24.449  1.00  0.00     0.075 A 
HETATM   21  C15 UNL     1      19.617  59.521  25.575  1.00  0.00    -0.021 A 
HETATM   22  O4  UNL     1      19.093  57.590  24.549  1.00  0.00    -0.350 OA
HETATM   23  C16 UNL     1      19.700  60.906  25.742  1.00  0.00     0.028 A 
HETATM   24  C17 UNL     1      20.057  58.398  26.435  1.00  0.00     0.068 C 
HETATM   25  C18 UNL     1      20.113  57.243  25.470  1.00  0.00     0.180 C 
ENDBRANCH  16  17
ENDBRANCH  15  16
ENDBRANCH   1  15
BRANCH   1  26
HETATM   26  C19 UNL     1      15.978  63.568  27.178  1.00  0.00     0.170 A 
HETATM   27  N2  UNL     1      15.614  62.852  28.228  1.00  0.00    -0.279 N 
HETATM   28  N3  UNL     1      14.385  62.641  28.447  1.00  0.00    -0.296 N 
ATOM     29  H2  UNL     1      16.320  62.472  28.859  1.00  0.00     0.189 HD
HETATM   30  C20 UNL     1      13.472  63.140  27.622  1.00  0.00     0.070 A 
ATOM     31  H3  UNL     1      14.097  62.088  29.254  1.00  0.00     0.187 HD
HETATM   32  S3  UNL     1      14.475  63.948  26.484  1.00  0.00    -0.038 SA
BRANCH  30  33
HETATM   33  C21 UNL     1      11.978  63.024  27.676  1.00  0.00     0.071 C 
BRANCH  33  34
HETATM   34  C22 UNL     1      11.637  61.592  27.892  1.00  0.00     0.045 C 
BRANCH  34  35
HETATM   35  C23 UNL     1      10.783  61.491  29.133  1.00  0.00    -0.050 A 
HETATM   36  C24 UNL     1      10.226  60.260  29.387  1.00  0.00     0.057 A 
HETATM   37  C25 UNL     1       9.420  59.957  30.457  1.00  0.00     0.161 A 
HETATM   38  F1  UNL     1       8.896  58.716  30.657  1.00  0.00    -0.198 F 
HETATM   39  S2  UNL     1       9.114  61.253  31.535  1.00  0.00    -0.018 SA
HETATM   40  C26 UNL     1       9.890  62.702  31.056  1.00  0.00     0.216 A 
HETATM   41  O5  UNL     1       9.774  63.759  31.734  1.00  0.00    -0.280 OA
HETATM   42  C27 UNL     1      10.620  62.611  29.910  1.00  0.00     0.070 A 
ENDBRANCH  34  35
ENDBRANCH  33  34
ENDBRANCH  30  33
ENDBRANCH   1  26
TORSDOF 11
ENDMDL
MODEL 4
REMARK VINA RESULT: -9.513773902      1.295      1.410
REMARK  11 active torsions:
REMARK  status: ('A' for Active; 'I' for Inactive)
REMARK    1  A    between atoms: C2_2  and  C3_4 
REMARK    2  A    between atoms: C8_10  and  C9_11 
REMARK    3  A    between atoms: C9_11  and  O3_12 
REMARK    4  A    between atoms: C9_11  and  N1_14 
REMARK    5  A    between atoms: N1_14  and  C10_15 
REMARK    6  A    between atoms: N1_14  and  C19_26 
REMARK    7  A    between atoms: C10_15  and  S1_16 
REMARK    8  A    between atoms: S1_16  and  C11_17 
REMARK    9  A    between atoms: C20_31  and  C21_32 
REMARK   10  A    between atoms: C21_32  and  C22_33 
REMARK   11  A    between atoms: C22_33  and  C23_34 
ROOT
HETATM    1  N1  UNL     1      16.085  63.115  24.769  1.00  0.00    -0.296 N 
ENDROOT
BRANCH   1   2
HETATM    2  C9  UNL     1      17.120  62.805  25.648  1.00  0.00     0.159 C 
BRANCH   2   3
HETATM    3  C8  UNL     1      18.515  63.123  25.669  1.00  0.00     0.061 A 
HETATM    4  C3  UNL     1      18.993  64.424  25.913  1.00  0.00     0.056 A 
HETATM    5  C4  UNL     1      20.355  64.323  25.964  1.00  0.00     0.064 A 
HETATM    6  C5  UNL     1      21.327  65.446  26.202  1.00  0.00     0.077 C 
HETATM    7  O2  UNL     1      20.690  63.088  25.774  1.00  0.00    -0.318 OA
HETATM    8  C6  UNL     1      19.621  62.314  25.591  1.00  0.00     0.065 A 
HETATM    9  C7  UNL     1      19.726  60.828  25.360  1.00  0.00     0.077 C 
BRANCH   4  10
HETATM   10  C2  UNL     1      18.254  65.664  26.083  1.00  0.00     0.159 C 
HETATM   11  C1  UNL     1      17.710  66.015  27.430  1.00  0.00     0.097 C 
HETATM   12  O1  UNL     1      18.056  66.448  25.147  1.00  0.00    -0.293 OA
ENDBRANCH   4  10
ENDBRANCH   2   3
BRANCH   2  13
HETATM   13  O3  UNL     1      16.706  62.069  26.650  1.00  0.00    -0.345 OA
ATOM     14  H3  UNL     1      16.869  61.138  26.559  1.00  0.00     0.219 HD
ENDBRANCH   2  13
ENDBRANCH   1   2
BRANCH   1  15
HETATM   15  C10 UNL     1      14.697  62.793  25.011  1.00  0.00     0.212 C 
BRANCH  15  16
HETATM   16  S1  UNL     1      13.978  64.031  26.180  1.00  0.00    -0.110 SA
BRANCH  16  17
HETATM   17  C11 UNL     1      13.267  63.158  27.560  1.00  0.00     0.002 A 
HETATM   18  C12 UNL     1      13.781  63.264  28.831  1.00  0.00     0.021 A 
HETATM   19  C13 UNL     1      13.245  62.596  29.912  1.00  0.00     0.038 A 
HETATM   20  C14 UNL     1      12.151  61.784  29.736  1.00  0.00     0.075 A 
HETATM   21  C15 UNL     1      11.613  61.658  28.478  1.00  0.00    -0.021 A 
HETATM   22  O4  UNL     1      11.399  60.995  30.616  1.00  0.00    -0.350 OA
HETATM   23  C16 UNL     1      12.171  62.343  27.396  1.00  0.00     0.028 A 
HETATM   24  C17 UNL     1      10.457  60.737  28.570  1.00  0.00     0.068 C 
HETATM   25  C18 UNL     1      10.125  60.766  30.038  1.00  0.00     0.180 C 
ENDBRANCH  16  17
ENDBRANCH  15  16
ENDBRANCH   1  15
BRANCH   1  26
HETATM   26  C19 UNL     1      16.465  63.606  23.452  1.00  0.00     0.170 A 
HETATM   27  N2  UNL     1      17.441  63.124  22.703  1.00  0.00    -0.279 N 
HETATM   28  N3  UNL     1      17.676  63.640  21.571  1.00  0.00    -0.296 N 
ATOM     29  H2  UNL     1      18.002  62.340  23.036  1.00  0.00     0.189 HD
HETATM   30  C20 UNL     1      16.939  64.660  21.144  1.00  0.00     0.070 A 
ATOM     31  H3  UNL     1      18.429  63.274  20.989  1.00  0.00     0.187 HD
HETATM   32  S3  UNL     1      15.865  64.856  22.472  1.00  0.00    -0.038 SA
BRANCH  30  33
HETATM   33  C21 UNL     1      17.029  65.423  19.857  1.00  0.00     0.071 C 
BRANCH  33  34
HETATM   34  C22 UNL     1      15.665  65.480  19.263  1.00  0.00     0.045 C 
BRANCH  34  35
HETATM   35  C23 UNL     1      15.475  66.845  18.646  1.00  0.00    -0.050 A 
HETATM   36  C24 UNL     1      16.576  67.668  18.644  1.00  0.00     0.057 A 
HETATM   37  C25 UNL     1      16.615  68.943  18.135  1.00  0.00     0.161 A 
HETATM   38  F1  UNL     1      17.739  69.712  18.160  1.00  0.00    -0.198 F 
HETATM   39  S2  UNL     1      15.146  69.508  17.459  1.00  0.00    -0.018 SA
HETATM   40  C26 UNL     1      13.891  68.347  17.553  1.00  0.00     0.216 A 
HETATM   41  O5  UNL     1      12.739  68.595  17.103  1.00  0.00    -0.280 OA
HETATM   42  C27 UNL     1      14.241  67.170  18.140  1.00  0.00     0.070 A 
ENDBRANCH  34  35
ENDBRANCH  33  34
ENDBRANCH  30  33
ENDBRANCH   1  26
TORSDOF 11
ENDMDL
MODEL 5
REMARK VINA RESULT: -9.384816654      1.520      2.666
REMARK  11 active torsions:
REMARK  status: ('A' for Active; 'I' for Inactive)
REMARK    1  A    between atoms: C2_2  and  C3_4 
REMARK    2  A    between atoms: C8_10  and  C9_11 
REMARK    3  A    between atoms: C9_11  and  O3_12 
REMARK    4  A    between atoms: C9_11  and  N1_14 
REMARK    5  A    between atoms: N1_14  and  C10_15 
REMARK    6  A    between atoms: N1_14  and  C19_26 
REMARK    7  A    between atoms: C10_15  and  S1_16 
REMARK    8  A    between atoms: S1_16  and  C11_17 
REMARK    9  A    between atoms: C20_31  and  C21_32 
REMARK   10  A    between atoms: C21_32  and  C22_33 
REMARK   11  A    between atoms: C22_33  and  C23_34 
ROOT
HETATM    1  N1  UNL     1      16.435  63.822  23.999  1.00  0.00    -0.296 N 
ENDROOT
BRANCH   1   2
HETATM    2  C9  UNL     1      17.718  63.704  24.531  1.00  0.00     0.159 C 
BRANCH   2   3
HETATM    3  C8  UNL     1      18.349  62.718  25.355  1.00  0.00     0.061 A 
HETATM    4  C3  UNL     1      18.797  61.483  24.850  1.00  0.00     0.056 A 
HETATM    5  C4  UNL     1      19.434  60.860  25.887  1.00  0.00     0.064 A 
HETATM    6  C5  UNL     1      20.089  59.506  25.851  1.00  0.00     0.077 C 
HETATM    7  O2  UNL     1      19.389  61.629  26.927  1.00  0.00    -0.318 OA
HETATM    8  C6  UNL     1      18.747  62.767  26.667  1.00  0.00     0.065 A 
HETATM    9  C7  UNL     1      18.561  63.847  27.701  1.00  0.00     0.077 C 
BRANCH   4  10
HETATM   10  C2  UNL     1      18.648  60.918  23.520  1.00  0.00     0.159 C 
HETATM   11  C1  UNL     1      18.287  59.474  23.372  1.00  0.00     0.097 C 
HETATM   12  O1  UNL     1      18.809  61.590  22.494  1.00  0.00    -0.293 OA
ENDBRANCH   4  10
ENDBRANCH   2   3
BRANCH   2  13
HETATM   13  O3  UNL     1      18.481  64.715  24.196  1.00  0.00    -0.345 OA
ATOM     14  H3  UNL     1      18.801  64.696  23.301  1.00  0.00     0.219 HD
ENDBRANCH   2  13
ENDBRANCH   1   2
BRANCH   1  15
HETATM   15  C10 UNL     1      15.248  63.300  24.635  1.00  0.00     0.212 C 
BRANCH  15  16
HETATM   16  S1  UNL     1      14.639  64.517  25.884  1.00  0.00    -0.110 SA
BRANCH  16  17
HETATM   17  C11 UNL     1      13.931  63.619  27.250  1.00  0.00     0.002 A 
HETATM   18  C12 UNL     1      14.476  63.668  28.513  1.00  0.00     0.021 A 
HETATM   19  C13 UNL     1      13.943  62.980  29.582  1.00  0.00     0.038 A 
HETATM   20  C14 UNL     1      12.822  62.206  29.404  1.00  0.00     0.075 A 
HETATM   21  C15 UNL     1      12.255  62.137  28.155  1.00  0.00    -0.021 A 
HETATM   22  O4  UNL     1      12.067  61.409  30.274  1.00  0.00    -0.350 OA
HETATM   23  C16 UNL     1      12.809  62.842  27.083  1.00  0.00     0.028 A 
HETATM   24  C17 UNL     1      11.075  61.246  28.242  1.00  0.00     0.068 C 
HETATM   25  C18 UNL     1      10.775  61.236  29.717  1.00  0.00     0.180 C 
ENDBRANCH  16  17
ENDBRANCH  15  16
ENDBRANCH   1  15
BRANCH   1  26
HETATM   26  C19 UNL     1      16.332  64.320  22.635  1.00  0.00     0.170 A 
HETATM   27  N2  UNL     1      17.005  63.861  21.595  1.00  0.00    -0.279 N 
HETATM   28  N3  UNL     1      16.828  64.380  20.454  1.00  0.00    -0.296 N 
ATOM     29  H2  UNL     1      17.665  63.091  21.710  1.00  0.00     0.189 HD
HETATM   30  C20 UNL     1      15.966  65.381  20.311  1.00  0.00     0.070 A 
ATOM     31  H3  UNL     1      17.345  64.032  19.647  1.00  0.00     0.187 HD
HETATM   32  S3  UNL     1      15.404  65.553  21.926  1.00  0.00    -0.038 SA
BRANCH  30  33
HETATM   33  C21 UNL     1      15.593  66.144  19.075  1.00  0.00     0.071 C 
BRANCH  33  34
HETATM   34  C22 UNL     1      15.656  67.596  19.397  1.00  0.00     0.045 C 
BRANCH  34  35
HETATM   35  C23 UNL     1      14.245  68.130  19.452  1.00  0.00    -0.050 A 
HETATM   36  C24 UNL     1      13.537  68.095  18.275  1.00  0.00     0.057 A 
HETATM   37  C25 UNL     1      12.245  68.530  18.109  1.00  0.00     0.161 A 
HETATM   38  F1  UNL     1      11.594  68.469  16.915  1.00  0.00    -0.198 F 
HETATM   39  S2  UNL     1      11.498  69.160  19.517  1.00  0.00    -0.018 SA
HETATM   40  C26 UNL     1      12.531  69.122  20.880  1.00  0.00     0.216 A 
HETATM   41  O5  UNL     1      12.144  69.548  22.003  1.00  0.00    -0.280 OA
HETATM   42  C27 UNL     1      13.770  68.607  20.649  1.00  0.00     0.070 A 
ENDBRANCH  34  35
ENDBRANCH  33  34
ENDBRANCH  30  33
ENDBRANCH   1  26
TORSDOF 11
ENDMDL
