MODEL 1
REMARK VINA RESULT: -8.584268549      0.000      0.000
REMARK  10 active torsions:
REMARK  status: ('A' for Active; 'I' for Inactive)
REMARK       I    between atoms: C1_2  and  N1_3 
REMARK    1  A    between atoms: C1_2  and  S2_28 
REMARK    2  A    between atoms: N1_3  and  C2_5 
REMARK    3  A    between atoms: C5_8  and  N2_9 
REMARK    4  A    between atoms: C6_10  and  S1_11 
REMARK    5  A    between atoms: S1_11  and  C7_12 
REMARK    6  A    between atoms: C7_12  and  C8_13 
REMARK    7  A    between atoms: C8_13  and  C9_14 
REMARK    8  A    between atoms: S2_28  and  C18_29 
REMARK    9  A    between atoms: C20_31  and  C21_32 
REMARK   10  A    between atoms: C21_32  and  C22_33 
ROOT
HETATM    1  C2  UNL     1      15.260  63.671  30.255  1.00  0.00     0.038 A 
HETATM    2  C3  UNL     1      14.185  64.559  30.154  1.00  0.00     0.032 A 
HETATM    3  C4  UNL     1      13.016  64.180  30.763  1.00  0.00     0.036 A 
HETATM    4  C5  UNL     1      12.931  62.995  31.426  1.00  0.00     0.085 A 
HETATM    5  C16 UNL     1      13.957  62.119  31.541  1.00  0.00     0.145 A 
HETATM    6  F1  UNL     1      13.981  60.942  32.204  1.00  0.00    -0.204 F 
HETATM    7  C17 UNL     1      15.152  62.498  30.925  1.00  0.00     0.074 A 
ENDROOT
BRANCH   1   8
HETATM    8  N1  UNL     1      16.520  63.959  29.673  1.00  0.00    -0.318 N 
HETATM    9  C1  UNL     1      17.505  64.686  30.357  1.00  0.00     0.289 C 
HETATM   10  O1  UNL     1      17.247  65.112  31.517  1.00  0.00    -0.260 OA
ATOM     11  H1  UNL     1      16.716  63.628  28.728  1.00  0.00     0.169 HD
BRANCH   9  12
HETATM   12  S2  UNL     1      19.077  64.990  29.533  1.00  0.00    -0.017 SA
BRANCH  12  13
HETATM   13  C18 UNL     1      19.181  64.189  27.963  1.00  0.00     0.106 C 
HETATM   14  C19 UNL     1      19.903  63.197  27.564  1.00  0.00     0.047 C 
HETATM   15  C20 UNL     1      19.730  62.781  26.175  1.00  0.00     0.004 C 
HETATM   16  C27 UNL     1      19.408  64.008  25.349  1.00  0.00     0.193 C 
HETATM   17  S3  UNL     1      18.188  64.658  26.563  1.00  0.00     0.186 S 
HETATM   18  O4  UNL     1      18.030  66.096  26.394  1.00  0.00    -0.222 OA
HETATM   19  O5  UNL     1      16.974  63.833  26.591  1.00  0.00    -0.222 OA
BRANCH  15  20
HETATM   20  C21 UNL     1      19.660  61.536  25.773  1.00  0.00    -0.113 C 
BRANCH  20  21
HETATM   21  C22 UNL     1      19.608  60.293  25.407  1.00  0.00    -0.009 C 
HETATM   22  C23 UNL     1      18.667  60.676  24.078  1.00  0.00     0.074 C 
HETATM   23  C24 UNL     1      18.385  59.531  23.363  1.00  0.00    -0.021 C 
HETATM   24  C25 UNL     1      19.345  58.685  23.779  1.00  0.00    -0.003 C 
HETATM   25  C26 UNL     1      19.534  58.971  24.981  1.00  0.00     0.015 C 
ENDBRANCH  20  21
ENDBRANCH  15  20
ENDBRANCH  12  13
ENDBRANCH   9  12
ENDBRANCH   1   8
BRANCH   4  26
HETATM   26  N2  UNL     1      11.688  62.654  32.060  1.00  0.00    -0.231 N 
HETATM   27  C6  UNL     1      10.694  61.848  31.710  1.00  0.00     0.176 A 
HETATM   28  N3  UNL     1       9.797  61.914  32.710  1.00  0.00    -0.233 N 
HETATM   29  O2  UNL     1      10.204  62.713  33.638  1.00  0.00    -0.178 OA
ATOM     30  H3  UNL     1       8.915  61.402  32.732  1.00  0.00     0.197 HD
HETATM   31  C15 UNL     1      11.360  63.186  33.278  1.00  0.00     0.396 A 
HETATM   32  O3  UNL     1      12.050  63.984  33.934  1.00  0.00    -0.235 OA
BRANCH  27  33
HETATM   33  S1  UNL     1      10.526  60.850  30.268  1.00  0.00    -0.091 SA
BRANCH  33  34
HETATM   34  C7  UNL     1      10.422  61.749  28.738  1.00  0.00     0.087 C 
BRANCH  34  35
HETATM   35  C8  UNL     1      11.816  61.623  28.096  1.00  0.00     0.049 C 
BRANCH  35  36
HETATM   36  C9  UNL     1      12.127  62.959  27.565  1.00  0.00    -0.057 A 
HETATM   37  C10 UNL     1      13.299  63.166  26.863  1.00  0.00     0.007 A 
HETATM   38  C11 UNL     1      13.621  64.412  26.339  1.00  0.00     0.001 A 
HETATM   39  C12 UNL     1      12.740  65.452  26.540  1.00  0.00     0.000 A 
HETATM   40  C13 UNL     1      11.551  65.227  27.258  1.00  0.00     0.001 A 
HETATM   41  C14 UNL     1      11.229  64.007  27.768  1.00  0.00     0.007 A 
ENDBRANCH  35  36
ENDBRANCH  34  35
ENDBRANCH  33  34
ENDBRANCH  27  33
ENDBRANCH   4  26
TORSDOF 10
ENDMDL
MODEL 2
REMARK VINA RESULT: -8.499717233      5.639      8.902
REMARK  10 active torsions:
REMARK  status: ('A' for Active; 'I' for Inactive)
REMARK       I    between atoms: C1_2  and  N1_3 
REMARK    1  A    between atoms: C1_2  and  S2_28 
REMARK    2  A    between atoms: N1_3  and  C2_5 
REMARK    3  A    between atoms: C5_8  and  N2_9 
REMARK    4  A    between atoms: C6_10  and  S1_11 
REMARK    5  A    between atoms: S1_11  and  C7_12 
REMARK    6  A    between atoms: C7_12  and  C8_13 
REMARK    7  A    between atoms: C8_13  and  C9_14 
REMARK    8  A    between atoms: S2_28  and  C18_29 
REMARK    9  A    between atoms: C20_31  and  C21_32 
REMARK   10  A    between atoms: C21_32  and  C22_33 
ROOT
HETATM    1  C2  UNL     1      16.627  64.614  23.431  1.00  0.00     0.038 A 
HETATM    2  C3  UNL     1      17.023  65.711  24.203  1.00  0.00     0.032 A 
HETATM    3  C4  UNL     1      17.419  65.445  25.489  1.00  0.00     0.036 A 
HETATM    4  C5  UNL     1      17.416  64.171  25.967  1.00  0.00     0.085 A 
HETATM    5  C16 UNL     1      17.039  63.093  25.240  1.00  0.00     0.145 A 
HETATM    6  F1  UNL     1      17.035  61.793  25.611  1.00  0.00    -0.204 F 
HETATM    7  C17 UNL     1      16.637  63.354  23.928  1.00  0.00     0.074 A 
ENDROOT
BRANCH   1   8
HETATM    8  N1  UNL     1      16.206  64.766  22.085  1.00  0.00    -0.318 N 
HETATM    9  C1  UNL     1      17.092  64.616  21.009  1.00  0.00     0.289 C 
HETATM   10  O1  UNL     1      18.305  64.362  21.253  1.00  0.00    -0.260 OA
ATOM     11  H1  UNL     1      15.229  64.990  21.894  1.00  0.00     0.169 HD
BRANCH   9  12
HETATM   12  S2  UNL     1      16.456  64.819  19.336  1.00  0.00    -0.017 SA
BRANCH  12  13
HETATM   13  C18 UNL     1      16.019  66.492  18.980  1.00  0.00     0.106 C 
HETATM   14  C19 UNL     1      14.990  66.989  18.381  1.00  0.00     0.047 C 
HETATM   15  C20 UNL     1      14.945  68.444  18.260  1.00  0.00     0.004 C 
HETATM   16  C27 UNL     1      16.363  68.952  18.115  1.00  0.00     0.193 C 
HETATM   17  S3  UNL     1      17.017  67.884  19.463  1.00  0.00     0.186 S 
HETATM   18  O4  UNL     1      18.449  67.683  19.294  1.00  0.00    -0.222 OA
HETATM   19  O5  UNL     1      16.537  68.332  20.776  1.00  0.00    -0.222 OA
BRANCH  15  20
HETATM   20  C21 UNL     1      13.876  69.176  18.459  1.00  0.00    -0.113 C 
BRANCH  20  21
HETATM   21  C22 UNL     1      12.822  69.913  18.621  1.00  0.00    -0.009 C 
HETATM   22  C23 UNL     1      11.973  68.633  19.285  1.00  0.00     0.074 C 
HETATM   23  C24 UNL     1      10.703  69.047  19.629  1.00  0.00    -0.021 C 
HETATM   24  C25 UNL     1      10.842  70.383  19.701  1.00  0.00    -0.003 C 
HETATM   25  C26 UNL     1      11.673  70.673  18.812  1.00  0.00     0.015 C 
ENDBRANCH  20  21
ENDBRANCH  15  20
ENDBRANCH  12  13
ENDBRANCH   9  12
ENDBRANCH   1   8
BRANCH   4  26
HETATM   26  N2  UNL     1      17.855  63.946  27.316  1.00  0.00    -0.231 N 
HETATM   27  C6  UNL     1      17.201  63.821  28.463  1.00  0.00     0.176 A 
HETATM   28  N3  UNL     1      18.140  63.604  29.401  1.00  0.00    -0.233 N 
HETATM   29  O2  UNL     1      19.317  63.589  28.874  1.00  0.00    -0.178 OA
ATOM     30  H3  UNL     1      17.947  63.469  30.394  1.00  0.00     0.197 HD
HETATM   31  C15 UNL     1      19.186  63.793  27.597  1.00  0.00     0.396 A 
HETATM   32  O3  UNL     1      20.114  63.838  26.774  1.00  0.00    -0.235 OA
BRANCH  27  33
HETATM   33  S1  UNL     1      15.466  63.889  28.768  1.00  0.00    -0.091 SA
BRANCH  33  34
HETATM   34  C7  UNL     1      14.560  62.438  28.285  1.00  0.00     0.087 C 
BRANCH  34  35
HETATM   35  C8  UNL     1      13.158  62.944  27.902  1.00  0.00     0.049 C 
BRANCH  35  36
HETATM   36  C9  UNL     1      12.217  62.118  28.675  1.00  0.00    -0.057 A 
HETATM   37  C10 UNL     1      11.243  61.387  28.021  1.00  0.00     0.007 A 
HETATM   38  C11 UNL     1      10.344  60.590  28.718  1.00  0.00     0.001 A 
HETATM   39  C12 UNL     1      10.440  60.544  30.092  1.00  0.00     0.000 A 
HETATM   40  C13 UNL     1      11.436  61.294  30.744  1.00  0.00     0.001 A 
HETATM   41  C14 UNL     1      12.321  62.073  30.065  1.00  0.00     0.007 A 
ENDBRANCH  35  36
ENDBRANCH  34  35
ENDBRANCH  33  34
ENDBRANCH  27  33
ENDBRANCH   4  26
TORSDOF 10
ENDMDL
MODEL 3
REMARK VINA RESULT: -8.471015508      6.249     10.321
REMARK  10 active torsions:
REMARK  status: ('A' for Active; 'I' for Inactive)
REMARK       I    between atoms: C1_2  and  N1_3 
REMARK    1  A    between atoms: C1_2  and  S2_28 
REMARK    2  A    between atoms: N1_3  and  C2_5 
REMARK    3  A    between atoms: C5_8  and  N2_9 
REMARK    4  A    between atoms: C6_10  and  S1_11 
REMARK    5  A    between atoms: S1_11  and  C7_12 
REMARK    6  A    between atoms: C7_12  and  C8_13 
REMARK    7  A    between atoms: C8_13  and  C9_14 
REMARK    8  A    between atoms: S2_28  and  C18_29 
REMARK    9  A    between atoms: C20_31  and  C21_32 
REMARK   10  A    between atoms: C21_32  and  C22_33 
ROOT
HETATM    1  C2  UNL     1      16.031  65.258  22.253  1.00  0.00     0.038 A 
HETATM    2  C3  UNL     1      16.515  64.851  21.006  1.00  0.00     0.032 A 
HETATM    3  C4  UNL     1      16.536  65.800  20.016  1.00  0.00     0.036 A 
HETATM    4  C5  UNL     1      16.100  67.066  20.258  1.00  0.00     0.085 A 
HETATM    5  C16 UNL     1      15.629  67.486  21.456  1.00  0.00     0.145 A 
HETATM    6  F1  UNL     1      15.210  68.723  21.803  1.00  0.00    -0.204 F 
HETATM    7  C17 UNL     1      15.607  66.527  22.472  1.00  0.00     0.074 A 
ENDROOT
BRANCH   1   8
HETATM    8  N1  UNL     1      15.971  64.367  23.354  1.00  0.00    -0.318 N 
HETATM    9  C1  UNL     1      17.061  64.176  24.215  1.00  0.00     0.289 C 
HETATM   10  O1  UNL     1      18.133  64.802  23.983  1.00  0.00    -0.260 OA
ATOM     11  H1  UNL     1      15.109  63.850  23.526  1.00  0.00     0.169 HD
BRANCH   9  12
HETATM   12  S2  UNL     1      16.880  63.029  25.592  1.00  0.00    -0.017 SA
BRANCH  12  13
HETATM   13  C18 UNL     1      15.345  63.234  26.441  1.00  0.00     0.106 C 
HETATM   14  C19 UNL     1      14.178  62.733  26.213  1.00  0.00     0.047 C 
HETATM   15  C20 UNL     1      13.112  63.118  27.134  1.00  0.00     0.004 C 
HETATM   16  C27 UNL     1      13.373  64.535  27.596  1.00  0.00     0.193 C 
HETATM   17  S3  UNL     1      15.164  64.240  27.897  1.00  0.00     0.186 S 
HETATM   18  O4  UNL     1      15.894  65.499  27.852  1.00  0.00    -0.222 OA
HETATM   19  O5  UNL     1      15.371  63.368  29.060  1.00  0.00    -0.222 OA
BRANCH  15  20
HETATM   20  C21 UNL     1      12.217  62.294  27.623  1.00  0.00    -0.113 C 
BRANCH  20  21
HETATM   21  C22 UNL     1      11.316  61.479  28.075  1.00  0.00    -0.009 C 
HETATM   22  C23 UNL     1      11.811  61.732  29.653  1.00  0.00     0.074 C 
HETATM   23  C24 UNL     1      11.026  60.989  30.510  1.00  0.00    -0.021 C 
HETATM   24  C25 UNL     1       9.935  60.741  29.764  1.00  0.00    -0.003 C 
HETATM   25  C26 UNL     1      10.360  60.612  28.595  1.00  0.00     0.015 C 
ENDBRANCH  20  21
ENDBRANCH  15  20
ENDBRANCH  12  13
ENDBRANCH   9  12
ENDBRANCH   1   8
BRANCH   4  26
HETATM   26  N2  UNL     1      16.158  68.025  19.190  1.00  0.00    -0.231 N 
HETATM   27  C6  UNL     1      15.330  68.308  18.194  1.00  0.00     0.176 A 
HETATM   28  N3  UNL     1      15.902  69.319  17.515  1.00  0.00    -0.233 N 
HETATM   29  O2  UNL     1      17.024  69.655  18.056  1.00  0.00    -0.178 OA
ATOM     30  H3  UNL     1      15.503  69.760  16.686  1.00  0.00     0.197 HD
HETATM   31  C15 UNL     1      17.216  68.887  19.087  1.00  0.00     0.396 A 
HETATM   32  O3  UNL     1      18.196  68.933  19.849  1.00  0.00    -0.235 OA
BRANCH  27  33
HETATM   33  S1  UNL     1      13.778  67.575  17.794  1.00  0.00    -0.091 SA
BRANCH  33  34
HETATM   34  C7  UNL     1      12.353  68.527  18.264  1.00  0.00     0.087 C 
BRANCH  34  35
HETATM   35  C8  UNL     1      12.616  68.963  19.716  1.00  0.00     0.049 C 
BRANCH  35  36
HETATM   36  C9  UNL     1      11.674  68.189  20.538  1.00  0.00    -0.057 A 
HETATM   37  C10 UNL     1      12.110  67.065  21.214  1.00  0.00     0.007 A 
HETATM   38  C11 UNL     1      11.250  66.315  22.006  1.00  0.00     0.001 A 
HETATM   39  C12 UNL     1       9.935  66.715  22.103  1.00  0.00     0.000 A 
HETATM   40  C13 UNL     1       9.504  67.861  21.409  1.00  0.00     0.001 A 
HETATM   41  C14 UNL     1      10.344  68.601  20.635  1.00  0.00     0.007 A 
ENDBRANCH  35  36
ENDBRANCH  34  35
ENDBRANCH  33  34
ENDBRANCH  27  33
ENDBRANCH   4  26
TORSDOF 10
ENDMDL
MODEL 4
REMARK VINA RESULT: -8.459833454      6.334     10.360
REMARK  10 active torsions:
REMARK  status: ('A' for Active; 'I' for Inactive)
REMARK       I    between atoms: C1_2  and  N1_3 
REMARK    1  A    between atoms: C1_2  and  S2_28 
REMARK    2  A    between atoms: N1_3  and  C2_5 
REMARK    3  A    between atoms: C5_8  and  N2_9 
REMARK    4  A    between atoms: C6_10  and  S1_11 
REMARK    5  A    between atoms: S1_11  and  C7_12 
REMARK    6  A    between atoms: C7_12  and  C8_13 
REMARK    7  A    between atoms: C8_13  and  C9_14 
REMARK    8  A    between atoms: S2_28  and  C18_29 
REMARK    9  A    between atoms: C20_31  and  C21_32 
REMARK   10  A    between atoms: C21_32  and  C22_33 
ROOT
HETATM    1  C2  UNL     1      15.944  65.520  22.368  1.00  0.00     0.038 A 
HETATM    2  C3  UNL     1      15.588  66.857  22.573  1.00  0.00     0.032 A 
HETATM    3  C4  UNL     1      15.669  67.688  21.485  1.00  0.00     0.036 A 
HETATM    4  C5  UNL     1      16.079  67.213  20.278  1.00  0.00     0.085 A 
HETATM    5  C16 UNL     1      16.427  65.923  20.053  1.00  0.00     0.145 A 
HETATM    6  F1  UNL     1      16.811  65.351  18.890  1.00  0.00    -0.204 F 
HETATM    7  C17 UNL     1      16.345  65.069  21.155  1.00  0.00     0.074 A 
ENDROOT
BRANCH   1   8
HETATM    8  N1  UNL     1      15.891  64.568  23.417  1.00  0.00    -0.318 N 
HETATM    9  C1  UNL     1      16.958  64.385  24.309  1.00  0.00     0.289 C 
HETATM   10  O1  UNL     1      18.003  65.076  24.153  1.00  0.00    -0.260 OA
ATOM     11  H1  UNL     1      15.052  63.999  23.527  1.00  0.00     0.169 HD
BRANCH   9  12
HETATM   12  S2  UNL     1      16.786  63.156  25.615  1.00  0.00    -0.017 SA
BRANCH  12  13
HETATM   13  C18 UNL     1      15.254  63.302  26.480  1.00  0.00     0.106 C 
HETATM   14  C19 UNL     1      14.092  62.800  26.234  1.00  0.00     0.047 C 
HETATM   15  C20 UNL     1      13.026  63.128  27.178  1.00  0.00     0.004 C 
HETATM   16  C27 UNL     1      13.274  64.524  27.706  1.00  0.00     0.193 C 
HETATM   17  S3  UNL     1      15.070  64.235  27.984  1.00  0.00     0.186 S 
HETATM   18  O4  UNL     1      15.785  65.502  27.996  1.00  0.00    -0.222 OA
HETATM   19  O5  UNL     1      15.292  63.310  29.103  1.00  0.00    -0.222 OA
BRANCH  15  20
HETATM   20  C21 UNL     1      12.143  62.272  27.631  1.00  0.00    -0.113 C 
BRANCH  20  21
HETATM   21  C22 UNL     1      11.264  61.447  28.109  1.00  0.00    -0.009 C 
HETATM   22  C23 UNL     1      11.795  61.716  29.673  1.00  0.00     0.074 C 
HETATM   23  C24 UNL     1      11.041  60.968  30.554  1.00  0.00    -0.021 C 
HETATM   24  C25 UNL     1       9.935  60.701  29.837  1.00  0.00    -0.003 C 
HETATM   25  C26 UNL     1      10.333  60.571  28.658  1.00  0.00     0.015 C 
ENDBRANCH  20  21
ENDBRANCH  15  20
ENDBRANCH  12  13
ENDBRANCH   9  12
ENDBRANCH   1   8
BRANCH   4  26
HETATM   26  N2  UNL     1      16.132  68.122  19.167  1.00  0.00    -0.231 N 
HETATM   27  C6  UNL     1      15.294  68.369  18.170  1.00  0.00     0.176 A 
HETATM   28  N3  UNL     1      15.866  69.341  17.438  1.00  0.00    -0.233 N 
HETATM   29  O2  UNL     1      17.000  69.688  17.948  1.00  0.00    -0.178 OA
ATOM     30  H3  UNL     1      15.461  69.748  16.596  1.00  0.00     0.197 HD
HETATM   31  C15 UNL     1      17.198  68.965  19.010  1.00  0.00     0.396 A 
HETATM   32  O3  UNL     1      18.189  69.034  19.755  1.00  0.00    -0.235 OA
BRANCH  27  33
HETATM   33  S1  UNL     1      13.728  67.636  17.826  1.00  0.00    -0.091 SA
BRANCH  33  34
HETATM   34  C7  UNL     1      12.320  68.591  18.341  1.00  0.00     0.087 C 
BRANCH  34  35
HETATM   35  C8  UNL     1      12.604  68.977  19.804  1.00  0.00     0.049 C 
BRANCH  35  36
HETATM   36  C9  UNL     1      11.673  68.174  20.611  1.00  0.00    -0.057 A 
HETATM   37  C10 UNL     1      12.124  67.042  21.261  1.00  0.00     0.007 A 
HETATM   38  C11 UNL     1      11.275  66.265  22.039  1.00  0.00     0.001 A 
HETATM   39  C12 UNL     1       9.955  66.648  22.148  1.00  0.00     0.000 A 
HETATM   40  C13 UNL     1       9.510  67.803  21.480  1.00  0.00     0.001 A 
HETATM   41  C14 UNL     1      10.339  68.570  20.721  1.00  0.00     0.007 A 
ENDBRANCH  35  36
ENDBRANCH  34  35
ENDBRANCH  33  34
ENDBRANCH  27  33
ENDBRANCH   4  26
TORSDOF 10
ENDMDL
MODEL 5
REMARK VINA RESULT: -8.354461423      6.791     10.805
REMARK  10 active torsions:
REMARK  status: ('A' for Active; 'I' for Inactive)
REMARK       I    between atoms: C1_2  and  N1_3 
REMARK    1  A    between atoms: C1_2  and  S2_28 
REMARK    2  A    between atoms: N1_3  and  C2_5 
REMARK    3  A    between atoms: C5_8  and  N2_9 
REMARK    4  A    between atoms: C6_10  and  S1_11 
REMARK    5  A    between atoms: S1_11  and  C7_12 
REMARK    6  A    between atoms: C7_12  and  C8_13 
REMARK    7  A    between atoms: C8_13  and  C9_14 
REMARK    8  A    between atoms: S2_28  and  C18_29 
REMARK    9  A    between atoms: C20_31  and  C21_32 
REMARK   10  A    between atoms: C21_32  and  C22_33 
ROOT
HETATM    1  C2  UNL     1      15.957  65.684  21.065  1.00  0.00     0.038 A 
HETATM    2  C3  UNL     1      16.020  65.372  19.704  1.00  0.00     0.032 A 
HETATM    3  C4  UNL     1      16.051  66.431  18.832  1.00  0.00     0.036 A 
HETATM    4  C5  UNL     1      16.019  67.710  19.292  1.00  0.00     0.085 A 
HETATM    5  C16 UNL     1      15.960  68.039  20.605  1.00  0.00     0.145 A 
HETATM    6  F1  UNL     1      15.960  69.272  21.159  1.00  0.00    -0.204 F 
HETATM    7  C17 UNL     1      15.931  66.967  21.500  1.00  0.00     0.074 A 
ENDROOT
BRANCH   1   8
HETATM    8  N1  UNL     1      15.929  64.673  22.059  1.00  0.00    -0.318 N 
HETATM    9  C1  UNL     1      17.094  64.019  22.485  1.00  0.00     0.289 C 
HETATM   10  O1  UNL     1      18.194  64.329  21.948  1.00  0.00    -0.260 OA
ATOM     11  H1  UNL     1      15.036  64.414  22.476  1.00  0.00     0.169 HD
BRANCH   9  12
HETATM   12  S2  UNL     1      16.953  62.756  23.762  1.00  0.00    -0.017 SA
BRANCH  12  13
HETATM   13  C18 UNL     1      15.796  63.197  25.020  1.00  0.00     0.106 C 
HETATM   14  C19 UNL     1      14.551  62.892  25.170  1.00  0.00     0.047 C 
HETATM   15  C20 UNL     1      13.884  63.434  26.350  1.00  0.00     0.004 C 
HETATM   16  C27 UNL     1      14.489  64.786  26.658  1.00  0.00     0.193 C 
HETATM   17  S3  UNL     1      16.219  64.204  26.424  1.00  0.00     0.186 S 
HETATM   18  O4  UNL     1      17.089  65.330  26.115  1.00  0.00    -0.222 OA
HETATM   19  O5  UNL     1      16.626  63.299  27.506  1.00  0.00    -0.222 OA
BRANCH  15  20
HETATM   20  C21 UNL     1      13.060  62.761  27.115  1.00  0.00    -0.113 C 
BRANCH  20  21
HETATM   21  C22 UNL     1      12.241  62.070  27.846  1.00  0.00    -0.009 C 
HETATM   22  C23 UNL     1      11.186  63.363  27.968  1.00  0.00     0.074 C 
HETATM   23  C24 UNL     1      10.090  62.998  28.721  1.00  0.00    -0.021 C 
HETATM   24  C25 UNL     1      10.123  61.655  28.650  1.00  0.00    -0.003 C 
HETATM   25  C26 UNL     1      11.338  61.359  28.629  1.00  0.00     0.015 C 
ENDBRANCH  20  21
ENDBRANCH  15  20
ENDBRANCH  12  13
ENDBRANCH   9  12
ENDBRANCH   1   8
BRANCH   4  26
HETATM   26  N2  UNL     1      16.069  68.783  18.338  1.00  0.00    -0.231 N 
HETATM   27  C6  UNL     1      15.127  69.436  17.673  1.00  0.00     0.176 A 
HETATM   28  N3  UNL     1      15.769  70.356  16.931  1.00  0.00    -0.233 N 
HETATM   29  O2  UNL     1      17.043  70.287  17.121  1.00  0.00    -0.178 OA
ATOM     30  H3  UNL     1      15.311  71.017  16.304  1.00  0.00     0.197 HD
HETATM   31  C15 UNL     1      17.268  69.336  17.978  1.00  0.00     0.396 A 
HETATM   32  O3  UNL     1      18.385  68.994  18.399  1.00  0.00    -0.235 OA
BRANCH  27  33
HETATM   33  S1  UNL     1      13.378  69.218  17.719  1.00  0.00    -0.091 SA
BRANCH  33  34
HETATM   34  C7  UNL     1      12.609  69.633  19.267  1.00  0.00     0.087 C 
BRANCH  34  35
HETATM   35  C8  UNL     1      11.203  69.008  19.202  1.00  0.00     0.049 C 
BRANCH  35  36
HETATM   36  C9  UNL     1      11.114  68.119  20.371  1.00  0.00    -0.057 A 
HETATM   37  C10 UNL     1      12.245  67.477  20.837  1.00  0.00     0.007 A 
HETATM   38  C11 UNL     1      12.199  66.638  21.944  1.00  0.00     0.001 A 
HETATM   39  C12 UNL     1      10.987  66.452  22.574  1.00  0.00     0.000 A 
HETATM   40  C13 UNL     1       9.843  67.112  22.087  1.00  0.00     0.001 A 
HETATM   41  C14 UNL     1       9.885  67.938  21.006  1.00  0.00     0.007 A 
ENDBRANCH  35  36
ENDBRANCH  34  35
ENDBRANCH  33  34
ENDBRANCH  27  33
ENDBRANCH   4  26
TORSDOF 10
ENDMDL
