MODEL 1
REMARK VINA RESULT: -9.469199267      0.000      0.000
REMARK  18 active torsions:
REMARK  status: ('A' for Active; 'I' for Inactive)
REMARK    1  A    between atoms: N1_1  and  C1_4 
REMARK    2  A    between atoms: C2_9  and  N4_10 
REMARK    3  A    between atoms: N4_10  and  C3_12 
REMARK    4  A    between atoms: C3_12  and  C4_13 
REMARK    5  A    between atoms: C4_13  and  C5_14 
REMARK    6  A    between atoms: C8_17  and  C9_18 
REMARK    7  A    between atoms: C10_19  and  C11_20 
REMARK    8  A    between atoms: C11_20  and  C12_21 
REMARK    9  A    between atoms: C11_20  and  C29_42 
REMARK   10  A    between atoms: C12_21  and  N5_22 
REMARK   11  A    between atoms: C15_25  and  C16_26 
REMARK   12  A    between atoms: C16_26  and  O1_27 
REMARK   13  A    between atoms: C16_26  and  N6_29 
REMARK   14  A    between atoms: N7_45  and  C32_46 
REMARK   15  A    between atoms: C32_46  and  C33_47 
REMARK   16  A    between atoms: C33_47  and  C34_48 
REMARK   17  A    between atoms: C34_48  and  C35_49 
REMARK   18  A    between atoms: C35_49  and  N8_50 
ROOT
HETATM    1  C11 UNL     1      11.421  66.933  21.487  1.00  0.00     0.135 C 
ENDROOT
BRANCH   1   2
HETATM    2  C10 UNL     1      12.292  66.009  22.264  1.00  0.00    -0.088 C 
HETATM    3  C9  UNL     1      13.021  65.302  22.906  1.00  0.00    -0.066 C 
BRANCH   3   4
HETATM    4  C8  UNL     1      13.925  64.502  23.696  1.00  0.00     0.017 A 
HETATM    5  C7  UNL     1      14.645  65.142  24.698  1.00  0.00     0.021 A 
HETATM    6  C6  UNL     1      15.552  64.446  25.456  1.00  0.00     0.009 A 
HETATM    7  C5  UNL     1      15.789  63.100  25.267  1.00  0.00    -0.057 A 
HETATM    8  C40 UNL     1      15.073  62.452  24.272  1.00  0.00     0.009 A 
HETATM    9  C39 UNL     1      14.153  63.167  23.504  1.00  0.00     0.021 A 
BRANCH   7  10
HETATM   10  C4  UNL     1      16.786  62.408  26.082  1.00  0.00     0.058 C 
BRANCH  10  11
HETATM   11  C3  UNL     1      18.188  62.568  25.523  1.00  0.00     0.142 C 
BRANCH  11  12
HETATM   12  N4  UNL     1      19.028  61.560  26.127  1.00  0.00    -0.224 N 
ATOM     13  H4  UNL     1      19.481  61.777  27.015  1.00  0.00     0.177 HD
BRANCH  12  14
HETATM   14  C2  UNL     1      19.234  60.410  25.608  1.00  0.00     0.707 A 
HETATM   15  N3  UNL     1      18.906  60.052  24.360  1.00  0.00    -0.117 N 
HETATM   16  N2  UNL     1      19.270  58.777  24.157  1.00  0.00    -0.118 N 
ATOM     17  H3  UNL     1      18.450  60.653  23.673  1.00  0.00     0.206 HD
HETATM   18  C1  UNL     1      19.827  58.364  25.304  1.00  0.00     0.705 A 
ATOM     19  H2  UNL     1      19.148  58.232  23.303  1.00  0.00     0.206 HD
HETATM   20  N12 UNL     1      19.813  59.362  26.215  1.00  0.00    -0.020 N 
ATOM     21  H12 UNL     1      20.170  59.327  27.170  1.00  0.00     0.203 HD
BRANCH  18  22
HETATM   22  N1  UNL     1      20.312  57.166  25.490  1.00  0.00    -0.233 N 
ATOM     23  H12 UNL     1      20.119  56.348  24.912  1.00  0.00     0.174 HD
ATOM     24  H11 UNL     1      20.944  56.919  26.251  1.00  0.00     0.174 HD
ENDBRANCH  18  22
ENDBRANCH  12  14
ENDBRANCH  11  12
ENDBRANCH  10  11
ENDBRANCH   7  10
ENDBRANCH   3   4
ENDBRANCH   1   2
BRANCH   1  25
HETATM   25  C12 UNL     1      10.931  68.080  22.349  1.00  0.00     0.151 C 
BRANCH  25  26
HETATM   26  N5  UNL     1      10.797  67.613  23.725  1.00  0.00    -0.365 N 
HETATM   27  C13 UNL     1       9.878  66.726  24.117  1.00  0.00     0.091 A 
HETATM   28  C14 UNL     1       9.776  66.309  25.404  1.00  0.00     0.033 A 
HETATM   29  C15 UNL     1      10.657  66.810  26.400  1.00  0.00     0.018 A 
HETATM   30  C27 UNL     1      11.588  67.717  25.972  1.00  0.00     0.033 A 
HETATM   31  C28 UNL     1      11.654  68.118  24.629  1.00  0.00     0.091 A 
BRANCH  29  32
HETATM   32  C16 UNL     1      10.567  66.257  27.724  1.00  0.00     0.152 C 
BRANCH  32  33
HETATM   33  O1  UNL     1       9.829  67.041  28.522  1.00  0.00    -0.345 OA
ATOM     34  H1  UNL     1       9.763  66.671  29.394  1.00  0.00     0.219 HD
ENDBRANCH  32  33
BRANCH  32  35
HETATM   35  N6  UNL     1      11.073  65.121  28.326  1.00  0.00    -0.341 N 
HETATM   36  C17 UNL     1      12.319  64.598  27.934  1.00  0.00     0.066 C 
HETATM   37  C18 UNL     1      12.351  63.360  27.102  1.00  0.00     0.050 C 
HETATM   38  C19 UNL     1      12.503  62.065  27.767  1.00  0.00    -0.005 C 
HETATM   39  C20 UNL     1      13.200  61.906  29.057  1.00  0.00     0.010 C 
HETATM   40  C25 UNL     1      11.274  61.468  28.358  1.00  0.00    -0.006 C 
HETATM   41  C21 UNL     1      11.888  61.536  29.718  1.00  0.00    -0.009 C 
HETATM   42  C22 UNL     1      11.263  62.675  30.453  1.00  0.00     0.011 C 
HETATM   43  C23 UNL     1      10.137  63.211  29.608  1.00  0.00     0.005 C 
HETATM   44  C24 UNL     1      10.079  62.356  28.384  1.00  0.00     0.011 C 
HETATM   45  C26 UNL     1      10.137  64.666  29.367  1.00  0.00     0.135 C 
ENDBRANCH  32  35
ENDBRANCH  29  32
ENDBRANCH  25  26
ENDBRANCH   1  25
BRANCH   1  46
HETATM   46  C29 UNL     1      12.273  67.458  20.366  1.00  0.00     0.045 A 
HETATM   47  C30 UNL     1      12.712  68.754  20.387  1.00  0.00     0.047 A 
HETATM   48  C31 UNL     1      13.490  69.257  19.337  1.00  0.00     0.113 A 
HETATM   49  N7  UNL     1      13.771  68.413  18.340  1.00  0.00    -0.289 N 
HETATM   50  N10 UNL     1      13.316  67.143  18.364  1.00  0.00    -0.241 N 
HETATM   51  N11 UNL     1      12.586  66.655  19.338  1.00  0.00    -0.289 N 
ATOM     52  H10 UNL     1      13.551  66.531  17.584  1.00  0.00     0.208 HD
ATOM     53  H11 UNL     1      12.263  65.688  19.315  1.00  0.00     0.188 HD
BRANCH  49  54
HETATM   54  C32 UNL     1      14.577  68.846  17.217  1.00  0.00     0.150 C 
BRANCH  54  55
HETATM   55  C33 UNL     1      15.718  69.718  17.726  1.00  0.00     0.023 C 
BRANCH  55  56
HETATM   56  C34 UNL     1      16.929  68.837  17.818  1.00  0.00     0.022 C 
BRANCH  56  57
HETATM   57  C35 UNL     1      17.169  68.384  19.231  1.00  0.00     0.129 C 
BRANCH  57  58
HETATM   58  N8  UNL     1      16.708  67.014  19.453  1.00  0.00    -0.352 N 
HETATM   59  C36 UNL     1      16.035  66.590  20.559  1.00  0.00     0.108 A 
HETATM   60  C37 UNL     1      15.761  65.262  20.430  1.00  0.00     0.106 A 
HETATM   61  N9  UNL     1      16.270  64.878  19.244  1.00  0.00    -0.361 N 
HETATM   62  C38 UNL     1      16.839  65.945  18.666  1.00  0.00     0.182 A 
ATOM     63  H9  UNL     1      16.231  63.936  18.854  1.00  0.00     0.166 HD
ENDBRANCH  57  58
ENDBRANCH  56  57
ENDBRANCH  55  56
ENDBRANCH  54  55
ENDBRANCH  49  54
ENDBRANCH   1  46
TORSDOF 18
ENDMDL
MODEL 2
REMARK VINA RESULT: -9.412976431      2.611      9.469
REMARK  18 active torsions:
REMARK  status: ('A' for Active; 'I' for Inactive)
REMARK    1  A    between atoms: N1_1  and  C1_4 
REMARK    2  A    between atoms: C2_9  and  N4_10 
REMARK    3  A    between atoms: N4_10  and  C3_12 
REMARK    4  A    between atoms: C3_12  and  C4_13 
REMARK    5  A    between atoms: C4_13  and  C5_14 
REMARK    6  A    between atoms: C8_17  and  C9_18 
REMARK    7  A    between atoms: C10_19  and  C11_20 
REMARK    8  A    between atoms: C11_20  and  C12_21 
REMARK    9  A    between atoms: C11_20  and  C29_42 
REMARK   10  A    between atoms: C12_21  and  N5_22 
REMARK   11  A    between atoms: C15_25  and  C16_26 
REMARK   12  A    between atoms: C16_26  and  O1_27 
REMARK   13  A    between atoms: C16_26  and  N6_29 
REMARK   14  A    between atoms: N7_45  and  C32_46 
REMARK   15  A    between atoms: C32_46  and  C33_47 
REMARK   16  A    between atoms: C33_47  and  C34_48 
REMARK   17  A    between atoms: C34_48  and  C35_49 
REMARK   18  A    between atoms: C35_49  and  N8_50 
ROOT
HETATM    1  C11 UNL     1      10.162  66.713  26.374  1.00  0.00     0.135 C 
ENDROOT
BRANCH   1   2
HETATM    2  C10 UNL     1      11.284  65.836  25.941  1.00  0.00    -0.088 C 
HETATM    3  C9  UNL     1      12.203  65.164  25.559  1.00  0.00    -0.066 C 
BRANCH   3   4
HETATM    4  C8  UNL     1      13.322  64.399  25.063  1.00  0.00     0.017 A 
HETATM    5  C7  UNL     1      13.873  64.779  23.845  1.00  0.00     0.021 A 
HETATM    6  C6  UNL     1      14.910  64.067  23.297  1.00  0.00     0.009 A 
HETATM    7  C5  UNL     1      15.449  62.960  23.918  1.00  0.00    -0.057 A 
HETATM    8  C40 UNL     1      14.908  62.574  25.135  1.00  0.00     0.009 A 
HETATM    9  C39 UNL     1      13.852  63.303  25.685  1.00  0.00     0.021 A 
BRANCH   7  10
HETATM   10  C4  UNL     1      16.536  62.217  23.282  1.00  0.00     0.058 C 
BRANCH  10  11
HETATM   11  C3  UNL     1      17.412  61.509  24.300  1.00  0.00     0.142 C 
BRANCH  11  12
HETATM   12  N4  UNL     1      17.996  60.353  23.659  1.00  0.00    -0.224 N 
ATOM     13  H4  UNL     1      17.805  60.201  22.669  1.00  0.00     0.177 HD
BRANCH  12  14
HETATM   14  C2  UNL     1      18.739  59.509  24.269  1.00  0.00     0.707 A 
HETATM   15  N3  UNL     1      18.992  58.260  23.859  1.00  0.00    -0.117 N 
HETATM   16  N2  UNL     1      19.809  57.665  24.741  1.00  0.00    -0.118 N 
ATOM     17  H3  UNL     1      18.622  57.829  23.012  1.00  0.00     0.206 HD
HETATM   18  C1  UNL     1      20.050  58.573  25.695  1.00  0.00     0.705 A 
ATOM     19  H2  UNL     1      20.174  56.713  24.694  1.00  0.00     0.206 HD
HETATM   20  N12 UNL     1      19.394  59.723  25.420  1.00  0.00    -0.020 N 
ATOM     21  H12 UNL     1      19.397  60.579  25.975  1.00  0.00     0.203 HD
BRANCH  18  22
HETATM   22  N1  UNL     1      20.816  58.359  26.731  1.00  0.00    -0.233 N 
ATOM     23  H12 UNL     1      21.253  57.471  26.976  1.00  0.00     0.174 HD
ATOM     24  H11 UNL     1      21.058  59.073  27.418  1.00  0.00     0.174 HD
ENDBRANCH  18  22
ENDBRANCH  12  14
ENDBRANCH  11  12
ENDBRANCH  10  11
ENDBRANCH   7  10
ENDBRANCH   3   4
ENDBRANCH   1   2
BRANCH   1  25
HETATM   25  C12 UNL     1       9.018  66.671  25.380  1.00  0.00     0.151 C 
BRANCH  25  26
HETATM   26  N5  UNL     1       9.480  67.206  24.104  1.00  0.00    -0.365 N 
HETATM   27  C13 UNL     1       9.830  68.483  23.922  1.00  0.00     0.091 A 
HETATM   28  C14 UNL     1      10.258  68.953  22.724  1.00  0.00     0.033 A 
HETATM   29  C15 UNL     1      10.351  68.090  21.598  1.00  0.00     0.018 A 
HETATM   30  C27 UNL     1       9.987  66.789  21.812  1.00  0.00     0.033 A 
HETATM   31  C28 UNL     1       9.551  66.349  23.071  1.00  0.00     0.091 A 
BRANCH  29  32
HETATM   32  C16 UNL     1      10.906  68.621  20.383  1.00  0.00     0.152 C 
BRANCH  32  33
HETATM   33  O1  UNL     1       9.964  69.235  19.654  1.00  0.00    -0.345 OA
ATOM     34  H1  UNL     1       9.646  68.666  18.962  1.00  0.00     0.219 HD
ENDBRANCH  32  33
BRANCH  32  35
HETATM   35  N6  UNL     1      12.170  68.623  19.826  1.00  0.00    -0.341 N 
HETATM   36  C17 UNL     1      12.397  69.201  18.564  1.00  0.00     0.066 C 
HETATM   37  C18 UNL     1      12.609  68.307  17.389  1.00  0.00     0.050 C 
HETATM   38  C19 UNL     1      13.978  67.967  16.998  1.00  0.00    -0.005 C 
HETATM   39  C20 UNL     1      15.127  68.856  17.257  1.00  0.00     0.010 C 
HETATM   40  C25 UNL     1      14.644  66.881  17.768  1.00  0.00    -0.006 C 
HETATM   41  C21 UNL     1      15.682  67.846  18.240  1.00  0.00    -0.009 C 
HETATM   42  C22 UNL     1      15.384  68.191  19.662  1.00  0.00     0.011 C 
HETATM   43  C23 UNL     1      14.256  67.308  20.127  1.00  0.00     0.005 C 
HETATM   44  C24 UNL     1      13.914  66.414  18.979  1.00  0.00     0.011 C 
HETATM   45  C26 UNL     1      13.114  67.990  20.763  1.00  0.00     0.135 C 
ENDBRANCH  32  35
ENDBRANCH  29  32
ENDBRANCH  25  26
ENDBRANCH   1  25
BRANCH   1  46
HETATM   46  C29 UNL     1       9.709  66.176  27.704  1.00  0.00     0.045 A 
HETATM   47  C30 UNL     1      10.111  66.784  28.861  1.00  0.00     0.047 A 
HETATM   48  C31 UNL     1       9.710  66.279  30.105  1.00  0.00     0.113 A 
HETATM   49  N7  UNL     1       8.930  65.194  30.089  1.00  0.00    -0.289 N 
HETATM   50  N10 UNL     1       8.560  64.629  28.921  1.00  0.00    -0.241 N 
HETATM   51  N11 UNL     1       8.926  65.088  27.748  1.00  0.00    -0.289 N 
ATOM     52  H10 UNL     1       7.965  63.802  28.952  1.00  0.00     0.208 HD
ATOM     53  H11 UNL     1       8.622  64.629  26.889  1.00  0.00     0.188 HD
BRANCH  49  54
HETATM   54  C32 UNL     1       8.462  64.609  31.328  1.00  0.00     0.150 C 
BRANCH  54  55
HETATM   55  C33 UNL     1       9.644  63.998  32.071  1.00  0.00     0.023 C 
BRANCH  55  56
HETATM   56  C34 UNL     1       9.323  62.546  32.275  1.00  0.00     0.022 C 
BRANCH  56  57
HETATM   57  C35 UNL     1       9.734  61.724  31.085  1.00  0.00     0.129 C 
BRANCH  57  58
HETATM   58  N8  UNL     1       9.014  60.452  31.024  1.00  0.00    -0.352 N 
HETATM   59  C36 UNL     1       7.838  60.192  31.659  1.00  0.00     0.108 A 
HETATM   60  C37 UNL     1       7.456  58.915  31.380  1.00  0.00     0.106 A 
HETATM   61  N9  UNL     1       8.401  58.397  30.574  1.00  0.00    -0.361 N 
HETATM   62  C38 UNL     1       9.336  59.336  30.367  1.00  0.00     0.182 A 
ATOM     63  H9  UNL     1       8.406  57.453  30.188  1.00  0.00     0.166 HD
ENDBRANCH  57  58
ENDBRANCH  56  57
ENDBRANCH  55  56
ENDBRANCH  54  55
ENDBRANCH  49  54
ENDBRANCH   1  46
TORSDOF 18
ENDMDL
MODEL 3
REMARK VINA RESULT: -9.364741059      2.189      8.887
REMARK  18 active torsions:
REMARK  status: ('A' for Active; 'I' for Inactive)
REMARK    1  A    between atoms: N1_1  and  C1_4 
REMARK    2  A    between atoms: C2_9  and  N4_10 
REMARK    3  A    between atoms: N4_10  and  C3_12 
REMARK    4  A    between atoms: C3_12  and  C4_13 
REMARK    5  A    between atoms: C4_13  and  C5_14 
REMARK    6  A    between atoms: C8_17  and  C9_18 
REMARK    7  A    between atoms: C10_19  and  C11_20 
REMARK    8  A    between atoms: C11_20  and  C12_21 
REMARK    9  A    between atoms: C11_20  and  C29_42 
REMARK   10  A    between atoms: C12_21  and  N5_22 
REMARK   11  A    between atoms: C15_25  and  C16_26 
REMARK   12  A    between atoms: C16_26  and  O1_27 
REMARK   13  A    between atoms: C16_26  and  N6_29 
REMARK   14  A    between atoms: N7_45  and  C32_46 
REMARK   15  A    between atoms: C32_46  and  C33_47 
REMARK   16  A    between atoms: C33_47  and  C34_48 
REMARK   17  A    between atoms: C34_48  and  C35_49 
REMARK   18  A    between atoms: C35_49  and  N8_50 
ROOT
HETATM    1  C11 UNL     1      10.289  66.465  26.403  1.00  0.00     0.135 C 
ENDROOT
BRANCH   1   2
HETATM    2  C10 UNL     1      11.431  65.619  25.961  1.00  0.00    -0.088 C 
HETATM    3  C9  UNL     1      12.361  64.968  25.568  1.00  0.00    -0.066 C 
BRANCH   3   4
HETATM    4  C8  UNL     1      13.488  64.227  25.054  1.00  0.00     0.017 A 
HETATM    5  C7  UNL     1      13.910  64.511  23.760  1.00  0.00     0.021 A 
HETATM    6  C6  UNL     1      14.948  63.811  23.198  1.00  0.00     0.009 A 
HETATM    7  C5  UNL     1      15.612  62.811  23.876  1.00  0.00    -0.057 A 
HETATM    8  C40 UNL     1      15.200  62.522  25.168  1.00  0.00     0.009 A 
HETATM    9  C39 UNL     1      14.143  63.237  25.733  1.00  0.00     0.021 A 
BRANCH   7  10
HETATM   10  C4  UNL     1      16.694  62.076  23.224  1.00  0.00     0.058 C 
BRANCH  10  11
HETATM   11  C3  UNL     1      17.639  61.443  24.230  1.00  0.00     0.142 C 
BRANCH  11  12
HETATM   12  N4  UNL     1      18.104  60.190  23.681  1.00  0.00    -0.224 N 
ATOM     13  H4  UNL     1      17.830  59.949  22.728  1.00  0.00     0.177 HD
BRANCH  12  14
HETATM   14  C2  UNL     1      18.840  59.368  24.326  1.00  0.00     0.707 A 
HETATM   15  N3  UNL     1      19.118  58.114  23.948  1.00  0.00    -0.117 N 
HETATM   16  N2  UNL     1      19.920  57.546  24.862  1.00  0.00    -0.118 N 
ATOM     17  H3  UNL     1      18.775  57.662  23.100  1.00  0.00     0.206 HD
HETATM   18  C1  UNL     1      20.125  58.476  25.804  1.00  0.00     0.705 A 
ATOM     19  H2  UNL     1      20.296  56.598  24.844  1.00  0.00     0.206 HD
HETATM   20  N12 UNL     1      19.464  59.612  25.489  1.00  0.00    -0.020 N 
ATOM     21  H12 UNL     1      19.443  60.479  26.026  1.00  0.00     0.203 HD
BRANCH  18  22
HETATM   22  N1  UNL     1      20.867  58.292  26.862  1.00  0.00    -0.233 N 
ATOM     23  H12 UNL     1      21.471  57.489  27.035  1.00  0.00     0.174 HD
ATOM     24  H11 UNL     1      20.916  58.944  27.645  1.00  0.00     0.174 HD
ENDBRANCH  18  22
ENDBRANCH  12  14
ENDBRANCH  11  12
ENDBRANCH  10  11
ENDBRANCH   7  10
ENDBRANCH   3   4
ENDBRANCH   1   2
BRANCH   1  25
HETATM   25  C12 UNL     1       9.141  66.397  25.416  1.00  0.00     0.151 C 
BRANCH  25  26
HETATM   26  N5  UNL     1       9.568  66.990  24.153  1.00  0.00    -0.365 N 
HETATM   27  C13 UNL     1       9.814  68.294  23.995  1.00  0.00     0.091 A 
HETATM   28  C14 UNL     1      10.211  68.818  22.809  1.00  0.00     0.033 A 
HETATM   29  C15 UNL     1      10.383  67.986  21.669  1.00  0.00     0.018 A 
HETATM   30  C27 UNL     1      10.124  66.656  21.858  1.00  0.00     0.033 A 
HETATM   31  C28 UNL     1       9.715  66.160  23.106  1.00  0.00     0.091 A 
BRANCH  29  32
HETATM   32  C16 UNL     1      10.902  68.581  20.468  1.00  0.00     0.152 C 
BRANCH  32  33
HETATM   33  O1  UNL     1       9.943  69.248  19.811  1.00  0.00    -0.345 OA
ATOM     34  H1  UNL     1       9.083  69.024  20.147  1.00  0.00     0.219 HD
ENDBRANCH  32  33
BRANCH  32  35
HETATM   35  N6  UNL     1      12.145  68.602  19.868  1.00  0.00    -0.341 N 
HETATM   36  C17 UNL     1      12.316  69.171  18.593  1.00  0.00     0.066 C 
HETATM   37  C18 UNL     1      12.505  68.268  17.420  1.00  0.00     0.050 C 
HETATM   38  C19 UNL     1      13.865  67.951  16.984  1.00  0.00    -0.005 C 
HETATM   39  C20 UNL     1      15.005  68.864  17.194  1.00  0.00     0.010 C 
HETATM   40  C25 UNL     1      14.579  66.886  17.741  1.00  0.00    -0.006 C 
HETATM   41  C21 UNL     1      15.614  67.875  18.167  1.00  0.00    -0.009 C 
HETATM   42  C22 UNL     1      15.359  68.229  19.595  1.00  0.00     0.011 C 
HETATM   43  C23 UNL     1      14.265  67.330  20.107  1.00  0.00     0.005 C 
HETATM   44  C24 UNL     1      13.901  66.417  18.981  1.00  0.00     0.011 C 
HETATM   45  C26 UNL     1      13.133  67.996  20.777  1.00  0.00     0.135 C 
ENDBRANCH  32  35
ENDBRANCH  29  32
ENDBRANCH  25  26
ENDBRANCH   1  25
BRANCH   1  46
HETATM   46  C29 UNL     1       9.858  65.912  27.733  1.00  0.00     0.045 A 
HETATM   47  C30 UNL     1      10.383  66.422  28.890  1.00  0.00     0.047 A 
HETATM   48  C31 UNL     1      10.002  65.900  30.133  1.00  0.00     0.113 A 
HETATM   49  N7  UNL     1       9.115  64.900  30.118  1.00  0.00    -0.289 N 
HETATM   50  N10 UNL     1       8.626  64.431  28.951  1.00  0.00    -0.241 N 
HETATM   51  N11 UNL     1       8.972  64.907  27.778  1.00  0.00    -0.289 N 
ATOM     52  H10 UNL     1       7.953  63.667  28.982  1.00  0.00     0.208 HD
ATOM     53  H11 UNL     1       8.576  64.522  26.921  1.00  0.00     0.188 HD
BRANCH  49  54
HETATM   54  C32 UNL     1       8.659  64.306  31.357  1.00  0.00     0.150 C 
BRANCH  54  55
HETATM   55  C33 UNL     1       9.844  64.145  32.302  1.00  0.00     0.023 C 
BRANCH  55  56
HETATM   56  C34 UNL     1      10.361  62.749  32.113  1.00  0.00     0.022 C 
BRANCH  56  57
HETATM   57  C35 UNL     1      11.645  62.743  31.331  1.00  0.00     0.129 C 
BRANCH  57  58
HETATM   58  N8  UNL     1      11.452  62.257  29.965  1.00  0.00    -0.352 N 
HETATM   59  C36 UNL     1      10.801  61.108  29.632  1.00  0.00     0.108 A 
HETATM   60  C37 UNL     1      10.809  60.970  28.277  1.00  0.00     0.106 A 
HETATM   61  N9  UNL     1      11.467  62.037  27.785  1.00  0.00    -0.361 N 
HETATM   62  C38 UNL     1      11.850  62.805  28.815  1.00  0.00     0.182 A 
ATOM     63  H9  UNL     1      11.643  62.227  26.798  1.00  0.00     0.166 HD
ENDBRANCH  57  58
ENDBRANCH  56  57
ENDBRANCH  55  56
ENDBRANCH  54  55
ENDBRANCH  49  54
ENDBRANCH   1  46
TORSDOF 18
ENDMDL
MODEL 4
REMARK VINA RESULT: -9.323936803      2.114      8.769
REMARK  18 active torsions:
REMARK  status: ('A' for Active; 'I' for Inactive)
REMARK    1  A    between atoms: N1_1  and  C1_4 
REMARK    2  A    between atoms: C2_9  and  N4_10 
REMARK    3  A    between atoms: N4_10  and  C3_12 
REMARK    4  A    between atoms: C3_12  and  C4_13 
REMARK    5  A    between atoms: C4_13  and  C5_14 
REMARK    6  A    between atoms: C8_17  and  C9_18 
REMARK    7  A    between atoms: C10_19  and  C11_20 
REMARK    8  A    between atoms: C11_20  and  C12_21 
REMARK    9  A    between atoms: C11_20  and  C29_42 
REMARK   10  A    between atoms: C12_21  and  N5_22 
REMARK   11  A    between atoms: C15_25  and  C16_26 
REMARK   12  A    between atoms: C16_26  and  O1_27 
REMARK   13  A    between atoms: C16_26  and  N6_29 
REMARK   14  A    between atoms: N7_45  and  C32_46 
REMARK   15  A    between atoms: C32_46  and  C33_47 
REMARK   16  A    between atoms: C33_47  and  C34_48 
REMARK   17  A    between atoms: C34_48  and  C35_49 
REMARK   18  A    between atoms: C35_49  and  N8_50 
ROOT
HETATM    1  C11 UNL     1      10.504  66.353  26.252  1.00  0.00     0.135 C 
ENDROOT
BRANCH   1   2
HETATM    2  C10 UNL     1      11.720  65.641  25.774  1.00  0.00    -0.088 C 
HETATM    3  C9  UNL     1      12.707  65.100  25.353  1.00  0.00    -0.066 C 
BRANCH   3   4
HETATM    4  C8  UNL     1      13.897  64.494  24.807  1.00  0.00     0.017 A 
HETATM    5  C7  UNL     1      15.088  65.203  24.911  1.00  0.00     0.021 A 
HETATM    6  C6  UNL     1      16.246  64.701  24.373  1.00  0.00     0.009 A 
HETATM    7  C5  UNL     1      16.286  63.489  23.716  1.00  0.00    -0.057 A 
HETATM    8  C40 UNL     1      15.103  62.773  23.609  1.00  0.00     0.009 A 
HETATM    9  C39 UNL     1      13.929  63.291  24.157  1.00  0.00     0.021 A 
BRANCH   7  10
HETATM   10  C4  UNL     1      17.539  63.009  23.136  1.00  0.00     0.058 C 
BRANCH  10  11
HETATM   11  C3  UNL     1      18.417  62.324  24.168  1.00  0.00     0.142 C 
BRANCH  11  12
HETATM   12  N4  UNL     1      18.181  60.901  24.083  1.00  0.00    -0.224 N 
ATOM     13  H4  UNL     1      17.423  60.572  23.485  1.00  0.00     0.177 HD
BRANCH  12  14
HETATM   14  C2  UNL     1      18.872  60.032  24.717  1.00  0.00     0.707 A 
HETATM   15  N3  UNL     1      19.594  60.269  25.819  1.00  0.00    -0.117 N 
HETATM   16  N2  UNL     1      20.185  59.131  26.212  1.00  0.00    -0.118 N 
ATOM     17  H3  UNL     1      19.681  61.172  26.286  1.00  0.00     0.206 HD
HETATM   18  C1  UNL     1      19.810  58.195  25.330  1.00  0.00     0.705 A 
ATOM     19  H2  UNL     1      20.796  59.003  27.020  1.00  0.00     0.206 HD
HETATM   20  N12 UNL     1      18.997  58.735  24.395  1.00  0.00    -0.020 N 
ATOM     21  H12 UNL     1      18.566  58.255  23.605  1.00  0.00     0.203 HD
BRANCH  18  22
HETATM   22  N1  UNL     1      20.185  56.946  25.387  1.00  0.00    -0.233 N 
ATOM     23  H12 UNL     1      21.095  56.609  25.700  1.00  0.00     0.174 HD
ATOM     24  H11 UNL     1      19.594  56.161  25.114  1.00  0.00     0.174 HD
ENDBRANCH  18  22
ENDBRANCH  12  14
ENDBRANCH  11  12
ENDBRANCH  10  11
ENDBRANCH   7  10
ENDBRANCH   3   4
ENDBRANCH   1   2
BRANCH   1  25
HETATM   25  C12 UNL     1       9.366  66.224  25.259  1.00  0.00     0.151 C 
BRANCH  25  26
HETATM   26  N5  UNL     1       9.774  66.824  23.993  1.00  0.00    -0.365 N 
HETATM   27  C13 UNL     1       9.979  68.135  23.830  1.00  0.00     0.091 A 
HETATM   28  C14 UNL     1      10.359  68.666  22.641  1.00  0.00     0.033 A 
HETATM   29  C15 UNL     1      10.554  67.835  21.505  1.00  0.00     0.018 A 
HETATM   30  C27 UNL     1      10.336  66.498  21.699  1.00  0.00     0.033 A 
HETATM   31  C28 UNL     1       9.944  65.995  22.949  1.00  0.00     0.091 A 
BRANCH  29  32
HETATM   32  C16 UNL     1      11.053  68.440  20.300  1.00  0.00     0.152 C 
BRANCH  32  33
HETATM   33  O1  UNL     1      10.069  69.053  19.629  1.00  0.00    -0.345 OA
ATOM     34  H1  UNL     1      10.059  69.985  19.816  1.00  0.00     0.219 HD
ENDBRANCH  32  33
BRANCH  32  35
HETATM   35  N6  UNL     1      12.299  68.513  19.708  1.00  0.00    -0.341 N 
HETATM   36  C17 UNL     1      12.454  69.090  18.435  1.00  0.00     0.066 C 
HETATM   37  C18 UNL     1      12.689  68.197  17.263  1.00  0.00     0.050 C 
HETATM   38  C19 UNL     1      14.064  67.937  16.836  1.00  0.00    -0.005 C 
HETATM   39  C20 UNL     1      15.163  68.897  17.055  1.00  0.00     0.010 C 
HETATM   40  C25 UNL     1      14.817  66.902  17.598  1.00  0.00    -0.006 C 
HETATM   41  C21 UNL     1      15.807  67.934  18.031  1.00  0.00    -0.009 C 
HETATM   42  C22 UNL     1      15.527  68.275  19.457  1.00  0.00     0.011 C 
HETATM   43  C23 UNL     1      14.468  67.331  19.962  1.00  0.00     0.005 C 
HETATM   44  C24 UNL     1      14.150  66.405  18.833  1.00  0.00     0.011 C 
HETATM   45  C26 UNL     1      13.305  67.949  20.624  1.00  0.00     0.135 C 
ENDBRANCH  32  35
ENDBRANCH  29  32
ENDBRANCH  25  26
ENDBRANCH   1  25
BRANCH   1  46
HETATM   46  C29 UNL     1      10.129  65.699  27.553  1.00  0.00     0.045 A 
HETATM   47  C30 UNL     1      10.989  65.744  28.616  1.00  0.00     0.047 A 
HETATM   48  C31 UNL     1      10.656  65.121  29.826  1.00  0.00     0.113 A 
HETATM   49  N7  UNL     1       9.476  64.497  29.875  1.00  0.00    -0.289 N 
HETATM   50  N10 UNL     1       8.661  64.480  28.800  1.00  0.00    -0.241 N 
HETATM   51  N11 UNL     1       8.957  65.057  27.659  1.00  0.00    -0.289 N 
ATOM     52  H10 UNL     1       7.769  63.992  28.877  1.00  0.00     0.208 HD
ATOM     53  H11 UNL     1       8.309  65.019  26.871  1.00  0.00     0.188 HD
BRANCH  49  54
HETATM   54  C32 UNL     1       9.047  63.833  31.088  1.00  0.00     0.150 C 
BRANCH  54  55
HETATM   55  C33 UNL     1      10.082  62.785  31.478  1.00  0.00     0.023 C 
BRANCH  55  56
HETATM   56  C34 UNL     1       9.736  61.533  30.725  1.00  0.00     0.022 C 
BRANCH  56  57
HETATM   57  C35 UNL     1      10.972  60.797  30.292  1.00  0.00     0.129 C 
BRANCH  57  58
HETATM   58  N8  UNL     1      11.625  61.443  29.154  1.00  0.00    -0.352 N 
HETATM   59  C36 UNL     1      12.832  62.071  29.204  1.00  0.00     0.108 A 
HETATM   60  C37 UNL     1      13.133  62.554  27.965  1.00  0.00     0.106 A 
HETATM   61  N9  UNL     1      12.106  62.218  27.162  1.00  0.00    -0.361 N 
HETATM   62  C38 UNL     1      11.203  61.548  27.892  1.00  0.00     0.182 A 
ATOM     63  H9  UNL     1      12.029  62.437  26.168  1.00  0.00     0.166 HD
ENDBRANCH  57  58
ENDBRANCH  56  57
ENDBRANCH  55  56
ENDBRANCH  54  55
ENDBRANCH  49  54
ENDBRANCH   1  46
TORSDOF 18
ENDMDL
MODEL 5
REMARK VINA RESULT: -9.137434263      2.091      8.957
REMARK  18 active torsions:
REMARK  status: ('A' for Active; 'I' for Inactive)
REMARK    1  A    between atoms: N1_1  and  C1_4 
REMARK    2  A    between atoms: C2_9  and  N4_10 
REMARK    3  A    between atoms: N4_10  and  C3_12 
REMARK    4  A    between atoms: C3_12  and  C4_13 
REMARK    5  A    between atoms: C4_13  and  C5_14 
REMARK    6  A    between atoms: C8_17  and  C9_18 
REMARK    7  A    between atoms: C10_19  and  C11_20 
REMARK    8  A    between atoms: C11_20  and  C12_21 
REMARK    9  A    between atoms: C11_20  and  C29_42 
REMARK   10  A    between atoms: C12_21  and  N5_22 
REMARK   11  A    between atoms: C15_25  and  C16_26 
REMARK   12  A    between atoms: C16_26  and  O1_27 
REMARK   13  A    between atoms: C16_26  and  N6_29 
REMARK   14  A    between atoms: N7_45  and  C32_46 
REMARK   15  A    between atoms: C32_46  and  C33_47 
REMARK   16  A    between atoms: C33_47  and  C34_48 
REMARK   17  A    between atoms: C34_48  and  C35_49 
REMARK   18  A    between atoms: C35_49  and  N8_50 
ROOT
HETATM    1  C11 UNL     1      10.484  66.344  26.365  1.00  0.00     0.135 C 
ENDROOT
BRANCH   1   2
HETATM    2  C10 UNL     1      11.659  65.571  25.877  1.00  0.00    -0.088 C 
HETATM    3  C9  UNL     1      12.590  64.908  25.507  1.00  0.00    -0.066 C 
BRANCH   3   4
HETATM    4  C8  UNL     1      13.683  64.064  25.090  1.00  0.00     0.017 A 
HETATM    5  C7  UNL     1      13.862  63.868  23.725  1.00  0.00     0.021 A 
HETATM    6  C6  UNL     1      14.857  63.043  23.265  1.00  0.00     0.009 A 
HETATM    7  C5  UNL     1      15.714  62.381  24.117  1.00  0.00    -0.057 A 
HETATM    8  C40 UNL     1      15.546  62.571  25.480  1.00  0.00     0.009 A 
HETATM    9  C39 UNL     1      14.531  63.411  25.941  1.00  0.00     0.021 A 
BRANCH   7  10
HETATM   10  C4  UNL     1      16.742  61.490  23.579  1.00  0.00     0.058 C 
BRANCH  10  11
HETATM   11  C3  UNL     1      18.099  61.741  24.212  1.00  0.00     0.142 C 
BRANCH  11  12
HETATM   12  N4  UNL     1      19.014  60.736  23.720  1.00  0.00    -0.224 N 
ATOM     13  H4  UNL     1      19.377  60.836  22.772  1.00  0.00     0.177 HD
BRANCH  12  14
HETATM   14  C2  UNL     1      19.392  59.729  24.410  1.00  0.00     0.707 A 
HETATM   15  N3  UNL     1      19.436  58.464  23.976  1.00  0.00    -0.117 N 
HETATM   16  N2  UNL     1      19.882  57.674  24.965  1.00  0.00    -0.118 N 
ATOM     17  H3  UNL     1      19.172  58.149  23.042  1.00  0.00     0.206 HD
HETATM   18  C1  UNL     1      20.110  58.481  26.010  1.00  0.00     0.705 A 
ATOM     19  H2  UNL     1      20.020  56.664  24.928  1.00  0.00     0.206 HD
HETATM   20  N12 UNL     1      19.811  59.758  25.685  1.00  0.00    -0.020 N 
ATOM     21  H12 UNL     1      19.888  60.579  26.287  1.00  0.00     0.203 HD
BRANCH  18  22
HETATM   22  N1  UNL     1      20.561  58.071  27.164  1.00  0.00    -0.233 N 
ATOM     23  H12 UNL     1      20.471  57.127  27.539  1.00  0.00     0.174 HD
ATOM     24  H11 UNL     1      21.056  58.667  27.827  1.00  0.00     0.174 HD
ENDBRANCH  18  22
ENDBRANCH  12  14
ENDBRANCH  11  12
ENDBRANCH  10  11
ENDBRANCH   7  10
ENDBRANCH   3   4
ENDBRANCH   1   2
BRANCH   1  25
HETATM   25  C12 UNL     1       9.325  66.252  25.393  1.00  0.00     0.151 C 
BRANCH  25  26
HETATM   26  N5  UNL     1       9.747  66.782  24.101  1.00  0.00    -0.365 N 
HETATM   27  C13 UNL     1      10.174  68.035  23.922  1.00  0.00     0.091 A 
HETATM   28  C14 UNL     1      10.563  68.501  22.708  1.00  0.00     0.033 A 
HETATM   29  C15 UNL     1      10.527  67.660  21.563  1.00  0.00     0.018 A 
HETATM   30  C27 UNL     1      10.086  66.382  21.775  1.00  0.00     0.033 A 
HETATM   31  C28 UNL     1       9.695  65.946  23.050  1.00  0.00     0.091 A 
BRANCH  29  32
HETATM   32  C16 UNL     1      11.045  68.178  20.326  1.00  0.00     0.152 C 
BRANCH  32  33
HETATM   33  O1  UNL     1      10.182  69.037  19.767  1.00  0.00    -0.345 OA
ATOM     34  H1  UNL     1      10.514  69.363  18.939  1.00  0.00     0.219 HD
ENDBRANCH  32  33
BRANCH  32  35
HETATM   35  N6  UNL     1      12.211  67.975  19.614  1.00  0.00    -0.341 N 
HETATM   36  C17 UNL     1      13.324  67.364  20.220  1.00  0.00     0.066 C 
HETATM   37  C18 UNL     1      14.492  68.210  20.600  1.00  0.00     0.050 C 
HETATM   38  C19 UNL     1      15.613  68.328  19.665  1.00  0.00    -0.005 C 
HETATM   39  C20 UNL     1      15.961  67.271  18.698  1.00  0.00     0.010 C 
HETATM   40  C25 UNL     1      15.452  69.298  18.548  1.00  0.00    -0.006 C 
HETATM   41  C21 UNL     1      15.555  68.184  17.559  1.00  0.00    -0.009 C 
HETATM   42  C22 UNL     1      14.186  67.896  17.038  1.00  0.00     0.011 C 
HETATM   43  C23 UNL     1      13.253  68.946  17.580  1.00  0.00     0.005 C 
HETATM   44  C24 UNL     1      14.089  69.879  18.395  1.00  0.00     0.011 C 
HETATM   45  C26 UNL     1      12.027  68.455  18.234  1.00  0.00     0.135 C 
ENDBRANCH  32  35
ENDBRANCH  29  32
ENDBRANCH  25  26
ENDBRANCH   1  25
BRANCH   1  46
HETATM   46  C29 UNL     1      10.103  65.727  27.682  1.00  0.00     0.045 A 
HETATM   47  C30 UNL     1      10.652  66.198  28.844  1.00  0.00     0.047 A 
HETATM   48  C31 UNL     1      10.318  65.617  30.074  1.00  0.00     0.113 A 
HETATM   49  N7  UNL     1       9.450  64.600  30.041  1.00  0.00    -0.289 N 
HETATM   50  N10 UNL     1       8.936  64.171  28.870  1.00  0.00    -0.241 N 
HETATM   51  N11 UNL     1       9.238  64.703  27.709  1.00  0.00    -0.289 N 
ATOM     52  H10 UNL     1       8.278  63.393  28.887  1.00  0.00     0.208 HD
ATOM     53  H11 UNL     1       8.824  64.346  26.848  1.00  0.00     0.188 HD
BRANCH  49  54
HETATM   54  C32 UNL     1       9.042  63.945  31.266  1.00  0.00     0.150 C 
BRANCH  54  55
HETATM   55  C33 UNL     1      10.249  63.805  32.186  1.00  0.00     0.023 C 
BRANCH  55  56
HETATM   56  C34 UNL     1      10.673  62.367  32.129  1.00  0.00     0.022 C 
BRANCH  56  57
HETATM   57  C35 UNL     1      11.917  62.196  31.302  1.00  0.00     0.129 C 
BRANCH  57  58
HETATM   58  N8  UNL     1      11.611  61.819  29.922  1.00  0.00    -0.352 N 
HETATM   59  C36 UNL     1      12.122  62.430  28.818  1.00  0.00     0.108 A 
HETATM   60  C37 UNL     1      11.626  61.821  27.705  1.00  0.00     0.106 A 
HETATM   61  N9  UNL     1      10.811  60.839  28.134  1.00  0.00    -0.361 N 
HETATM   62  C38 UNL     1      10.811  60.849  29.474  1.00  0.00     0.182 A 
ATOM     63  H9  UNL     1      10.284  60.198  27.540  1.00  0.00     0.166 HD
ENDBRANCH  57  58
ENDBRANCH  56  57
ENDBRANCH  55  56
ENDBRANCH  54  55
ENDBRANCH  49  54
ENDBRANCH   1  46
TORSDOF 18
ENDMDL
