MODEL 1
REMARK VINA RESULT: -6.880530779      0.000      0.000
REMARK  10 active torsions:
REMARK  status: ('A' for Active; 'I' for Inactive)
REMARK    1  A    between atoms: C2_2  and  N1_3 
REMARK    2  A    between atoms: N1_3  and  C3_4 
REMARK    3  A    between atoms: N1_3  and  C5_6 
REMARK    4  A    between atoms: N1_3  and  C7_8 
REMARK    5  A    between atoms: C7_8  and  C8_9 
REMARK    6  A    between atoms: C8_9  and  N2_10 
REMARK    7  A    between atoms: C8_9  and  C9_14 
REMARK    8  A    between atoms: C9_14  and  O1_15 
REMARK    9  A    between atoms: O1_15  and  C10_16 
REMARK   10  A    between atoms: C10_16  and  C11_18 
ROOT
HETATM    1  C10 UNL     1       5.763  -3.121  49.359  1.00  0.00     0.268 C 
HETATM    2  O2  UNL     1       4.653  -3.562  48.982  1.00  0.00    -0.264 OA
ENDROOT
BRANCH   1   3
HETATM    3  O1  UNL     1       6.912  -3.566  48.742  1.00  0.00    -0.319 OA
BRANCH   3   4
HETATM    4  C9  UNL     1       7.164  -3.558  47.350  1.00  0.00     0.213 C 
BRANCH   4   5
HETATM    5  C8  UNL     1       8.555  -3.098  46.990  1.00  0.00     0.233 C 
BRANCH   5   6
HETATM    6  C7  UNL     1       9.138  -2.039  47.835  1.00  0.00     0.272 C 
BRANCH   6   7
HETATM    7  N1  UNL     1      10.215  -2.284  48.702  1.00  0.00    -0.066 N 
BRANCH   7   8
HETATM    8  C2  UNL     1      10.416  -3.628  49.163  1.00  0.00     0.233 C 
HETATM    9  C1  UNL     1       9.987  -3.907  50.559  1.00  0.00     0.035 C 
ENDBRANCH   7   8
BRANCH   7  10
HETATM   10  C3  UNL     1      10.021  -1.525  49.928  1.00  0.00     0.233 C 
HETATM   11  C4  UNL     1      11.057  -0.528  50.251  1.00  0.00     0.035 C 
ENDBRANCH   7  10
BRANCH   7  12
HETATM   12  C5  UNL     1      11.487  -1.757  48.204  1.00  0.00     0.233 C 
HETATM   13  C6  UNL     1      12.265  -2.600  47.300  1.00  0.00     0.035 C 
ENDBRANCH   7  12
ENDBRANCH   6   7
ENDBRANCH   5   6
BRANCH   5  14
HETATM   14  N2  UNL     1       8.318  -2.422  45.666  1.00  0.00    -0.071 N 
ATOM     15  H23 UNL     1       7.991  -3.047  44.930  1.00  0.00     0.274 HD
ATOM     16  H22 UNL     1       7.508  -1.801  45.653  1.00  0.00     0.274 HD
ATOM     17  H21 UNL     1       9.204  -1.960  45.462  1.00  0.00     0.274 HD
ENDBRANCH   5  14
ENDBRANCH   4   5
ENDBRANCH   3   4
ENDBRANCH   1   3
BRANCH   1  18
HETATM   18  C11 UNL     1       5.782  -2.123  50.473  1.00  0.00     0.053 C 
HETATM   19  C12 UNL     1       4.402  -1.846  50.963  1.00  0.00     0.025 C 
HETATM   20  C13 UNL     1       4.286  -1.338  52.350  1.00  0.00    -0.013 C 
HETATM   21  C14 UNL     1       4.371   0.162  52.479  1.00  0.00     0.005 C 
HETATM   22  C21 UNL     1       5.258  -1.930  53.332  1.00  0.00     0.014 C 
HETATM   23  C15 UNL     1       5.171   0.788  51.359  1.00  0.00     0.010 C 
HETATM   24  C16 UNL     1       6.501   0.146  51.142  1.00  0.00    -0.039 C 
HETATM   25  C17 UNL     1       7.472   1.253  50.706  1.00  0.00     0.015 C 
HETATM   26  C18 UNL     1       7.046  -0.417  52.415  1.00  0.00     0.018 C 
HETATM   27  C23 UNL     1       6.502  -0.868  50.020  1.00  0.00     0.008 C 
HETATM   28  C19 UNL     1       6.638  -1.809  52.724  1.00  0.00    -0.042 C 
HETATM   29  C20 UNL     1       7.620  -2.363  53.761  1.00  0.00     0.015 C 
HETATM   30  C22 UNL     1       6.677  -2.744  51.543  1.00  0.00     0.029 C 
HETATM   31  C24 UNL     1       5.917  -0.307  48.774  1.00  0.00     0.012 C 
ENDBRANCH   1  18
TORSDOF 10
ENDMDL
MODEL 2
REMARK VINA RESULT: -6.876982045      0.269      1.491
REMARK  10 active torsions:
REMARK  status: ('A' for Active; 'I' for Inactive)
REMARK    1  A    between atoms: C2_2  and  N1_3 
REMARK    2  A    between atoms: N1_3  and  C3_4 
REMARK    3  A    between atoms: N1_3  and  C5_6 
REMARK    4  A    between atoms: N1_3  and  C7_8 
REMARK    5  A    between atoms: C7_8  and  C8_9 
REMARK    6  A    between atoms: C8_9  and  N2_10 
REMARK    7  A    between atoms: C8_9  and  C9_14 
REMARK    8  A    between atoms: C9_14  and  O1_15 
REMARK    9  A    between atoms: O1_15  and  C10_16 
REMARK   10  A    between atoms: C10_16  and  C11_18 
ROOT
HETATM    1  C10 UNL     1       5.824  -3.112  49.368  1.00  0.00     0.268 C 
HETATM    2  O2  UNL     1       4.682  -3.487  49.017  1.00  0.00    -0.264 OA
ENDROOT
BRANCH   1   3
HETATM    3  O1  UNL     1       6.929  -3.589  48.695  1.00  0.00    -0.319 OA
BRANCH   3   4
HETATM    4  C9  UNL     1       7.149  -3.511  47.300  1.00  0.00     0.213 C 
BRANCH   4   5
HETATM    5  C8  UNL     1       8.530  -3.027  46.933  1.00  0.00     0.233 C 
BRANCH   5   6
HETATM    6  C7  UNL     1       9.096  -1.953  47.769  1.00  0.00     0.272 C 
BRANCH   6   7
HETATM    7  N1  UNL     1      10.268  -2.132  48.522  1.00  0.00    -0.066 N 
BRANCH   7   8
HETATM    8  C2  UNL     1      11.517  -1.758  47.924  1.00  0.00     0.233 C 
HETATM    9  C1  UNL     1      12.204  -2.815  47.137  1.00  0.00     0.035 C 
ENDBRANCH   7   8
BRANCH   7  10
HETATM   10  C3  UNL     1      10.435  -3.548  48.811  1.00  0.00     0.233 C 
HETATM   11  C4  UNL     1      10.128  -3.975  50.188  1.00  0.00     0.035 C 
ENDBRANCH   7  10
BRANCH   7  12
HETATM   12  C5  UNL     1      10.187  -1.545  49.861  1.00  0.00     0.233 C 
HETATM   13  C6  UNL     1      11.190  -0.548  50.228  1.00  0.00     0.035 C 
ENDBRANCH   7  12
ENDBRANCH   6   7
ENDBRANCH   5   6
BRANCH   5  14
HETATM   14  N2  UNL     1       8.276  -2.363  45.606  1.00  0.00    -0.071 N 
ATOM     15  H23 UNL     1       7.371  -1.897  45.538  1.00  0.00     0.274 HD
ATOM     16  H22 UNL     1       8.842  -1.532  45.439  1.00  0.00     0.274 HD
ATOM     17  H21 UNL     1       8.415  -3.110  44.925  1.00  0.00     0.274 HD
ENDBRANCH   5  14
ENDBRANCH   4   5
ENDBRANCH   3   4
ENDBRANCH   1   3
BRANCH   1  18
HETATM   18  C11 UNL     1       5.930  -2.154  50.513  1.00  0.00     0.053 C 
HETATM   19  C12 UNL     1       4.602  -1.941  51.153  1.00  0.00     0.025 C 
HETATM   20  C13 UNL     1       4.615  -1.489  52.563  1.00  0.00    -0.013 C 
HETATM   21  C14 UNL     1       4.670   0.008  52.742  1.00  0.00     0.005 C 
HETATM   22  C21 UNL     1       5.701  -2.084  53.416  1.00  0.00     0.014 C 
HETATM   23  C15 UNL     1       5.331   0.700  51.572  1.00  0.00     0.010 C 
HETATM   24  C16 UNL     1       6.649   0.111  51.193  1.00  0.00    -0.039 C 
HETATM   25  C17 UNL     1       7.537   1.264  50.705  1.00  0.00     0.015 C 
HETATM   26  C18 UNL     1       7.340  -0.481  52.381  1.00  0.00     0.018 C 
HETATM   27  C23 UNL     1       6.563  -0.862  50.038  1.00  0.00     0.008 C 
HETATM   28  C19 UNL     1       7.006  -1.896  52.674  1.00  0.00    -0.042 C 
HETATM   29  C20 UNL     1       8.106  -2.454  53.583  1.00  0.00     0.015 C 
HETATM   30  C22 UNL     1       6.949  -2.785  51.460  1.00  0.00     0.029 C 
HETATM   31  C24 UNL     1       5.835  -0.275  48.883  1.00  0.00     0.012 C 
ENDBRANCH   1  18
TORSDOF 10
ENDMDL
MODEL 3
REMARK VINA RESULT: -6.819755076      2.267      5.553
REMARK  10 active torsions:
REMARK  status: ('A' for Active; 'I' for Inactive)
REMARK    1  A    between atoms: C2_2  and  N1_3 
REMARK    2  A    between atoms: N1_3  and  C3_4 
REMARK    3  A    between atoms: N1_3  and  C5_6 
REMARK    4  A    between atoms: N1_3  and  C7_8 
REMARK    5  A    between atoms: C7_8  and  C8_9 
REMARK    6  A    between atoms: C8_9  and  N2_10 
REMARK    7  A    between atoms: C8_9  and  C9_14 
REMARK    8  A    between atoms: C9_14  and  O1_15 
REMARK    9  A    between atoms: O1_15  and  C10_16 
REMARK   10  A    between atoms: C10_16  and  C11_18 
ROOT
HETATM    1  C10 UNL     1       6.114  -3.049  49.712  1.00  0.00     0.268 C 
HETATM    2  O2  UNL     1       5.895  -3.982  50.518  1.00  0.00    -0.264 OA
ENDROOT
BRANCH   1   3
HETATM    3  O1  UNL     1       5.149  -2.084  49.516  1.00  0.00    -0.319 OA
BRANCH   3   4
HETATM    4  C9  UNL     1       4.154  -1.704  50.447  1.00  0.00     0.213 C 
BRANCH   4   5
HETATM    5  C8  UNL     1       4.567  -0.560  51.340  1.00  0.00     0.233 C 
BRANCH   5   6
HETATM    6  C7  UNL     1       5.489  -0.886  52.444  1.00  0.00     0.272 C 
BRANCH   6   7
HETATM    7  N1  UNL     1       6.763  -0.306  52.548  1.00  0.00    -0.066 N 
BRANCH   7   8
HETATM    8  C2  UNL     1       7.818  -1.094  53.115  1.00  0.00     0.233 C 
HETATM    9  C1  UNL     1       7.456  -2.482  53.505  1.00  0.00     0.035 C 
ENDBRANCH   7   8
BRANCH   7  10
HETATM   10  C3  UNL     1       6.688   0.853  53.426  1.00  0.00     0.233 C 
HETATM   11  C4  UNL     1       5.862   0.703  54.637  1.00  0.00     0.035 C 
ENDBRANCH   7  10
BRANCH   7  12
HETATM   12  C5  UNL     1       7.231   0.283  51.292  1.00  0.00     0.233 C 
HETATM   13  C6  UNL     1       8.559   0.893  51.281  1.00  0.00     0.035 C 
ENDBRANCH   7  12
ENDBRANCH   6   7
ENDBRANCH   5   6
BRANCH   5  14
HETATM   14  N2  UNL     1       3.270  -0.233  52.030  1.00  0.00    -0.071 N 
ATOM     15  H23 UNL     1       2.437  -0.461  51.488  1.00  0.00     0.274 HD
ATOM     16  H22 UNL     1       3.055  -0.836  52.825  1.00  0.00     0.274 HD
ATOM     17  H21 UNL     1       3.358   0.756  52.266  1.00  0.00     0.274 HD
ENDBRANCH   5  14
ENDBRANCH   4   5
ENDBRANCH   3   4
ENDBRANCH   1   3
BRANCH   1  18
HETATM   18  C11 UNL     1       7.427  -3.032  48.995  1.00  0.00     0.053 C 
HETATM   19  C12 UNL     1       7.610  -1.755  48.249  1.00  0.00     0.025 C 
HETATM   20  C13 UNL     1       9.006  -1.357  47.958  1.00  0.00    -0.013 C 
HETATM   21  C14 UNL     1       9.560  -1.907  46.667  1.00  0.00     0.005 C 
HETATM   22  C21 UNL     1      10.000  -1.667  49.042  1.00  0.00     0.014 C 
HETATM   23  C15 UNL     1       8.895  -3.204  46.267  1.00  0.00     0.010 C 
HETATM   24  C16 UNL     1       8.853  -4.219  47.361  1.00  0.00    -0.039 C 
HETATM   25  C17 UNL     1       8.998  -5.599  46.705  1.00  0.00     0.015 C 
HETATM   26  C18 UNL     1      10.017  -4.067  48.287  1.00  0.00     0.018 C 
HETATM   27  C23 UNL     1       7.533  -4.250  48.099  1.00  0.00     0.008 C 
HETATM   28  C19 UNL     1       9.817  -3.122  49.413  1.00  0.00    -0.042 C 
HETATM   29  C20 UNL     1      10.875  -3.436  50.476  1.00  0.00     0.015 C 
HETATM   30  C22 UNL     1       8.475  -3.234  50.087  1.00  0.00     0.029 C 
HETATM   31  C24 UNL     1       6.384  -4.357  47.162  1.00  0.00     0.012 C 
ENDBRANCH   1  18
TORSDOF 10
ENDMDL
MODEL 4
REMARK VINA RESULT: -6.818962534      2.271      5.748
REMARK  10 active torsions:
REMARK  status: ('A' for Active; 'I' for Inactive)
REMARK    1  A    between atoms: C2_2  and  N1_3 
REMARK    2  A    between atoms: N1_3  and  C3_4 
REMARK    3  A    between atoms: N1_3  and  C5_6 
REMARK    4  A    between atoms: N1_3  and  C7_8 
REMARK    5  A    between atoms: C7_8  and  C8_9 
REMARK    6  A    between atoms: C8_9  and  N2_10 
REMARK    7  A    between atoms: C8_9  and  C9_14 
REMARK    8  A    between atoms: C9_14  and  O1_15 
REMARK    9  A    between atoms: O1_15  and  C10_16 
REMARK   10  A    between atoms: C10_16  and  C11_18 
ROOT
HETATM    1  C10 UNL     1       6.117  -3.046  49.704  1.00  0.00     0.268 C 
HETATM    2  O2  UNL     1       5.895  -3.982  50.506  1.00  0.00    -0.264 OA
ENDROOT
BRANCH   1   3
HETATM    3  O1  UNL     1       5.155  -2.077  49.513  1.00  0.00    -0.319 OA
BRANCH   3   4
HETATM    4  C9  UNL     1       4.163  -1.698  50.446  1.00  0.00     0.213 C 
BRANCH   4   5
HETATM    5  C8  UNL     1       4.555  -0.517  51.299  1.00  0.00     0.233 C 
BRANCH   5   6
HETATM    6  C7  UNL     1       5.530  -0.775  52.374  1.00  0.00     0.272 C 
BRANCH   6   7
HETATM    7  N1  UNL     1       6.775  -0.128  52.424  1.00  0.00    -0.066 N 
BRANCH   7   8
HETATM    8  C2  UNL     1       7.356   0.311  51.188  1.00  0.00     0.233 C 
HETATM    9  C1  UNL     1       8.721   0.893  51.281  1.00  0.00     0.035 C 
ENDBRANCH   7   8
BRANCH   7  10
HETATM   10  C3  UNL     1       7.767  -1.045  52.964  1.00  0.00     0.233 C 
HETATM   11  C4  UNL     1       7.272  -2.365  53.395  1.00  0.00     0.035 C 
ENDBRANCH   7  10
BRANCH   7  12
HETATM   12  C5  UNL     1       6.812   0.976  53.385  1.00  0.00     0.233 C 
HETATM   13  C6  UNL     1       5.860   0.945  54.493  1.00  0.00     0.035 C 
ENDBRANCH   7  12
ENDBRANCH   6   7
ENDBRANCH   5   6
BRANCH   5  14
HETATM   14  N2  UNL     1       3.270  -0.232  52.030  1.00  0.00    -0.071 N 
ATOM     15  H23 UNL     1       2.438  -0.607  51.576  1.00  0.00     0.274 HD
ATOM     16  H22 UNL     1       3.162  -0.748  52.904  1.00  0.00     0.274 HD
ATOM     17  H21 UNL     1       3.267   0.782  52.140  1.00  0.00     0.274 HD
ENDBRANCH   5  14
ENDBRANCH   4   5
ENDBRANCH   3   4
ENDBRANCH   1   3
BRANCH   1  18
HETATM   18  C11 UNL     1       7.430  -3.031  48.986  1.00  0.00     0.053 C 
HETATM   19  C12 UNL     1       7.612  -1.754  48.239  1.00  0.00     0.025 C 
HETATM   20  C13 UNL     1       9.009  -1.357  47.946  1.00  0.00    -0.013 C 
HETATM   21  C14 UNL     1       9.562  -1.909  46.656  1.00  0.00     0.005 C 
HETATM   22  C21 UNL     1      10.003  -1.666  49.031  1.00  0.00     0.014 C 
HETATM   23  C15 UNL     1       8.897  -3.206  46.257  1.00  0.00     0.010 C 
HETATM   24  C16 UNL     1       8.854  -4.220  47.352  1.00  0.00    -0.039 C 
HETATM   25  C17 UNL     1       8.999  -5.600  46.698  1.00  0.00     0.015 C 
HETATM   26  C18 UNL     1      10.019  -4.067  48.278  1.00  0.00     0.018 C 
HETATM   27  C23 UNL     1       7.535  -4.249  48.092  1.00  0.00     0.008 C 
HETATM   28  C19 UNL     1       9.820  -3.121  49.403  1.00  0.00    -0.042 C 
HETATM   29  C20 UNL     1      10.878  -3.434  50.466  1.00  0.00     0.015 C 
HETATM   30  C22 UNL     1       8.478  -3.232  50.078  1.00  0.00     0.029 C 
HETATM   31  C24 UNL     1       6.386  -4.357  47.156  1.00  0.00     0.012 C 
ENDBRANCH   1  18
TORSDOF 10
ENDMDL
MODEL 5
REMARK VINA RESULT: -6.811139896      2.273      5.662
REMARK  10 active torsions:
REMARK  status: ('A' for Active; 'I' for Inactive)
REMARK    1  A    between atoms: C2_2  and  N1_3 
REMARK    2  A    between atoms: N1_3  and  C3_4 
REMARK    3  A    between atoms: N1_3  and  C5_6 
REMARK    4  A    between atoms: N1_3  and  C7_8 
REMARK    5  A    between atoms: C7_8  and  C8_9 
REMARK    6  A    between atoms: C8_9  and  N2_10 
REMARK    7  A    between atoms: C8_9  and  C9_14 
REMARK    8  A    between atoms: C9_14  and  O1_15 
REMARK    9  A    between atoms: O1_15  and  C10_16 
REMARK   10  A    between atoms: C10_16  and  C11_18 
ROOT
HETATM    1  C10 UNL     1       6.099  -3.061  49.712  1.00  0.00     0.268 C 
HETATM    2  O2  UNL     1       5.895  -3.982  50.536  1.00  0.00    -0.264 OA
ENDROOT
BRANCH   1   3
HETATM    3  O1  UNL     1       5.121  -2.114  49.500  1.00  0.00    -0.319 OA
BRANCH   3   4
HETATM    4  C9  UNL     1       4.130  -1.721  50.430  1.00  0.00     0.213 C 
BRANCH   4   5
HETATM    5  C8  UNL     1       4.558  -0.583  51.323  1.00  0.00     0.233 C 
BRANCH   5   6
HETATM    6  C7  UNL     1       5.491  -0.916  52.414  1.00  0.00     0.272 C 
BRANCH   6   7
HETATM    7  N1  UNL     1       6.704  -0.231  52.594  1.00  0.00    -0.066 N 
BRANCH   7   8
HETATM    8  C2  UNL     1       6.698   0.945  53.416  1.00  0.00     0.233 C 
HETATM    9  C1  UNL     1       5.794   0.910  54.595  1.00  0.00     0.035 C 
ENDBRANCH   7   8
BRANCH   7  10
HETATM   10  C3  UNL     1       7.172   0.253  51.304  1.00  0.00     0.233 C 
HETATM   11  C4  UNL     1       8.516   0.858  51.281  1.00  0.00     0.035 C 
ENDBRANCH   7  10
BRANCH   7  12
HETATM   12  C5  UNL     1       7.801  -1.103  53.018  1.00  0.00     0.233 C 
HETATM   13  C6  UNL     1       7.460  -2.444  53.489  1.00  0.00     0.035 C 
ENDBRANCH   7  12
ENDBRANCH   6   7
ENDBRANCH   5   6
BRANCH   5  14
HETATM   14  N2  UNL     1       3.270  -0.254  52.031  1.00  0.00    -0.071 N 
ATOM     15  H23 UNL     1       2.932  -0.991  52.649  1.00  0.00     0.274 HD
ATOM     16  H22 UNL     1       3.360   0.463  52.751  1.00  0.00     0.274 HD
ATOM     17  H21 UNL     1       2.628  -0.012  51.276  1.00  0.00     0.274 HD
ENDBRANCH   5  14
ENDBRANCH   4   5
ENDBRANCH   3   4
ENDBRANCH   1   3
BRANCH   1  18
HETATM   18  C11 UNL     1       7.411  -3.039  48.992  1.00  0.00     0.053 C 
HETATM   19  C12 UNL     1       7.590  -1.758  48.252  1.00  0.00     0.025 C 
HETATM   20  C13 UNL     1       8.985  -1.357  47.959  1.00  0.00    -0.013 C 
HETATM   21  C14 UNL     1       9.537  -1.901  46.665  1.00  0.00     0.005 C 
HETATM   22  C21 UNL     1       9.982  -1.671  49.040  1.00  0.00     0.014 C 
HETATM   23  C15 UNL     1       8.874  -3.196  46.260  1.00  0.00     0.010 C 
HETATM   24  C16 UNL     1       8.835  -4.217  47.349  1.00  0.00    -0.039 C 
HETATM   25  C17 UNL     1       8.981  -5.593  46.686  1.00  0.00     0.015 C 
HETATM   26  C18 UNL     1      10.001  -4.067  48.274  1.00  0.00     0.018 C 
HETATM   27  C23 UNL     1       7.517  -4.253  48.091  1.00  0.00     0.008 C 
HETATM   28  C19 UNL     1       9.802  -3.128  49.405  1.00  0.00    -0.042 C 
HETATM   29  C20 UNL     1      10.863  -3.445  50.464  1.00  0.00     0.015 C 
HETATM   30  C22 UNL     1       8.461  -3.245  50.081  1.00  0.00     0.029 C 
HETATM   31  C24 UNL     1       6.366  -4.357  47.156  1.00  0.00     0.012 C 
ENDBRANCH   1  18
TORSDOF 10
ENDMDL
