MODEL 1
REMARK VINA RESULT: -7.798420850      0.000      0.000
REMARK  9 active torsions:
REMARK  status: ('A' for Active; 'I' for Inactive)
REMARK    1  A    between atoms: C2_2  and  N1_3 
REMARK    2  A    between atoms: N1_3  and  C3_4 
REMARK    3  A    between atoms: N1_3  and  C5_6 
REMARK    4  A    between atoms: C5_6  and  C6_7 
REMARK    5  A    between atoms: C6_7  and  N2_8 
REMARK    6  A    between atoms: N2_8  and  C7_10 
REMARK    7  A    between atoms: C7_10  and  C8_11 
REMARK    8  A    between atoms: C7_10  and  C15_20 
REMARK       I    between atoms: C8_11  and  N3_13 
REMARK    9  A    between atoms: N3_13  and  C10_15 
ROOT
HETATM    1  C7  UNL     1       8.874  -3.562  47.537  1.00  0.00     0.082 C 
ENDROOT
BRANCH   1   2
HETATM    2  N2  UNL     1       7.841  -4.408  48.130  1.00  0.00    -0.386 N 
ATOM      3  H2  UNL     1       8.013  -5.228  48.711  1.00  0.00     0.159 HD
BRANCH   2   4
HETATM    4  C6  UNL     1       6.525  -3.899  47.761  1.00  0.00     0.150 C 
BRANCH   4   5
HETATM    5  C5  UNL     1       5.627  -3.654  48.944  1.00  0.00     0.292 C 
BRANCH   5   6
HETATM    6  N1  UNL     1       5.550  -2.381  49.518  1.00  0.00     0.089 N 
BRANCH   6   7
HETATM    7  C2  UNL     1       4.436  -1.559  49.271  1.00  0.00     0.268 C 
HETATM    8  C1  UNL     1       3.183  -2.150  49.857  1.00  0.00     0.037 C 
ENDBRANCH   6   7
BRANCH   6   9
HETATM    9  C3  UNL     1       5.637  -2.556  50.971  1.00  0.00     0.268 C 
HETATM   10  C4  UNL     1       6.215  -3.882  51.398  1.00  0.00     0.037 C 
ENDBRANCH   6   9
ENDBRANCH   5   6
ENDBRANCH   4   5
ENDBRANCH   2   4
ENDBRANCH   1   2
BRANCH   1  11
HETATM   11  C8  UNL     1       9.331  -4.063  46.272  1.00  0.00     0.266 C 
HETATM   12  O1  UNL     1       9.506  -3.235  45.311  1.00  0.00    -0.266 OA
HETATM   13  N3  UNL     1       9.609  -5.424  45.908  1.00  0.00    -0.347 N 
HETATM   14  C9  UNL     1       9.491  -6.436  46.911  1.00  0.00     0.153 C 
BRANCH  13  15
HETATM   15  C10 UNL     1       9.899  -5.857  44.564  1.00  0.00     0.087 C 
HETATM   16  C11 UNL     1       9.092  -7.038  44.077  1.00  0.00     0.025 C 
HETATM   17  C12 UNL     1      10.018  -7.844  43.159  1.00  0.00     0.002 C 
HETATM   18  C13 UNL     1      11.421  -7.400  43.504  1.00  0.00     0.002 C 
HETATM   19  C14 UNL     1      11.323  -6.145  44.314  1.00  0.00     0.025 C 
ENDBRANCH  13  15
ENDBRANCH   1  11
BRANCH   1  20
HETATM   20  C15 UNL     1       9.694  -2.887  48.547  1.00  0.00     0.008 C 
HETATM   21  C16 UNL     1       9.574  -3.759  49.812  1.00  0.00     0.020 C 
HETATM   22  C17 UNL     1      10.061  -3.113  51.068  1.00  0.00    -0.013 C 
HETATM   23  C18 UNL     1      11.564  -2.882  50.838  1.00  0.00     0.009 C 
HETATM   24  C22 UNL     1       9.308  -1.863  51.348  1.00  0.00     0.009 C 
HETATM   25  C19 UNL     1      11.685  -1.989  49.651  1.00  0.00    -0.013 C 
HETATM   26  C20 UNL     1      11.003  -0.698  50.000  1.00  0.00     0.009 C 
HETATM   27  C24 UNL     1      11.111  -2.563  48.368  1.00  0.00     0.020 C 
HETATM   28  C21 UNL     1       9.529  -0.973  50.143  1.00  0.00    -0.013 C 
HETATM   29  C23 UNL     1       9.011  -1.520  48.882  1.00  0.00     0.020 C 
ENDBRANCH   1  20
TORSDOF 9
ENDMDL
MODEL 2
REMARK VINA RESULT: -7.723665553      1.764      4.576
REMARK  9 active torsions:
REMARK  status: ('A' for Active; 'I' for Inactive)
REMARK    1  A    between atoms: C2_2  and  N1_3 
REMARK    2  A    between atoms: N1_3  and  C3_4 
REMARK    3  A    between atoms: N1_3  and  C5_6 
REMARK    4  A    between atoms: C5_6  and  C6_7 
REMARK    5  A    between atoms: C6_7  and  N2_8 
REMARK    6  A    between atoms: N2_8  and  C7_10 
REMARK    7  A    between atoms: C7_10  and  C8_11 
REMARK    8  A    between atoms: C7_10  and  C15_20 
REMARK       I    between atoms: C8_11  and  N3_13 
REMARK    9  A    between atoms: N3_13  and  C10_15 
ROOT
HETATM    1  C7  UNL     1       9.022  -2.996  47.629  1.00  0.00     0.082 C 
ENDROOT
BRANCH   1   2
HETATM    2  N2  UNL     1       9.708  -1.709  47.715  1.00  0.00    -0.386 N 
ATOM      3  H2  UNL     1       9.266  -0.797  47.600  1.00  0.00     0.159 HD
BRANCH   2   4
HETATM    4  C6  UNL     1      11.123  -1.930  47.989  1.00  0.00     0.150 C 
BRANCH   4   5
HETATM    5  C5  UNL     1      11.473  -1.811  49.449  1.00  0.00     0.292 C 
BRANCH   5   6
HETATM    6  N1  UNL     1      12.148  -0.681  49.921  1.00  0.00     0.089 N 
BRANCH   6   7
HETATM    7  C2  UNL     1      11.571   0.121  50.922  1.00  0.00     0.268 C 
HETATM    8  C1  UNL     1      10.074  -0.023  50.939  1.00  0.00     0.037 C 
ENDBRANCH   6   7
BRANCH   6   9
HETATM    9  C3  UNL     1      13.446  -1.134  50.432  1.00  0.00     0.268 C 
HETATM   10  C4  UNL     1      14.586  -0.192  50.137  1.00  0.00     0.037 C 
ENDBRANCH   6   9
ENDBRANCH   5   6
ENDBRANCH   4   5
ENDBRANCH   2   4
ENDBRANCH   1   2
BRANCH   1  11
HETATM   11  C8  UNL     1       9.223  -3.638  46.360  1.00  0.00     0.266 C 
HETATM   12  O1  UNL     1       9.106  -2.940  45.293  1.00  0.00    -0.266 OA
HETATM   13  N3  UNL     1       9.527  -5.018  46.106  1.00  0.00    -0.347 N 
HETATM   14  C9  UNL     1       9.725  -5.890  47.222  1.00  0.00     0.153 C 
BRANCH  13  15
HETATM   15  C10 UNL     1       9.542  -5.614  44.794  1.00  0.00     0.087 C 
HETATM   16  C11 UNL     1       8.722  -6.874  44.645  1.00  0.00     0.025 C 
HETATM   17  C12 UNL     1       9.471  -7.762  43.647  1.00  0.00     0.002 C 
HETATM   18  C13 UNL     1      10.887  -7.232  43.613  1.00  0.00     0.002 C 
HETATM   19  C14 UNL     1      10.892  -5.886  44.267  1.00  0.00     0.025 C 
ENDBRANCH  13  15
ENDBRANCH   1  11
BRANCH   1  20
HETATM   20  C15 UNL     1       7.797  -3.034  48.432  1.00  0.00     0.008 C 
HETATM   21  C16 UNL     1       7.286  -1.580  48.455  1.00  0.00     0.020 C 
HETATM   22  C17 UNL     1       6.228  -1.304  49.474  1.00  0.00    -0.013 C 
HETATM   23  C18 UNL     1       5.036  -2.179  49.054  1.00  0.00     0.009 C 
HETATM   24  C22 UNL     1       6.721  -1.596  50.844  1.00  0.00     0.009 C 
HETATM   25  C19 UNL     1       5.507  -3.592  49.087  1.00  0.00    -0.013 C 
HETATM   26  C20 UNL     1       5.903  -3.890  50.504  1.00  0.00     0.009 C 
HETATM   27  C24 UNL     1       6.652  -3.898  48.140  1.00  0.00     0.020 C 
HETATM   28  C21 UNL     1       7.115  -3.058  50.834  1.00  0.00    -0.013 C 
HETATM   29  C23 UNL     1       8.200  -3.388  49.901  1.00  0.00     0.020 C 
ENDBRANCH   1  20
TORSDOF 9
ENDMDL
MODEL 3
REMARK VINA RESULT: -7.683778207      1.737      6.162
REMARK  9 active torsions:
REMARK  status: ('A' for Active; 'I' for Inactive)
REMARK    1  A    between atoms: C2_2  and  N1_3 
REMARK    2  A    between atoms: N1_3  and  C3_4 
REMARK    3  A    between atoms: N1_3  and  C5_6 
REMARK    4  A    between atoms: C5_6  and  C6_7 
REMARK    5  A    between atoms: C6_7  and  N2_8 
REMARK    6  A    between atoms: N2_8  and  C7_10 
REMARK    7  A    between atoms: C7_10  and  C8_11 
REMARK    8  A    between atoms: C7_10  and  C15_20 
REMARK       I    between atoms: C8_11  and  N3_13 
REMARK    9  A    between atoms: N3_13  and  C10_15 
ROOT
HETATM    1  C7  UNL     1       8.131  -3.575  48.095  1.00  0.00     0.082 C 
ENDROOT
BRANCH   1   2
HETATM    2  N2  UNL     1       7.770  -4.776  47.345  1.00  0.00    -0.386 N 
ATOM      3  H2  UNL     1       6.918  -5.320  47.480  1.00  0.00     0.159 HD
BRANCH   2   4
HETATM    4  C6  UNL     1       8.815  -5.075  46.374  1.00  0.00     0.150 C 
BRANCH   4   5
HETATM    5  C5  UNL     1       8.900  -6.537  46.021  1.00  0.00     0.292 C 
BRANCH   5   6
HETATM    6  N1  UNL     1       9.631  -6.949  44.902  1.00  0.00     0.089 N 
BRANCH   6   7
HETATM    7  C2  UNL     1       8.967  -7.288  43.709  1.00  0.00     0.268 C 
HETATM    8  C1  UNL     1       9.674  -8.407  42.993  1.00  0.00     0.037 C 
ENDBRANCH   6   7
BRANCH   6   9
HETATM    9  C3  UNL     1      10.570  -5.871  44.577  1.00  0.00     0.268 C 
HETATM   10  C4  UNL     1      12.020  -6.276  44.647  1.00  0.00     0.037 C 
ENDBRANCH   6   9
ENDBRANCH   5   6
ENDBRANCH   4   5
ENDBRANCH   2   4
ENDBRANCH   1   2
BRANCH   1  11
HETATM   11  C8  UNL     1       9.525  -3.546  48.441  1.00  0.00     0.266 C 
HETATM   12  O1  UNL     1       9.965  -4.403  49.286  1.00  0.00    -0.266 OA
HETATM   13  N3  UNL     1      10.534  -2.639  47.972  1.00  0.00    -0.347 N 
HETATM   14  C9  UNL     1      10.172  -1.664  46.992  1.00  0.00     0.153 C 
BRANCH  13  15
HETATM   15  C10 UNL     1      11.871  -2.575  48.504  1.00  0.00     0.087 C 
HETATM   16  C11 UNL     1      12.072  -1.593  49.635  1.00  0.00     0.025 C 
HETATM   17  C12 UNL     1      13.491  -1.037  49.478  1.00  0.00     0.002 C 
HETATM   18  C13 UNL     1      13.887  -1.328  48.048  1.00  0.00     0.002 C 
HETATM   19  C14 UNL     1      12.914  -2.322  47.493  1.00  0.00     0.025 C 
ENDBRANCH  13  15
ENDBRANCH   1  11
BRANCH   1  20
HETATM   20  C15 UNL     1       7.026  -3.071  48.915  1.00  0.00     0.008 C 
HETATM   21  C16 UNL     1       6.756  -1.646  48.394  1.00  0.00     0.020 C 
HETATM   22  C17 UNL     1       5.891  -0.809  49.280  1.00  0.00    -0.013 C 
HETATM   23  C18 UNL     1       4.533  -1.531  49.303  1.00  0.00     0.009 C 
HETATM   24  C22 UNL     1       6.500  -0.655  50.626  1.00  0.00     0.009 C 
HETATM   25  C19 UNL     1       4.778  -2.889  49.862  1.00  0.00    -0.013 C 
HETATM   26  C20 UNL     1       5.297  -2.704  51.258  1.00  0.00     0.009 C 
HETATM   27  C24 UNL     1       5.733  -3.744  49.049  1.00  0.00     0.020 C 
HETATM   28  C21 UNL     1       6.656  -2.060  51.168  1.00  0.00    -0.013 C 
HETATM   29  C23 UNL     1       7.550  -2.919  50.381  1.00  0.00     0.020 C 
ENDBRANCH   1  20
TORSDOF 9
ENDMDL
MODEL 4
REMARK VINA RESULT: -7.575540452      1.632      6.376
REMARK  9 active torsions:
REMARK  status: ('A' for Active; 'I' for Inactive)
REMARK    1  A    between atoms: C2_2  and  N1_3 
REMARK    2  A    between atoms: N1_3  and  C3_4 
REMARK    3  A    between atoms: N1_3  and  C5_6 
REMARK    4  A    between atoms: C5_6  and  C6_7 
REMARK    5  A    between atoms: C6_7  and  N2_8 
REMARK    6  A    between atoms: N2_8  and  C7_10 
REMARK    7  A    between atoms: C7_10  and  C8_11 
REMARK    8  A    between atoms: C7_10  and  C15_20 
REMARK       I    between atoms: C8_11  and  N3_13 
REMARK    9  A    between atoms: N3_13  and  C10_15 
ROOT
HETATM    1  C7  UNL     1       8.637  -3.234  47.656  1.00  0.00     0.082 C 
ENDROOT
BRANCH   1   2
HETATM    2  N2  UNL     1       9.014  -4.599  47.294  1.00  0.00    -0.386 N 
ATOM      3  H2  UNL     1       9.057  -5.388  47.939  1.00  0.00     0.159 HD
BRANCH   2   4
HETATM    4  C6  UNL     1       9.319  -4.658  45.870  1.00  0.00     0.150 C 
BRANCH   4   5
HETATM    5  C5  UNL     1       9.731  -6.030  45.405  1.00  0.00     0.292 C 
BRANCH   5   6
HETATM    6  N1  UNL     1       9.825  -6.311  44.038  1.00  0.00     0.089 N 
BRANCH   6   7
HETATM    7  C2  UNL     1      11.067  -6.642  43.467  1.00  0.00     0.268 C 
HETATM    8  C1  UNL     1      12.172  -6.562  44.485  1.00  0.00     0.037 C 
ENDBRANCH   6   7
BRANCH   6   9
HETATM    9  C3  UNL     1       8.917  -7.428  43.763  1.00  0.00     0.268 C 
HETATM   10  C4  UNL     1       9.500  -8.487  42.861  1.00  0.00     0.037 C 
ENDBRANCH   6   9
ENDBRANCH   5   6
ENDBRANCH   4   5
ENDBRANCH   2   4
ENDBRANCH   1   2
BRANCH   1  11
HETATM   11  C8  UNL     1       9.770  -2.353  47.716  1.00  0.00     0.266 C 
HETATM   12  O1  UNL     1       9.893  -1.450  46.818  1.00  0.00    -0.266 OA
HETATM   13  N3  UNL     1      10.843  -2.357  48.670  1.00  0.00    -0.347 N 
HETATM   14  C9  UNL     1      10.793  -3.294  49.749  1.00  0.00     0.153 C 
BRANCH  13  15
HETATM   15  C10 UNL     1      12.028  -1.546  48.555  1.00  0.00     0.087 C 
HETATM   16  C11 UNL     1      13.217  -2.224  47.915  1.00  0.00     0.025 C 
HETATM   17  C12 UNL     1      14.462  -1.663  48.611  1.00  0.00     0.002 C 
HETATM   18  C13 UNL     1      13.967  -1.064  49.909  1.00  0.00     0.002 C 
HETATM   19  C14 UNL     1      12.477  -0.945  49.824  1.00  0.00     0.025 C 
ENDBRANCH  13  15
ENDBRANCH   1  11
BRANCH   1  20
HETATM   20  C15 UNL     1       7.459  -3.188  48.525  1.00  0.00     0.008 C 
HETATM   21  C16 UNL     1       6.991  -1.720  48.492  1.00  0.00     0.020 C 
HETATM   22  C17 UNL     1       6.001  -1.354  49.549  1.00  0.00    -0.013 C 
HETATM   23  C18 UNL     1       4.762  -2.214  49.246  1.00  0.00     0.009 C 
HETATM   24  C22 UNL     1       6.561  -1.584  50.905  1.00  0.00     0.009 C 
HETATM   25  C19 UNL     1       5.194  -3.637  49.335  1.00  0.00    -0.013 C 
HETATM   26  C20 UNL     1       5.661  -3.867  50.744  1.00  0.00     0.009 C 
HETATM   27  C24 UNL     1       6.276  -4.031  48.347  1.00  0.00     0.020 C 
HETATM   28  C21 UNL     1       6.912  -3.056  50.959  1.00  0.00    -0.013 C 
HETATM   29  C23 UNL     1       7.934  -3.472  49.988  1.00  0.00     0.020 C 
ENDBRANCH   1  20
TORSDOF 9
ENDMDL
MODEL 5
REMARK VINA RESULT: -7.524797657      3.092      7.778
REMARK  9 active torsions:
REMARK  status: ('A' for Active; 'I' for Inactive)
REMARK    1  A    between atoms: C2_2  and  N1_3 
REMARK    2  A    between atoms: N1_3  and  C3_4 
REMARK    3  A    between atoms: N1_3  and  C5_6 
REMARK    4  A    between atoms: C5_6  and  C6_7 
REMARK    5  A    between atoms: C6_7  and  N2_8 
REMARK    6  A    between atoms: N2_8  and  C7_10 
REMARK    7  A    between atoms: C7_10  and  C8_11 
REMARK    8  A    between atoms: C7_10  and  C15_20 
REMARK       I    between atoms: C8_11  and  N3_13 
REMARK    9  A    between atoms: N3_13  and  C10_15 
ROOT
HETATM    1  C7  UNL     1       9.511  -2.566  50.310  1.00  0.00     0.082 C 
ENDROOT
BRANCH   1   2
HETATM    2  N2  UNL     1      10.962  -2.603  50.475  1.00  0.00    -0.386 N 
ATOM      3  H2  UNL     1      11.558  -3.405  50.269  1.00  0.00     0.159 HD
BRANCH   2   4
HETATM    4  C6  UNL     1      11.427  -1.317  50.980  1.00  0.00     0.150 C 
BRANCH   4   5
HETATM    5  C5  UNL     1      12.475  -0.677  50.108  1.00  0.00     0.292 C 
BRANCH   5   6
HETATM    6  N1  UNL     1      13.797  -1.132  50.146  1.00  0.00     0.089 N 
BRANCH   6   7
HETATM    7  C2  UNL     1      14.350  -1.793  49.035  1.00  0.00     0.268 C 
HETATM    8  C1  UNL     1      13.400  -1.785  47.869  1.00  0.00     0.037 C 
ENDBRANCH   6   7
BRANCH   6   9
HETATM    9  C3  UNL     1      14.647   0.031  50.418  1.00  0.00     0.268 C 
HETATM   10  C4  UNL     1      16.081  -0.314  50.730  1.00  0.00     0.037 C 
ENDBRANCH   6   9
ENDBRANCH   5   6
ENDBRANCH   4   5
ENDBRANCH   2   4
ENDBRANCH   1   2
BRANCH   1  11
HETATM   11  C8  UNL     1       8.815  -2.854  51.533  1.00  0.00     0.266 C 
HETATM   12  O1  UNL     1       9.041  -3.968  52.120  1.00  0.00    -0.266 OA
HETATM   13  N3  UNL     1       7.841  -2.043  52.207  1.00  0.00    -0.347 N 
HETATM   14  C9  UNL     1       7.536  -0.754  51.669  1.00  0.00     0.153 C 
BRANCH  13  15
HETATM   15  C10 UNL     1       7.065  -2.485  53.338  1.00  0.00     0.087 C 
HETATM   16  C11 UNL     1       5.567  -2.367  53.182  1.00  0.00     0.025 C 
HETATM   17  C12 UNL     1       5.014  -2.030  54.571  1.00  0.00     0.002 C 
HETATM   18  C13 UNL     1       6.191  -1.505  55.362  1.00  0.00     0.002 C 
HETATM   19  C14 UNL     1       7.441  -1.852  54.615  1.00  0.00     0.025 C 
ENDBRANCH  13  15
ENDBRANCH   1  11
BRANCH   1  20
HETATM   20  C15 UNL     1       9.089  -2.958  48.962  1.00  0.00     0.008 C 
HETATM   21  C16 UNL     1       9.975  -4.165  48.598  1.00  0.00     0.020 C 
HETATM   22  C17 UNL     1       9.957  -4.541  47.152  1.00  0.00    -0.013 C 
HETATM   23  C18 UNL     1       8.506  -4.965  46.872  1.00  0.00     0.009 C 
HETATM   24  C22 UNL     1      10.416  -3.413  46.303  1.00  0.00     0.009 C 
HETATM   25  C19 UNL     1       7.648  -3.783  47.165  1.00  0.00    -0.013 C 
HETATM   26  C20 UNL     1       8.067  -2.691  46.224  1.00  0.00     0.009 C 
HETATM   27  C24 UNL     1       7.712  -3.298  48.602  1.00  0.00     0.020 C 
HETATM   28  C21 UNL     1       9.466  -2.270  46.591  1.00  0.00    -0.013 C 
HETATM   29  C23 UNL     1       9.484  -1.803  47.984  1.00  0.00     0.020 C 
ENDBRANCH   1  20
TORSDOF 9
ENDMDL
