MODEL 1
REMARK VINA RESULT: -7.277410208      0.000      0.000
REMARK  11 active torsions:
REMARK  status: ('A' for Active; 'I' for Inactive)
REMARK    1  A    between atoms: C2_2  and  N1_3 
REMARK    2  A    between atoms: N1_3  and  C3_4 
REMARK    3  A    between atoms: N1_3  and  C5_6 
REMARK    4  A    between atoms: C5_6  and  O1_7 
REMARK    5  A    between atoms: C5_6  and  C6_9 
REMARK    6  A    between atoms: C6_9  and  N2_10 
REMARK    7  A    between atoms: N2_10  and  C7_12 
REMARK    8  A    between atoms: C7_12  and  O2_13 
REMARK    9  A    between atoms: C7_12  and  C8_15 
REMARK   10  A    between atoms: C9_16  and  C10_17 
REMARK   11  A    between atoms: C10_17  and  O3_18 
ROOT
HETATM    1  C7  UNL     1       8.237  -0.896  50.386  1.00  0.00     0.143 C 
ENDROOT
BRANCH   1   2
HETATM    2  N2  UNL     1       7.808  -1.018  51.678  1.00  0.00    -0.354 N 
ATOM      3  H2  UNL     1       7.841  -0.184  52.264  1.00  0.00     0.162 HD
BRANCH   2   4
HETATM    4  C6  UNL     1       7.298  -2.270  52.295  1.00  0.00     0.097 C 
HETATM    5  C21 UNL     1       7.267  -2.171  53.758  1.00  0.00     0.040 C 
HETATM    6  C22 UNL     1       8.803  -2.152  54.123  1.00  0.00     0.003 C 
HETATM    7  C23 UNL     1       9.357  -3.184  53.167  1.00  0.00     0.003 C 
HETATM    8  C24 UNL     1       8.396  -3.313  52.006  1.00  0.00     0.040 C 
BRANCH   4   9
HETATM    9  C5  UNL     1       6.070  -2.679  51.637  1.00  0.00     0.142 C 
BRANCH   9  10
HETATM   10  N1  UNL     1       4.949  -1.971  51.217  1.00  0.00    -0.364 N 
BRANCH  10  11
HETATM   11  C2  UNL     1       4.622  -2.050  49.761  1.00  0.00     0.120 C 
HETATM   12  C1  UNL     1       3.255  -2.612  49.548  1.00  0.00     0.026 C 
ENDBRANCH  10  11
BRANCH  10  13
HETATM   13  C3  UNL     1       4.072  -1.142  51.963  1.00  0.00     0.120 C 
HETATM   14  C4  UNL     1       4.468   0.335  51.977  1.00  0.00     0.026 C 
ENDBRANCH  10  13
ENDBRANCH   9  10
BRANCH   9  15
HETATM   15  O1  UNL     1       5.973  -3.987  51.380  1.00  0.00    -0.348 OA
ATOM     16  H1  UNL     1       5.868  -4.168  50.453  1.00  0.00     0.219 HD
ENDBRANCH   9  15
ENDBRANCH   4   9
ENDBRANCH   2   4
ENDBRANCH   1   2
BRANCH   1  17
HETATM   17  O2  UNL     1       7.502   0.096  49.807  1.00  0.00    -0.346 OA
ATOM     18  H2  UNL     1       8.107   0.656  49.334  1.00  0.00     0.219 HD
ENDBRANCH   1  17
BRANCH   1  19
HETATM   19  C8  UNL     1       9.142  -1.395  49.413  1.00  0.00     0.001 C 
HETATM   20  C9  UNL     1      10.444  -1.372  49.390  1.00  0.00    -0.027 C 
HETATM   21  C12 UNL     1      11.531  -1.852  48.472  1.00  0.00    -0.012 C 
HETATM   22  C13 UNL     1      11.328  -2.116  47.075  1.00  0.00     0.010 C 
HETATM   23  C14 UNL     1      11.408  -3.546  46.594  1.00  0.00     0.013 C 
HETATM   24  C19 UNL     1       9.942  -1.747  46.717  1.00  0.00     0.018 C 
HETATM   25  C15 UNL     1      10.195  -4.346  46.775  1.00  0.00    -0.012 C 
HETATM   26  C16 UNL     1       9.630  -3.944  48.106  1.00  0.00     0.014 C 
HETATM   27  C20 UNL     1       8.854  -3.743  46.346  1.00  0.00     0.014 C 
HETATM   28  C17 UNL     1       9.110  -2.754  47.412  1.00  0.00    -0.035 C 
HETATM   29  C18 UNL     1       8.292  -2.047  48.279  1.00  0.00     0.053 C 
BRANCH  20  30
HETATM   30  C10 UNL     1      11.071  -0.728  50.571  1.00  0.00     0.206 C 
BRANCH  30  31
HETATM   31  O3  UNL     1      12.375  -0.293  50.179  1.00  0.00    -0.391 OA
HETATM   32  C11 UNL     1      12.954   0.358  51.255  1.00  0.00     0.201 C 
ENDBRANCH  30  31
ENDBRANCH  20  30
ENDBRANCH   1  19
TORSDOF 11
ENDMDL
MODEL 2
REMARK VINA RESULT: -7.263832536      2.028      2.844
REMARK  11 active torsions:
REMARK  status: ('A' for Active; 'I' for Inactive)
REMARK    1  A    between atoms: C2_2  and  N1_3 
REMARK    2  A    between atoms: N1_3  and  C3_4 
REMARK    3  A    between atoms: N1_3  and  C5_6 
REMARK    4  A    between atoms: C5_6  and  O1_7 
REMARK    5  A    between atoms: C5_6  and  C6_9 
REMARK    6  A    between atoms: C6_9  and  N2_10 
REMARK    7  A    between atoms: N2_10  and  C7_12 
REMARK    8  A    between atoms: C7_12  and  O2_13 
REMARK    9  A    between atoms: C7_12  and  C8_15 
REMARK   10  A    between atoms: C9_16  and  C10_17 
REMARK   11  A    between atoms: C10_17  and  O3_18 
ROOT
HETATM    1  C7  UNL     1       6.525  -3.223  50.763  1.00  0.00     0.143 C 
ENDROOT
BRANCH   1   2
HETATM    2  N2  UNL     1       6.102  -3.112  52.058  1.00  0.00    -0.354 N 
ATOM      3  H2  UNL     1       5.974  -3.976  52.586  1.00  0.00     0.162 HD
BRANCH   2   4
HETATM    4  C6  UNL     1       5.814  -1.832  52.757  1.00  0.00     0.097 C 
HETATM    5  C21 UNL     1       7.034  -1.242  53.318  1.00  0.00     0.040 C 
HETATM    6  C22 UNL     1       7.387  -2.252  54.480  1.00  0.00     0.003 C 
HETATM    7  C23 UNL     1       6.020  -2.546  55.055  1.00  0.00     0.003 C 
HETATM    8  C24 UNL     1       4.987  -2.248  53.990  1.00  0.00     0.040 C 
BRANCH   4   9
HETATM    9  C5  UNL     1       5.002  -0.979  51.907  1.00  0.00     0.142 C 
BRANCH   9  10
HETATM   10  N1  UNL     1       5.269   0.214  51.244  1.00  0.00    -0.364 N 
BRANCH  10  11
HETATM   11  C2  UNL     1       4.523   1.418  51.719  1.00  0.00     0.120 C 
HETATM   12  C1  UNL     1       5.014   1.859  53.058  1.00  0.00     0.026 C 
ENDBRANCH  10  11
BRANCH  10  13
HETATM   13  C3  UNL     1       6.131   0.463  50.144  1.00  0.00     0.120 C 
HETATM   14  C4  UNL     1       5.465   0.296  48.778  1.00  0.00     0.026 C 
ENDBRANCH  10  13
ENDBRANCH   9  10
BRANCH   9  15
HETATM   15  O1  UNL     1       3.748  -1.399  51.715  1.00  0.00    -0.348 OA
ATOM     16  H1  UNL     1       3.539  -2.166  52.236  1.00  0.00     0.219 HD
ENDBRANCH   9  15
ENDBRANCH   4   9
ENDBRANCH   2   4
ENDBRANCH   1   2
BRANCH   1  17
HETATM   17  O2  UNL     1       5.451  -3.609  50.017  1.00  0.00    -0.346 OA
ATOM     18  H2  UNL     1       5.781  -4.136  49.298  1.00  0.00     0.219 HD
ENDBRANCH   1  17
BRANCH   1  19
HETATM   19  C8  UNL     1       7.638  -3.094  49.892  1.00  0.00     0.001 C 
HETATM   20  C9  UNL     1       8.912  -3.219  50.135  1.00  0.00    -0.027 C 
HETATM   21  C12 UNL     1      10.189  -3.133  49.350  1.00  0.00    -0.012 C 
HETATM   22  C13 UNL     1      10.309  -2.423  48.108  1.00  0.00     0.010 C 
HETATM   23  C14 UNL     1      10.538  -3.218  46.844  1.00  0.00     0.013 C 
HETATM   24  C19 UNL     1       9.026  -1.747  47.821  1.00  0.00     0.018 C 
HETATM   25  C15 UNL     1       9.339  -3.797  46.233  1.00  0.00    -0.012 C 
HETATM   26  C16 UNL     1       8.482  -4.268  47.371  1.00  0.00     0.014 C 
HETATM   27  C20 UNL     1       8.109  -2.903  46.052  1.00  0.00     0.014 C 
HETATM   28  C17 UNL     1       8.092  -2.857  47.528  1.00  0.00    -0.035 C 
HETATM   29  C18 UNL     1       7.081  -2.770  48.471  1.00  0.00     0.053 C 
BRANCH  20  30
HETATM   30  C10 UNL     1       9.241  -3.553  51.543  1.00  0.00     0.206 C 
BRANCH  30  31
HETATM   31  O3  UNL     1      10.592  -3.147  51.773  1.00  0.00    -0.391 OA
HETATM   32  C11 UNL     1      10.597  -2.235  52.815  1.00  0.00     0.201 C 
ENDBRANCH  30  31
ENDBRANCH  20  30
ENDBRANCH   1  19
TORSDOF 11
ENDMDL
MODEL 3
REMARK VINA RESULT: -7.244738950      1.907      3.069
REMARK  11 active torsions:
REMARK  status: ('A' for Active; 'I' for Inactive)
REMARK    1  A    between atoms: C2_2  and  N1_3 
REMARK    2  A    between atoms: N1_3  and  C3_4 
REMARK    3  A    between atoms: N1_3  and  C5_6 
REMARK    4  A    between atoms: C5_6  and  O1_7 
REMARK    5  A    between atoms: C5_6  and  C6_9 
REMARK    6  A    between atoms: C6_9  and  N2_10 
REMARK    7  A    between atoms: N2_10  and  C7_12 
REMARK    8  A    between atoms: C7_12  and  O2_13 
REMARK    9  A    between atoms: C7_12  and  C8_15 
REMARK   10  A    between atoms: C9_16  and  C10_17 
REMARK   11  A    between atoms: C10_17  and  O3_18 
ROOT
HETATM    1  C7  UNL     1       6.702  -0.834  49.135  1.00  0.00     0.143 C 
ENDROOT
BRANCH   1   2
HETATM    2  N2  UNL     1       5.369  -1.090  49.291  1.00  0.00    -0.354 N 
ATOM      3  H2  UNL     1       4.727  -0.658  48.625  1.00  0.00     0.162 HD
BRANCH   2   4
HETATM    4  C6  UNL     1       4.781  -1.946  50.354  1.00  0.00     0.097 C 
HETATM    5  C21 UNL     1       5.590  -3.148  50.582  1.00  0.00     0.040 C 
HETATM    6  C22 UNL     1       5.358  -3.963  49.249  1.00  0.00     0.003 C 
HETATM    7  C23 UNL     1       3.882  -3.739  49.008  1.00  0.00     0.003 C 
HETATM    8  C24 UNL     1       3.472  -2.478  49.735  1.00  0.00     0.040 C 
BRANCH   4   9
HETATM    9  C5  UNL     1       4.461  -1.138  51.517  1.00  0.00     0.142 C 
BRANCH   9  10
HETATM   10  N1  UNL     1       5.149  -0.876  52.698  1.00  0.00    -0.364 N 
BRANCH  10  11
HETATM   11  C2  UNL     1       4.583  -1.478  53.942  1.00  0.00     0.120 C 
HETATM   12  C1  UNL     1       5.336  -2.706  54.336  1.00  0.00     0.026 C 
ENDBRANCH  10  11
BRANCH  10  13
HETATM   13  C3  UNL     1       6.307  -0.085  52.912  1.00  0.00     0.120 C 
HETATM   14  C4  UNL     1       6.057   1.421  52.843  1.00  0.00     0.026 C 
ENDBRANCH  10  13
ENDBRANCH   9  10
BRANCH   9  15
HETATM   15  O1  UNL     1       3.277  -0.519  51.469  1.00  0.00    -0.348 OA
ATOM     16  H1  UNL     1       2.980  -0.373  50.579  1.00  0.00     0.219 HD
ENDBRANCH   9  15
ENDBRANCH   4   9
ENDBRANCH   2   4
ENDBRANCH   1   2
BRANCH   1  17
HETATM   17  O2  UNL     1       6.917   0.453  49.528  1.00  0.00    -0.346 OA
ATOM     18  H2  UNL     1       7.748   0.473  49.990  1.00  0.00     0.219 HD
ENDBRANCH   1  17
BRANCH   1  19
HETATM   19  C8  UNL     1       7.947  -1.380  48.728  1.00  0.00     0.001 C 
HETATM   20  C9  UNL     1       9.072  -1.481  49.377  1.00  0.00    -0.027 C 
HETATM   21  C12 UNL     1      10.444  -2.029  49.110  1.00  0.00    -0.012 C 
HETATM   22  C13 UNL     1      10.977  -2.221  47.790  1.00  0.00     0.010 C 
HETATM   23  C14 UNL     1      11.205  -3.633  47.305  1.00  0.00     0.013 C 
HETATM   24  C19 UNL     1      10.003  -1.708  46.805  1.00  0.00     0.018 C 
HETATM   25  C15 UNL     1      10.026  -4.320  46.773  1.00  0.00    -0.012 C 
HETATM   26  C16 UNL     1       8.881  -3.915  47.655  1.00  0.00     0.014 C 
HETATM   27  C20 UNL     1       9.141  -3.576  45.769  1.00  0.00     0.014 C 
HETATM   28  C17 UNL     1       8.870  -2.656  46.891  1.00  0.00    -0.035 C 
HETATM   29  C18 UNL     1       7.767  -1.907  47.270  1.00  0.00     0.053 C 
BRANCH  20  30
HETATM   30  C10 UNL     1       9.036  -0.943  50.760  1.00  0.00     0.206 C 
BRANCH  30  31
HETATM   31  O3  UNL     1       9.649   0.347  50.732  1.00  0.00    -0.391 OA
HETATM   32  C11 UNL     1       9.884   0.741  52.039  1.00  0.00     0.201 C 
ENDBRANCH  30  31
ENDBRANCH  20  30
ENDBRANCH   1  19
TORSDOF 11
ENDMDL
MODEL 4
REMARK VINA RESULT: -7.221171754      1.804      3.275
REMARK  11 active torsions:
REMARK  status: ('A' for Active; 'I' for Inactive)
REMARK    1  A    between atoms: C2_2  and  N1_3 
REMARK    2  A    between atoms: N1_3  and  C3_4 
REMARK    3  A    between atoms: N1_3  and  C5_6 
REMARK    4  A    between atoms: C5_6  and  O1_7 
REMARK    5  A    between atoms: C5_6  and  C6_9 
REMARK    6  A    between atoms: C6_9  and  N2_10 
REMARK    7  A    between atoms: N2_10  and  C7_12 
REMARK    8  A    between atoms: C7_12  and  O2_13 
REMARK    9  A    between atoms: C7_12  and  C8_15 
REMARK   10  A    between atoms: C9_16  and  C10_17 
REMARK   11  A    between atoms: C10_17  and  O3_18 
ROOT
HETATM    1  C7  UNL     1       6.497  -0.796  49.044  1.00  0.00     0.143 C 
ENDROOT
BRANCH   1   2
HETATM    2  N2  UNL     1       5.187  -1.095  49.292  1.00  0.00    -0.354 N 
ATOM      3  H2  UNL     1       4.483  -0.643  48.709  1.00  0.00     0.162 HD
BRANCH   2   4
HETATM    4  C6  UNL     1       4.708  -2.028  50.345  1.00  0.00     0.097 C 
HETATM    5  C21 UNL     1       5.511  -3.254  50.381  1.00  0.00     0.040 C 
HETATM    6  C22 UNL     1       5.109  -3.955  49.024  1.00  0.00     0.003 C 
HETATM    7  C23 UNL     1       3.620  -3.694  48.976  1.00  0.00     0.003 C 
HETATM    8  C24 UNL     1       3.325  -2.491  49.845  1.00  0.00     0.040 C 
BRANCH   4   9
HETATM    9  C5  UNL     1       4.543  -1.313  51.599  1.00  0.00     0.142 C 
BRANCH   9  10
HETATM   10  N1  UNL     1       5.453  -0.859  52.548  1.00  0.00    -0.364 N 
BRANCH  10  11
HETATM   11  C2  UNL     1       5.750   0.606  52.534  1.00  0.00     0.120 C 
HETATM   12  C1  UNL     1       6.702   0.971  53.624  1.00  0.00     0.026 C 
ENDBRANCH  10  11
BRANCH  10  13
HETATM   13  C3  UNL     1       6.183  -1.588  53.522  1.00  0.00     0.120 C 
HETATM   14  C4  UNL     1       5.364  -2.657  54.246  1.00  0.00     0.026 C 
ENDBRANCH  10  13
ENDBRANCH   9  10
BRANCH   9  15
HETATM   15  O1  UNL     1       3.279  -1.030  51.928  1.00  0.00    -0.348 OA
ATOM     16  H1  UNL     1       2.806  -0.606  51.221  1.00  0.00     0.219 HD
ENDBRANCH   9  15
ENDBRANCH   4   9
ENDBRANCH   2   4
ENDBRANCH   1   2
BRANCH   1  17
HETATM   17  O2  UNL     1       6.630   0.557  49.141  1.00  0.00    -0.346 OA
ATOM     18  H2  UNL     1       7.546   0.739  49.319  1.00  0.00     0.219 HD
ENDBRANCH   1  17
BRANCH   1  19
HETATM   19  C8  UNL     1       7.769  -1.338  48.726  1.00  0.00     0.001 C 
HETATM   20  C9  UNL     1       8.853  -1.413  49.445  1.00  0.00    -0.027 C 
HETATM   21  C12 UNL     1      10.244  -1.952  49.276  1.00  0.00    -0.012 C 
HETATM   22  C13 UNL     1      10.859  -2.168  47.996  1.00  0.00     0.010 C 
HETATM   23  C14 UNL     1      11.129  -3.588  47.559  1.00  0.00     0.013 C 
HETATM   24  C19 UNL     1       9.943  -1.687  46.941  1.00  0.00     0.018 C 
HETATM   25  C15 UNL     1       9.991  -4.299  46.972  1.00  0.00    -0.012 C 
HETATM   26  C16 UNL     1       8.790  -3.886  47.771  1.00  0.00     0.014 C 
HETATM   27  C20 UNL     1       9.163  -3.588  45.897  1.00  0.00     0.014 C 
HETATM   28  C17 UNL     1       8.816  -2.645  46.980  1.00  0.00    -0.035 C 
HETATM   29  C18 UNL     1       7.685  -1.900  47.273  1.00  0.00     0.053 C 
BRANCH  20  30
HETATM   30  C10 UNL     1       8.727  -0.844  50.810  1.00  0.00     0.206 C 
BRANCH  30  31
HETATM   31  O3  UNL     1       9.176   0.512  50.751  1.00  0.00    -0.391 OA
HETATM   32  C11 UNL     1      10.000   0.740  51.840  1.00  0.00     0.201 C 
ENDBRANCH  30  31
ENDBRANCH  20  30
ENDBRANCH   1  19
TORSDOF 11
ENDMDL
MODEL 5
REMARK VINA RESULT: -7.197367042      1.626      2.440
REMARK  11 active torsions:
REMARK  status: ('A' for Active; 'I' for Inactive)
REMARK    1  A    between atoms: C2_2  and  N1_3 
REMARK    2  A    between atoms: N1_3  and  C3_4 
REMARK    3  A    between atoms: N1_3  and  C5_6 
REMARK    4  A    between atoms: C5_6  and  O1_7 
REMARK    5  A    between atoms: C5_6  and  C6_9 
REMARK    6  A    between atoms: C6_9  and  N2_10 
REMARK    7  A    between atoms: N2_10  and  C7_12 
REMARK    8  A    between atoms: C7_12  and  O2_13 
REMARK    9  A    between atoms: C7_12  and  C8_15 
REMARK   10  A    between atoms: C9_16  and  C10_17 
REMARK   11  A    between atoms: C10_17  and  O3_18 
ROOT
HETATM    1  C7  UNL     1       7.297  -0.980  49.593  1.00  0.00     0.143 C 
ENDROOT
BRANCH   1   2
HETATM    2  N2  UNL     1       6.679  -0.948  50.811  1.00  0.00    -0.354 N 
ATOM      3  H2  UNL     1       7.093  -0.356  51.533  1.00  0.00     0.162 HD
BRANCH   2   4
HETATM    4  C6  UNL     1       5.451  -1.706  51.168  1.00  0.00     0.097 C 
HETATM    5  C21 UNL     1       5.727  -2.722  52.190  1.00  0.00     0.040 C 
HETATM    6  C22 UNL     1       6.613  -3.760  51.396  1.00  0.00     0.003 C 
HETATM    7  C23 UNL     1       5.908  -3.802  50.059  1.00  0.00     0.003 C 
HETATM    8  C24 UNL     1       5.122  -2.519  49.900  1.00  0.00     0.040 C 
BRANCH   4   9
HETATM    9  C5  UNL     1       4.362  -0.783  51.436  1.00  0.00     0.142 C 
BRANCH   9  10
HETATM   10  N1  UNL     1       4.214   0.255  52.350  1.00  0.00    -0.364 N 
BRANCH  10  11
HETATM   11  C2  UNL     1       3.541  -0.088  53.639  1.00  0.00     0.120 C 
HETATM   12  C1  UNL     1       2.494   0.920  53.983  1.00  0.00     0.026 C 
ENDBRANCH  10  11
BRANCH  10  13
HETATM   13  C3  UNL     1       4.578   1.621  52.233  1.00  0.00     0.120 C 
HETATM   14  C4  UNL     1       5.862   1.992  52.976  1.00  0.00     0.026 C 
ENDBRANCH  10  13
ENDBRANCH   9  10
BRANCH   9  15
HETATM   15  O1  UNL     1       3.279  -0.948  50.670  1.00  0.00    -0.348 OA
ATOM     16  H1  UNL     1       3.382  -0.562  49.809  1.00  0.00     0.219 HD
ENDBRANCH   9  15
ENDBRANCH   4   9
ENDBRANCH   2   4
ENDBRANCH   1   2
BRANCH   1  17
HETATM   17  O2  UNL     1       6.515  -0.279  48.723  1.00  0.00    -0.346 OA
ATOM     18  H2  UNL     1       7.085   0.313  48.246  1.00  0.00     0.219 HD
ENDBRANCH   1  17
BRANCH   1  19
HETATM   19  C8  UNL     1       8.427  -1.454  48.879  1.00  0.00     0.001 C 
HETATM   20  C9  UNL     1       9.695  -1.376  49.168  1.00  0.00    -0.027 C 
HETATM   21  C12 UNL     1      10.988  -1.824  48.550  1.00  0.00    -0.012 C 
HETATM   22  C13 UNL     1      11.138  -2.118  47.153  1.00  0.00     0.010 C 
HETATM   23  C14 UNL     1      11.386  -3.551  46.743  1.00  0.00     0.013 C 
HETATM   24  C19 UNL     1       9.866  -1.814  46.464  1.00  0.00     0.018 C 
HETATM   25  C15 UNL     1      10.196  -4.399  46.647  1.00  0.00    -0.012 C 
HETATM   26  C16 UNL     1       9.313  -4.001  47.793  1.00  0.00     0.014 C 
HETATM   27  C20 UNL     1       8.976  -3.861  45.894  1.00  0.00     0.014 C 
HETATM   28  C17 UNL     1       8.930  -2.845  46.965  1.00  0.00    -0.035 C 
HETATM   29  C18 UNL     1       7.901  -2.161  47.592  1.00  0.00     0.053 C 
BRANCH  20  30
HETATM   30  C10 UNL     1       9.995  -0.686  50.448  1.00  0.00     0.206 C 
BRANCH  30  31
HETATM   31  O3  UNL     1      11.341  -0.213  50.374  1.00  0.00    -0.391 OA
HETATM   32  C11 UNL     1      11.595   0.543  51.506  1.00  0.00     0.201 C 
ENDBRANCH  30  31
ENDBRANCH  20  30
ENDBRANCH   1  19
TORSDOF 11
ENDMDL
