MODEL 1
REMARK VINA RESULT: -6.167916970      0.000      0.000
REMARK  4 active torsions:
REMARK  status: ('A' for Active; 'I' for Inactive)
REMARK    1  A    between atoms: N1_2  and  C3_4 
REMARK    2  A    between atoms: C3_4  and  C4_5 
REMARK    3  A    between atoms: C8_11  and  N3_12 
REMARK    4  A    between atoms: N3_12  and  C9_14 
ROOT
HETATM    1  C4  UNL     1      20.631   3.040  63.249  1.00  0.00     0.012 A 
HETATM    2  C5  UNL     1      21.228   2.147  64.100  1.00  0.00     0.098 A 
HETATM    3  N2  UNL     1      22.573   2.148  64.267  1.00  0.00    -0.375 N 
ATOM      4  H2  UNL     1      23.002   1.477  64.903  1.00  0.00     0.164 HD
HETATM    5  C6  UNL     1      23.344   3.018  63.606  1.00  0.00     0.090 A 
HETATM    6  C7  UNL     1      22.808   3.951  62.728  1.00  0.00     0.047 A 
HETATM    7  C8  UNL     1      21.439   3.953  62.557  1.00  0.00     0.043 A 
ENDROOT
BRANCH   7   8
HETATM    8  N3  UNL     1      20.819   4.854  61.651  1.00  0.00    -0.356 N 
ATOM      9  H3  UNL     1      20.191   5.549  62.055  1.00  0.00     0.166 HD
BRANCH   8  10
HETATM   10  C9  UNL     1      20.983   4.888  60.252  1.00  0.00     0.032 A 
HETATM   11  C10 UNL     1      22.185   4.772  59.626  1.00  0.00     0.029 A 
HETATM   12  C11 UNL     1      22.319   4.787  58.242  1.00  0.00     0.002 A 
HETATM   13  C12 UNL     1      21.172   4.927  57.493  1.00  0.00     0.000 A 
HETATM   14  C13 UNL     1      19.944   5.045  58.102  1.00  0.00     0.002 A 
HETATM   15  C14 UNL     1      19.842   5.027  59.474  1.00  0.00     0.029 A 
ENDBRANCH   8  10
ENDBRANCH   7   8
BRANCH   1  16
HETATM   16  C3  UNL     1      19.169   3.101  63.028  1.00  0.00     0.313 C 
BRANCH  16  17
HETATM   17  N1  UNL     1      18.603   1.980  62.348  1.00  0.00     0.084 N 
HETATM   18  C1  UNL     1      17.641   1.405  63.319  1.00  0.00     0.309 C 
HETATM   19  C2  UNL     1      17.778   2.471  61.231  1.00  0.00     0.309 C 
ENDBRANCH  16  17
ENDBRANCH   1  16
TORSDOF 4
ENDMDL
MODEL 2
REMARK VINA RESULT: -6.167238626      0.985      3.485
REMARK  4 active torsions:
REMARK  status: ('A' for Active; 'I' for Inactive)
REMARK    1  A    between atoms: N1_2  and  C3_4 
REMARK    2  A    between atoms: C3_4  and  C4_5 
REMARK    3  A    between atoms: C8_11  and  N3_12 
REMARK    4  A    between atoms: N3_12  and  C9_14 
ROOT
HETATM    1  C4  UNL     1      20.736   2.395  62.664  1.00  0.00     0.012 A 
HETATM    2  C5  UNL     1      20.189   1.316  63.306  1.00  0.00     0.098 A 
HETATM    3  N2  UNL     1      18.845   1.195  63.429  1.00  0.00    -0.375 N 
ATOM      4  H2  UNL     1      18.454   0.386  63.911  1.00  0.00     0.164 HD
HETATM    5  C6  UNL     1      18.026   2.124  62.925  1.00  0.00     0.090 A 
HETATM    6  C7  UNL     1      18.508   3.244  62.262  1.00  0.00     0.047 A 
HETATM    7  C8  UNL     1      19.876   3.369  62.135  1.00  0.00     0.043 A 
ENDROOT
BRANCH   7   8
HETATM    8  N3  UNL     1      20.448   4.504  61.499  1.00  0.00    -0.356 N 
ATOM      9  H3  UNL     1      20.804   5.239  62.110  1.00  0.00     0.166 HD
BRANCH   8  10
HETATM   10  C9  UNL     1      20.574   4.718  60.112  1.00  0.00     0.032 A 
HETATM   11  C10 UNL     1      19.521   4.933  59.280  1.00  0.00     0.029 A 
HETATM   12  C11 UNL     1      19.672   5.164  57.916  1.00  0.00     0.002 A 
HETATM   13  C12 UNL     1      20.952   5.169  57.410  1.00  0.00     0.000 A 
HETATM   14  C13 UNL     1      22.035   4.953  58.232  1.00  0.00     0.002 A 
HETATM   15  C14 UNL     1      21.855   4.729  59.576  1.00  0.00     0.029 A 
ENDBRANCH   8  10
ENDBRANCH   7   8
BRANCH   1  16
HETATM   16  C3  UNL     1      22.192   2.585  62.486  1.00  0.00     0.313 C 
BRANCH  16  17
HETATM   17  N1  UNL     1      22.881   3.139  63.607  1.00  0.00     0.084 N 
HETATM   18  C1  UNL     1      23.842   2.083  64.009  1.00  0.00     0.309 C 
HETATM   19  C2  UNL     1      23.714   4.263  63.144  1.00  0.00     0.309 C 
ENDBRANCH  16  17
ENDBRANCH   1  16
TORSDOF 4
ENDMDL
MODEL 3
REMARK VINA RESULT: -6.146424217      1.023      1.174
REMARK  4 active torsions:
REMARK  status: ('A' for Active; 'I' for Inactive)
REMARK    1  A    between atoms: N1_2  and  C3_4 
REMARK    2  A    between atoms: C3_4  and  C4_5 
REMARK    3  A    between atoms: C8_11  and  N3_12 
REMARK    4  A    between atoms: N3_12  and  C9_14 
ROOT
HETATM    1  C4  UNL     1      21.289   2.678  63.008  1.00  0.00     0.012 A 
HETATM    2  C5  UNL     1      22.234   2.075  63.796  1.00  0.00     0.098 A 
HETATM    3  N2  UNL     1      23.418   2.687  64.043  1.00  0.00    -0.375 N 
ATOM      4  H2  UNL     1      24.111   2.224  64.631  1.00  0.00     0.164 HD
HETATM    5  C6  UNL     1      23.688   3.890  63.525  1.00  0.00     0.090 A 
HETATM    6  C7  UNL     1      22.778   4.560  62.718  1.00  0.00     0.047 A 
HETATM    7  C8  UNL     1      21.572   3.940  62.466  1.00  0.00     0.043 A 
ENDROOT
BRANCH   7   8
HETATM    8  N3  UNL     1      20.603   4.547  61.623  1.00  0.00    -0.356 N 
ATOM      9  H3  UNL     1      19.746   4.871  62.071  1.00  0.00     0.166 HD
BRANCH   8  10
HETATM   10  C9  UNL     1      20.704   4.747  60.231  1.00  0.00     0.032 A 
HETATM   11  C10 UNL     1      21.881   4.764  59.551  1.00  0.00     0.029 A 
HETATM   12  C11 UNL     1      21.954   4.943  58.174  1.00  0.00     0.002 A 
HETATM   13  C12 UNL     1      20.771   5.109  57.490  1.00  0.00     0.000 A 
HETATM   14  C13 UNL     1      19.566   5.096  58.156  1.00  0.00     0.002 A 
HETATM   15  C14 UNL     1      19.525   4.917  59.519  1.00  0.00     0.029 A 
ENDBRANCH   8  10
ENDBRANCH   7   8
BRANCH   1  16
HETATM   16  C3  UNL     1      19.974   2.073  62.706  1.00  0.00     0.313 C 
BRANCH  16  17
HETATM   17  N1  UNL     1      19.411   1.273  63.748  1.00  0.00     0.084 N 
HETATM   18  C1  UNL     1      18.036   1.803  63.919  1.00  0.00     0.309 C 
HETATM   19  C2  UNL     1      19.237  -0.101  63.249  1.00  0.00     0.309 C 
ENDBRANCH  16  17
ENDBRANCH   1  16
TORSDOF 4
ENDMDL
MODEL 4
REMARK VINA RESULT: -6.129933108      1.071      1.767
REMARK  4 active torsions:
REMARK  status: ('A' for Active; 'I' for Inactive)
REMARK    1  A    between atoms: N1_2  and  C3_4 
REMARK    2  A    between atoms: C3_4  and  C4_5 
REMARK    3  A    between atoms: C8_11  and  N3_12 
REMARK    4  A    between atoms: N3_12  and  C9_14 
ROOT
HETATM    1  C4  UNL     1      21.624   2.853  62.776  1.00  0.00     0.012 A 
HETATM    2  C5  UNL     1      22.664   2.425  63.558  1.00  0.00     0.098 A 
HETATM    3  N2  UNL     1      23.667   3.271  63.896  1.00  0.00    -0.375 N 
ATOM      4  H2  UNL     1      24.434   2.936  64.478  1.00  0.00     0.164 HD
HETATM    5  C6  UNL     1      23.661   4.540  63.475  1.00  0.00     0.090 A 
HETATM    6  C7  UNL     1      22.640   5.044  62.680  1.00  0.00     0.047 A 
HETATM    7  C8  UNL     1      21.618   4.184  62.336  1.00  0.00     0.043 A 
ENDROOT
BRANCH   7   8
HETATM    8  N3  UNL     1      20.555   4.616  61.498  1.00  0.00    -0.356 N 
ATOM      9  H3  UNL     1      19.668   4.823  61.955  1.00  0.00     0.166 HD
BRANCH   8  10
HETATM   10  C9  UNL     1      20.600   4.787  60.100  1.00  0.00     0.032 A 
HETATM   11  C10 UNL     1      19.501   4.989  59.325  1.00  0.00     0.029 A 
HETATM   12  C11 UNL     1      19.573   5.177  57.949  1.00  0.00     0.002 A 
HETATM   13  C12 UNL     1      20.820   5.151  57.367  1.00  0.00     0.000 A 
HETATM   14  C13 UNL     1      21.948   4.948  58.129  1.00  0.00     0.002 A 
HETATM   15  C14 UNL     1      21.846   4.766  59.489  1.00  0.00     0.029 A 
ENDBRANCH   8  10
ENDBRANCH   7   8
BRANCH   1  16
HETATM   16  C3  UNL     1      20.493   1.986  62.378  1.00  0.00     0.313 C 
BRANCH  16  17
HETATM   17  N1  UNL     1      19.675   1.513  63.449  1.00  0.00     0.084 N 
HETATM   18  C1  UNL     1      18.396   2.246  63.289  1.00  0.00     0.309 C 
HETATM   19  C2  UNL     1      19.343   0.099  63.204  1.00  0.00     0.309 C 
ENDBRANCH  16  17
ENDBRANCH   1  16
TORSDOF 4
ENDMDL
MODEL 5
REMARK VINA RESULT: -6.122831794      0.981      3.291
REMARK  4 active torsions:
REMARK  status: ('A' for Active; 'I' for Inactive)
REMARK    1  A    between atoms: N1_2  and  C3_4 
REMARK    2  A    between atoms: C3_4  and  C4_5 
REMARK    3  A    between atoms: C8_11  and  N3_12 
REMARK    4  A    between atoms: N3_12  and  C9_14 
ROOT
HETATM    1  C4  UNL     1      20.733   2.400  62.579  1.00  0.00     0.012 A 
HETATM    2  C5  UNL     1      20.183   1.301  63.183  1.00  0.00     0.098 A 
HETATM    3  N2  UNL     1      18.838   1.167  63.279  1.00  0.00    -0.375 N 
ATOM      4  H2  UNL     1      18.444   0.343  63.733  1.00  0.00     0.164 HD
HETATM    5  C6  UNL     1      18.021   2.104  62.786  1.00  0.00     0.090 A 
HETATM    6  C7  UNL     1      18.507   3.245  62.161  1.00  0.00     0.047 A 
HETATM    7  C8  UNL     1      19.876   3.382  62.061  1.00  0.00     0.043 A 
ENDROOT
BRANCH   7   8
HETATM    8  N3  UNL     1      20.450   4.537  61.465  1.00  0.00    -0.356 N 
ATOM      9  H3  UNL     1      20.734   5.284  62.098  1.00  0.00     0.166 HD
BRANCH   8  10
HETATM   10  C9  UNL     1      20.668   4.756  60.091  1.00  0.00     0.032 A 
HETATM   11  C10 UNL     1      21.897   4.753  59.508  1.00  0.00     0.029 A 
HETATM   12  C11 UNL     1      22.086   4.951  58.145  1.00  0.00     0.002 A 
HETATM   13  C12 UNL     1      20.966   5.158  57.370  1.00  0.00     0.000 A 
HETATM   14  C13 UNL     1      19.711   5.165  57.936  1.00  0.00     0.002 A 
HETATM   15  C14 UNL     1      19.556   4.966  59.288  1.00  0.00     0.029 A 
ENDBRANCH   8  10
ENDBRANCH   7   8
BRANCH   1  16
HETATM   16  C3  UNL     1      22.191   2.605  62.431  1.00  0.00     0.313 C 
BRANCH  16  17
HETATM   17  N1  UNL     1      22.857   3.133  63.579  1.00  0.00     0.084 N 
HETATM   18  C1  UNL     1      23.820   2.074  63.967  1.00  0.00     0.309 C 
HETATM   19  C2  UNL     1      23.686   4.276  63.162  1.00  0.00     0.309 C 
ENDBRANCH  16  17
ENDBRANCH   1  16
TORSDOF 4
ENDMDL
