MODEL 1
REMARK VINA RESULT: -6.517823037      0.000      0.000
REMARK  4 active torsions:
REMARK  status: ('A' for Active; 'I' for Inactive)
REMARK    1  A    between atoms: C2_2  and  N1_3 
REMARK    2  A    between atoms: C8_9  and  C9_10 
REMARK    3  A    between atoms: C9_10  and  N2_11 
REMARK    4  A    between atoms: N2_11  and  C10_13 
ROOT
HETATM    1  C9  UNL     1      19.712   4.726  60.320  1.00  0.00     0.118 C 
ENDROOT
BRANCH   1   2
HETATM    2  C8  UNL     1      20.699   4.996  59.291  1.00  0.00     0.056 A 
HETATM    3  N1  UNL     1      22.024   4.896  59.164  1.00  0.00    -0.350 N 
HETATM    4  C3  UNL     1      22.372   4.978  57.841  1.00  0.00     0.008 A 
HETATM    5  C4  UNL     1      23.752   4.824  57.236  1.00  0.00     0.068 C 
HETATM    6  C5  UNL     1      21.224   5.142  57.122  1.00  0.00     0.033 A 
HETATM    7  C6  UNL     1      20.175   5.158  57.971  1.00  0.00    -0.032 A 
HETATM    8  C7  UNL     1      18.697   5.246  57.619  1.00  0.00     0.050 C 
BRANCH   3   9
HETATM    9  C2  UNL     1      22.998   4.475  60.142  1.00  0.00     0.124 C 
HETATM   10  C1  UNL     1      23.108   3.007  60.369  1.00  0.00     0.027 C 
ENDBRANCH   3   9
ENDBRANCH   1   2
BRANCH   1  11
HETATM   11  N2  UNL     1      19.336   3.442  60.760  1.00  0.00    -0.363 N 
ATOM     12  H2  UNL     1      19.019   2.716  60.117  1.00  0.00     0.165 HD
BRANCH  11  13
HETATM   13  C10 UNL     1      19.433   3.219  62.235  1.00  0.00     0.047 A 
HETATM   14  C11 UNL     1      18.402   2.652  62.925  1.00  0.00     0.032 A 
HETATM   15  C12 UNL     1      18.510   2.415  64.311  1.00  0.00     0.019 A 
HETATM   16  C13 UNL     1      19.679   2.762  64.947  1.00  0.00     0.088 A 
HETATM   17  N3  UNL     1      20.687   3.315  64.279  1.00  0.00    -0.373 N 
HETATM   18  C14 UNL     1      20.543   3.533  62.950  1.00  0.00     0.117 A 
ATOM     19  H3  UNL     1      21.551   3.570  64.757  1.00  0.00     0.164 HD
ENDBRANCH  11  13
ENDBRANCH   1  11
TORSDOF 4
ENDMDL
MODEL 2
REMARK VINA RESULT: -6.447625425      1.465      1.663
REMARK  4 active torsions:
REMARK  status: ('A' for Active; 'I' for Inactive)
REMARK    1  A    between atoms: C2_2  and  N1_3 
REMARK    2  A    between atoms: C8_9  and  C9_10 
REMARK    3  A    between atoms: C9_10  and  N2_11 
REMARK    4  A    between atoms: N2_11  and  C10_13 
ROOT
HETATM    1  C9  UNL     1      19.151   4.620  60.710  1.00  0.00     0.118 C 
ENDROOT
BRANCH   1   2
HETATM    2  C8  UNL     1      20.378   4.856  59.972  1.00  0.00     0.056 A 
HETATM    3  N1  UNL     1      21.688   4.702  60.186  1.00  0.00    -0.350 N 
HETATM    4  C3  UNL     1      22.365   4.780  58.997  1.00  0.00     0.008 A 
HETATM    5  C4  UNL     1      23.847   4.574  58.762  1.00  0.00     0.068 C 
HETATM    6  C5  UNL     1      21.446   4.996  58.012  1.00  0.00     0.033 A 
HETATM    7  C6  UNL     1      20.216   5.049  58.565  1.00  0.00    -0.032 A 
HETATM    8  C7  UNL     1      18.882   5.199  57.849  1.00  0.00     0.050 C 
BRANCH   3   9
HETATM    9  C2  UNL     1      22.362   4.235  61.373  1.00  0.00     0.124 C 
HETATM   10  C1  UNL     1      22.279   5.123  62.567  1.00  0.00     0.027 C 
ENDBRANCH   3   9
ENDBRANCH   1   2
BRANCH   1  11
HETATM   11  N2  UNL     1      18.425   3.413  60.701  1.00  0.00    -0.363 N 
ATOM     12  H2  UNL     1      17.776   3.172  59.952  1.00  0.00     0.165 HD
BRANCH  11  13
HETATM   13  C10 UNL     1      18.672   2.511  61.868  1.00  0.00     0.047 A 
HETATM   14  C11 UNL     1      18.277   2.869  63.123  1.00  0.00     0.032 A 
HETATM   15  C12 UNL     1      18.484   2.002  64.216  1.00  0.00     0.019 A 
HETATM   16  C13 UNL     1      19.086   0.788  63.985  1.00  0.00     0.088 A 
HETATM   17  N3  UNL     1      19.473   0.434  62.763  1.00  0.00    -0.373 N 
HETATM   18  C14 UNL     1      19.263   1.296  61.740  1.00  0.00     0.117 A 
ATOM     19  H3  UNL     1      19.919  -0.469  62.599  1.00  0.00     0.164 HD
ENDBRANCH  11  13
ENDBRANCH   1  11
TORSDOF 4
ENDMDL
MODEL 3
REMARK VINA RESULT: -6.393377927      1.013      1.390
REMARK  4 active torsions:
REMARK  status: ('A' for Active; 'I' for Inactive)
REMARK    1  A    between atoms: C2_2  and  N1_3 
REMARK    2  A    between atoms: C8_9  and  C9_10 
REMARK    3  A    between atoms: C9_10  and  N2_11 
REMARK    4  A    between atoms: N2_11  and  C10_13 
ROOT
HETATM    1  C9  UNL     1      20.040   4.570  60.485  1.00  0.00     0.118 C 
ENDROOT
BRANCH   1   2
HETATM    2  C8  UNL     1      20.953   4.901  59.406  1.00  0.00     0.056 A 
HETATM    3  N1  UNL     1      22.270   4.845  59.194  1.00  0.00    -0.350 N 
HETATM    4  C3  UNL     1      22.532   4.978  57.856  1.00  0.00     0.008 A 
HETATM    5  C4  UNL     1      23.876   4.885  57.163  1.00  0.00     0.068 C 
HETATM    6  C5  UNL     1      21.337   5.129  57.215  1.00  0.00     0.033 A 
HETATM    7  C6  UNL     1      20.343   5.088  58.127  1.00  0.00    -0.032 A 
HETATM    8  C7  UNL     1      18.845   5.141  57.869  1.00  0.00     0.050 C 
BRANCH   3   9
HETATM    9  C2  UNL     1      23.315   4.425  60.097  1.00  0.00     0.124 C 
HETATM   10  C1  UNL     1      23.435   2.957  60.323  1.00  0.00     0.027 C 
ENDBRANCH   3   9
ENDBRANCH   1   2
BRANCH   1  11
HETATM   11  N2  UNL     1      20.421   4.342  61.821  1.00  0.00    -0.363 N 
ATOM     12  H2  UNL     1      21.204   4.830  62.257  1.00  0.00     0.165 HD
BRANCH  11  13
HETATM   13  C10 UNL     1      19.596   3.334  62.556  1.00  0.00     0.047 A 
HETATM   14  C11 UNL     1      20.069   2.736  63.686  1.00  0.00     0.032 A 
HETATM   15  C12 UNL     1      19.276   1.809  64.394  1.00  0.00     0.019 A 
HETATM   16  C13 UNL     1      18.015   1.528  63.921  1.00  0.00     0.088 A 
HETATM   17  N3  UNL     1      17.550   2.109  62.820  1.00  0.00    -0.373 N 
HETATM   18  C14 UNL     1      18.343   2.989  62.164  1.00  0.00     0.117 A 
ATOM     19  H3  UNL     1      16.613   1.897  62.475  1.00  0.00     0.164 HD
ENDBRANCH  11  13
ENDBRANCH   1  11
TORSDOF 4
ENDMDL
MODEL 4
REMARK VINA RESULT: -6.372800836      2.016      5.829
REMARK  4 active torsions:
REMARK  status: ('A' for Active; 'I' for Inactive)
REMARK    1  A    between atoms: C2_2  and  N1_3 
REMARK    2  A    between atoms: C8_9  and  C9_10 
REMARK    3  A    between atoms: C9_10  and  N2_11 
REMARK    4  A    between atoms: N2_11  and  C10_13 
ROOT
HETATM    1  C9  UNL     1      22.120   3.295  62.101  1.00  0.00     0.118 C 
ENDROOT
BRANCH   1   2
HETATM    2  C8  UNL     1      21.515   2.029  62.471  1.00  0.00     0.056 A 
HETATM    3  N1  UNL     1      20.758   1.567  63.470  1.00  0.00    -0.350 N 
HETATM    4  C3  UNL     1      20.206   0.364  63.116  1.00  0.00     0.008 A 
HETATM    5  C4  UNL     1      19.216  -0.467  63.906  1.00  0.00     0.068 C 
HETATM    6  C5  UNL     1      20.641   0.065  61.858  1.00  0.00     0.033 A 
HETATM    7  C6  UNL     1      21.445   1.058  61.425  1.00  0.00    -0.032 A 
HETATM    8  C7  UNL     1      22.100   1.192  60.059  1.00  0.00     0.050 C 
BRANCH   3   9
HETATM    9  C2  UNL     1      20.288   2.261  64.645  1.00  0.00     0.124 C 
HETATM   10  C1  UNL     1      19.011   3.014  64.495  1.00  0.00     0.027 C 
ENDBRANCH   3   9
ENDBRANCH   1   2
BRANCH   1  11
HETATM   11  N2  UNL     1      21.418   4.503  61.925  1.00  0.00    -0.363 N 
ATOM     12  H2  UNL     1      21.282   5.172  62.684  1.00  0.00     0.165 HD
BRANCH  11  13
HETATM   13  C10 UNL     1      20.886   4.737  60.547  1.00  0.00     0.047 A 
HETATM   14  C11 UNL     1      21.727   4.803  59.476  1.00  0.00     0.032 A 
HETATM   15  C12 UNL     1      21.219   4.993  58.174  1.00  0.00     0.019 A 
HETATM   16  C13 UNL     1      19.859   5.103  58.010  1.00  0.00     0.088 A 
HETATM   17  N3  UNL     1      19.034   5.039  59.052  1.00  0.00    -0.373 N 
HETATM   18  C14 UNL     1      19.560   4.863  60.286  1.00  0.00     0.117 A 
ATOM     19  H3  UNL     1      18.025   5.121  58.923  1.00  0.00     0.164 HD
ENDBRANCH  11  13
ENDBRANCH   1  11
TORSDOF 4
ENDMDL
MODEL 5
REMARK VINA RESULT: -6.341597561      1.644      2.961
REMARK  4 active torsions:
REMARK  status: ('A' for Active; 'I' for Inactive)
REMARK    1  A    between atoms: C2_2  and  N1_3 
REMARK    2  A    between atoms: C8_9  and  C9_10 
REMARK    3  A    between atoms: C9_10  and  N2_11 
REMARK    4  A    between atoms: N2_11  and  C10_13 
ROOT
HETATM    1  C9  UNL     1      19.292   4.369  61.132  1.00  0.00     0.118 C 
ENDROOT
BRANCH   1   2
HETATM    2  C8  UNL     1      20.393   4.301  60.189  1.00  0.00     0.056 A 
HETATM    3  N1  UNL     1      20.536   4.221  58.863  1.00  0.00    -0.350 N 
HETATM    4  C3  UNL     1      21.825   4.529  58.515  1.00  0.00     0.008 A 
HETATM    5  C4  UNL     1      22.402   4.649  57.120  1.00  0.00     0.068 C 
HETATM    6  C5  UNL     1      22.508   4.804  59.663  1.00  0.00     0.033 A 
HETATM    7  C6  UNL     1      21.669   4.676  60.713  1.00  0.00    -0.032 A 
HETATM    8  C7  UNL     1      21.968   4.954  62.178  1.00  0.00     0.050 C 
BRANCH   3   9
HETATM    9  C2  UNL     1      19.515   4.126  57.847  1.00  0.00     0.124 C 
HETATM   10  C1  UNL     1      18.688   5.346  57.632  1.00  0.00     0.027 C 
ENDBRANCH   3   9
ENDBRANCH   1   2
BRANCH   1  11
HETATM   11  N2  UNL     1      18.252   3.425  61.225  1.00  0.00    -0.363 N 
ATOM     12  H2  UNL     1      17.350   3.559  60.766  1.00  0.00     0.165 HD
BRANCH  11  13
HETATM   13  C10 UNL     1      18.561   2.213  62.044  1.00  0.00     0.047 A 
HETATM   14  C11 UNL     1      18.060   2.076  63.305  1.00  0.00     0.032 A 
HETATM   15  C12 UNL     1      18.329   0.917  64.063  1.00  0.00     0.019 A 
HETATM   16  C13 UNL     1      19.102  -0.071  63.499  1.00  0.00     0.088 A 
HETATM   17  N3  UNL     1      19.593   0.059  62.270  1.00  0.00    -0.373 N 
HETATM   18  C14 UNL     1      19.318   1.188  61.577  1.00  0.00     0.117 A 
ATOM     19  H3  UNL     1      20.165  -0.679  61.858  1.00  0.00     0.164 HD
ENDBRANCH  11  13
ENDBRANCH   1  11
TORSDOF 4
ENDMDL
