MODEL 1
REMARK VINA RESULT: -7.412078130      0.000      0.000
REMARK  4 active torsions:
REMARK  status: ('A' for Active; 'I' for Inactive)
REMARK    1  A    between atoms: C5_5  and  C6_6 
REMARK    2  A    between atoms: C6_6  and  N2_9 
REMARK    3  A    between atoms: N2_9  and  C8_12 
REMARK    4  A    between atoms: C8_12  and  C9_13 
ROOT
HETATM    1  C6  UNL     1      18.904   3.489  62.149  1.00  0.00     0.325 C 
HETATM    2  C7  UNL     1      18.082   2.690  61.238  1.00  0.00     0.097 C 
HETATM    3  N1  UNL     1      17.428   2.073  60.501  1.00  0.00    -0.195 NA
ENDROOT
BRANCH   1   4
HETATM    4  C5  UNL     1      19.516   2.573  63.147  1.00  0.00    -0.014 A 
HETATM    5  C4  UNL     1      20.857   2.723  63.520  1.00  0.00     0.011 A 
HETATM    6  C3  UNL     1      21.434   1.879  64.444  1.00  0.00     0.007 A 
HETATM    7  C2  UNL     1      20.733   0.864  65.039  1.00  0.00    -0.062 A 
HETATM    8  C1  UNL     1      21.357  -0.047  66.038  1.00  0.00     0.048 C 
HETATM    9  C15 UNL     1      19.417   0.716  64.675  1.00  0.00     0.007 A 
HETATM   10  C14 UNL     1      18.812   1.563  63.738  1.00  0.00     0.011 A 
ENDBRANCH   1   4
BRANCH   1  11
HETATM   11  N2  UNL     1      19.979   4.130  61.423  1.00  0.00    -0.049 N 
ATOM     12  H22 UNL     1      20.556   4.710  62.032  1.00  0.00     0.279 HD
ATOM     13  H21 UNL     1      20.692   3.461  61.131  1.00  0.00     0.279 HD
BRANCH  11  14
HETATM   14  C8  UNL     1      19.444   4.895  60.281  1.00  0.00     0.298 C 
BRANCH  14  15
HETATM   15  C9  UNL     1      20.470   4.946  59.206  1.00  0.00     0.079 A 
HETATM   16  C10 UNL     1      20.272   5.127  57.855  1.00  0.00     0.037 A 
HETATM   17  C11 UNL     1      21.508   5.108  57.224  1.00  0.00     0.035 A 
HETATM   18  C12 UNL     1      22.412   4.910  58.258  1.00  0.00     0.049 A 
HETATM   19  C13 UNL     1      23.888   4.818  58.069  1.00  0.00     0.076 C 
HETATM   20  O1  UNL     1      21.771   4.821  59.402  1.00  0.00    -0.318 OA
ENDBRANCH  14  15
ENDBRANCH  11  14
ENDBRANCH   1  11
TORSDOF 4
ENDMDL
MODEL 2
REMARK VINA RESULT: -7.342035663      0.056      1.109
REMARK  4 active torsions:
REMARK  status: ('A' for Active; 'I' for Inactive)
REMARK    1  A    between atoms: C5_5  and  C6_6 
REMARK    2  A    between atoms: C6_6  and  N2_9 
REMARK    3  A    between atoms: N2_9  and  C8_12 
REMARK    4  A    between atoms: C8_12  and  C9_13 
ROOT
HETATM    1  C6  UNL     1      18.877   3.531  62.146  1.00  0.00     0.325 C 
HETATM    2  C7  UNL     1      18.092   2.714  61.218  1.00  0.00     0.097 C 
HETATM    3  N1  UNL     1      17.467   2.082  60.468  1.00  0.00    -0.195 NA
ENDROOT
BRANCH   1   4
HETATM    4  C5  UNL     1      19.526   2.624  63.130  1.00  0.00    -0.014 A 
HETATM    5  C4  UNL     1      18.801   1.583  63.721  1.00  0.00     0.011 A 
HETATM    6  C3  UNL     1      19.393   0.737  64.633  1.00  0.00     0.007 A 
HETATM    7  C2  UNL     1      20.705   0.870  65.004  1.00  0.00    -0.062 A 
HETATM    8  C1  UNL     1      21.344  -0.045  65.990  1.00  0.00     0.048 C 
HETATM    9  C15 UNL     1      21.417   1.891  64.424  1.00  0.00     0.007 A 
HETATM   10  C14 UNL     1      20.835   2.761  63.495  1.00  0.00     0.011 A 
ENDBRANCH   1   4
BRANCH   1  11
HETATM   11  N2  UNL     1      19.926   4.230  61.435  1.00  0.00    -0.049 N 
ATOM     12  H22 UNL     1      20.417   4.890  62.037  1.00  0.00     0.279 HD
ATOM     13  H21 UNL     1      20.709   3.616  61.212  1.00  0.00     0.279 HD
BRANCH  11  14
HETATM   14  C8  UNL     1      19.382   4.885  60.230  1.00  0.00     0.298 C 
BRANCH  14  15
HETATM   15  C9  UNL     1      20.440   4.942  59.187  1.00  0.00     0.079 A 
HETATM   16  C10 UNL     1      20.286   5.154  57.835  1.00  0.00     0.037 A 
HETATM   17  C11 UNL     1      21.540   5.127  57.241  1.00  0.00     0.035 A 
HETATM   18  C12 UNL     1      22.409   4.895  58.297  1.00  0.00     0.049 A 
HETATM   19  C13 UNL     1      23.889   4.784  58.150  1.00  0.00     0.076 C 
HETATM   20  O1  UNL     1      21.733   4.792  59.420  1.00  0.00    -0.318 OA
ENDBRANCH  14  15
ENDBRANCH  11  14
ENDBRANCH   1  11
TORSDOF 4
ENDMDL
MODEL 3
REMARK VINA RESULT: -7.238553512      1.955      6.630
REMARK  4 active torsions:
REMARK  status: ('A' for Active; 'I' for Inactive)
REMARK    1  A    between atoms: C5_5  and  C6_6 
REMARK    2  A    between atoms: C6_6  and  N2_9 
REMARK    3  A    between atoms: N2_9  and  C8_12 
REMARK    4  A    between atoms: C8_12  and  C9_13 
ROOT
HETATM    1  C6  UNL     1      20.189   4.624  60.743  1.00  0.00     0.325 C 
HETATM    2  C7  UNL     1      21.026   4.730  61.941  1.00  0.00     0.097 C 
HETATM    3  N1  UNL     1      21.674   4.806  62.903  1.00  0.00    -0.195 NA
ENDROOT
BRANCH   1   4
HETATM    4  C5  UNL     1      21.064   4.768  59.550  1.00  0.00    -0.014 A 
HETATM    5  C4  UNL     1      22.450   4.617  59.664  1.00  0.00     0.011 A 
HETATM    6  C3  UNL     1      23.270   4.748  58.563  1.00  0.00     0.007 A 
HETATM    7  C2  UNL     1      22.775   5.030  57.318  1.00  0.00    -0.062 A 
HETATM    8  C1  UNL     1      23.662   5.172  56.129  1.00  0.00     0.048 C 
HETATM    9  C15 UNL     1      21.415   5.179  57.205  1.00  0.00     0.007 A 
HETATM   10  C14 UNL     1      20.565   5.049  58.310  1.00  0.00     0.011 A 
ENDBRANCH   1   4
BRANCH   1  11
HETATM   11  N2  UNL     1      19.569   3.319  60.679  1.00  0.00    -0.049 N 
ATOM     12  H22 UNL     1      19.316   3.065  59.724  1.00  0.00     0.279 HD
ATOM     13  H21 UNL     1      20.238   2.571  60.862  1.00  0.00     0.279 HD
BRANCH  11  14
HETATM   14  C8  UNL     1      18.411   3.254  61.590  1.00  0.00     0.298 C 
BRANCH  14  15
HETATM   15  C9  UNL     1      18.600   2.125  62.538  1.00  0.00     0.079 A 
HETATM   16  C10 UNL     1      17.877   1.844  63.677  1.00  0.00     0.037 A 
HETATM   17  C11 UNL     1      18.398   0.696  64.256  1.00  0.00     0.035 A 
HETATM   18  C12 UNL     1      19.438   0.334  63.412  1.00  0.00     0.049 A 
HETATM   19  C13 UNL     1      20.308  -0.858  63.625  1.00  0.00     0.076 C 
HETATM   20  O1  UNL     1      19.527   1.190  62.418  1.00  0.00    -0.318 OA
ENDBRANCH  14  15
ENDBRANCH  11  14
ENDBRANCH   1  11
TORSDOF 4
ENDMDL
MODEL 4
REMARK VINA RESULT: -7.233435599      1.920      6.381
REMARK  4 active torsions:
REMARK  status: ('A' for Active; 'I' for Inactive)
REMARK    1  A    between atoms: C5_5  and  C6_6 
REMARK    2  A    between atoms: C6_6  and  N2_9 
REMARK    3  A    between atoms: N2_9  and  C8_12 
REMARK    4  A    between atoms: C8_12  and  C9_13 
ROOT
HETATM    1  C6  UNL     1      19.556   2.497  61.245  1.00  0.00     0.325 C 
HETATM    2  C7  UNL     1      18.150   2.357  60.861  1.00  0.00     0.097 C 
HETATM    3  N1  UNL     1      17.028   2.243  60.576  1.00  0.00    -0.195 NA
ENDROOT
BRANCH   1   4
HETATM    4  C5  UNL     1      20.288   3.123  60.113  1.00  0.00    -0.014 A 
HETATM    5  C4  UNL     1      20.189   4.499  59.877  1.00  0.00     0.011 A 
HETATM    6  C3  UNL     1      20.864   5.089  58.830  1.00  0.00     0.007 A 
HETATM    7  C2  UNL     1      21.657   4.368  57.978  1.00  0.00    -0.062 A 
HETATM    8  C1  UNL     1      22.386   5.006  56.847  1.00  0.00     0.048 C 
HETATM    9  C15 UNL     1      21.755   3.018  58.208  1.00  0.00     0.007 A 
HETATM   10  C14 UNL     1      21.078   2.399  59.266  1.00  0.00     0.011 A 
ENDBRANCH   1   4
BRANCH   1  11
HETATM   11  N2  UNL     1      19.678   3.377  62.388  1.00  0.00    -0.049 N 
ATOM     12  H22 UNL     1      20.643   3.448  62.710  1.00  0.00     0.279 HD
ATOM     13  H21 UNL     1      19.532   4.353  62.132  1.00  0.00     0.279 HD
BRANCH  11  14
HETATM   14  C8  UNL     1      18.768   2.949  63.466  1.00  0.00     0.298 C 
BRANCH  14  15
HETATM   15  C9  UNL     1      19.291   1.700  64.079  1.00  0.00     0.079 A 
HETATM   16  C10 UNL     1      18.713   0.449  64.079  1.00  0.00     0.037 A 
HETATM   17  C11 UNL     1      19.548  -0.420  64.767  1.00  0.00     0.035 A 
HETATM   18  C12 UNL     1      20.616   0.376  65.157  1.00  0.00     0.049 A 
HETATM   19  C13 UNL     1      21.786  -0.122  65.936  1.00  0.00     0.076 C 
HETATM   20  O1  UNL     1      20.433   1.608  64.738  1.00  0.00    -0.318 OA
ENDBRANCH  14  15
ENDBRANCH  11  14
ENDBRANCH   1  11
TORSDOF 4
ENDMDL
MODEL 5
REMARK VINA RESULT: -7.224311088      1.948      6.667
REMARK  4 active torsions:
REMARK  status: ('A' for Active; 'I' for Inactive)
REMARK    1  A    between atoms: C5_5  and  C6_6 
REMARK    2  A    between atoms: C6_6  and  N2_9 
REMARK    3  A    between atoms: N2_9  and  C8_12 
REMARK    4  A    between atoms: C8_12  and  C9_13 
ROOT
HETATM    1  C6  UNL     1      20.190   4.629  60.850  1.00  0.00     0.325 C 
HETATM    2  C7  UNL     1      21.034   4.683  62.046  1.00  0.00     0.097 C 
HETATM    3  N1  UNL     1      21.687   4.719  63.007  1.00  0.00    -0.195 NA
ENDROOT
BRANCH   1   4
HETATM    4  C5  UNL     1      21.067   4.759  59.656  1.00  0.00    -0.014 A 
HETATM    5  C4  UNL     1      20.517   5.037  58.400  1.00  0.00     0.011 A 
HETATM    6  C3  UNL     1      21.321   5.160  57.287  1.00  0.00     0.007 A 
HETATM    7  C2  UNL     1      22.682   5.019  57.354  1.00  0.00    -0.062 A 
HETATM    8  C1  UNL     1      23.549   5.152  56.150  1.00  0.00     0.048 C 
HETATM    9  C15 UNL     1      23.222   4.747  58.586  1.00  0.00     0.007 A 
HETATM   10  C14 UNL     1      22.423   4.618  59.729  1.00  0.00     0.011 A 
ENDBRANCH   1   4
BRANCH   1  11
HETATM   11  N2  UNL     1      19.521   3.348  60.767  1.00  0.00    -0.049 N 
ATOM     12  H22 UNL     1      19.220   3.139  59.815  1.00  0.00     0.279 HD
ATOM     13  H21 UNL     1      20.170   2.572  60.895  1.00  0.00     0.279 HD
BRANCH  11  14
HETATM   14  C8  UNL     1      18.401   3.290  61.724  1.00  0.00     0.298 C 
BRANCH  14  15
HETATM   15  C9  UNL     1      18.595   2.128  62.631  1.00  0.00     0.079 A 
HETATM   16  C10 UNL     1      17.856   1.790  63.744  1.00  0.00     0.037 A 
HETATM   17  C11 UNL     1      18.389   0.630  64.288  1.00  0.00     0.035 A 
HETATM   18  C12 UNL     1      19.452   0.322  63.451  1.00  0.00     0.049 A 
HETATM   19  C13 UNL     1      20.342  -0.861  63.634  1.00  0.00     0.076 C 
HETATM   20  O1  UNL     1      19.543   1.217  62.493  1.00  0.00    -0.318 OA
ENDBRANCH  14  15
ENDBRANCH  11  14
ENDBRANCH   1  11
TORSDOF 4
ENDMDL
