MODEL 1
REMARK VINA RESULT: -7.155582564      0.000      0.000
REMARK  4 active torsions:
REMARK  status: ('A' for Active; 'I' for Inactive)
REMARK    1  A    between atoms: C2_2  and  C4_4 
REMARK    2  A    between atoms: C7_7  and  C8_8 
REMARK    3  A    between atoms: N1_9  and  N2_11 
REMARK    4  A    between atoms: C9_13  and  C10_14 
ROOT
HETATM    1  C8  UNL     1      17.884   2.525  60.517  1.00  0.00     0.118 C 
HETATM    2  N1  UNL     1      17.490   2.635  61.692  1.00  0.00    -0.311 N 
ATOM      3  H1  UNL     1      16.615   2.135  61.848  1.00  0.00     0.186 HD
ENDROOT
BRANCH   2   4
HETATM    4  N2  UNL     1      17.911   3.229  62.777  1.00  0.00    -0.310 N 
HETATM    5  C9  UNL     1      18.607   2.793  63.719  1.00  0.00     0.138 C 
ATOM      6  H2  UNL     1      17.626   4.205  62.869  1.00  0.00     0.186 HD
BRANCH   5   7
HETATM    7  C10 UNL     1      19.113   1.438  63.780  1.00  0.00     0.065 A 
HETATM    8  C11 UNL     1      18.643   0.302  64.396  1.00  0.00     0.119 A 
HETATM    9  N3  UNL     1      19.467  -0.748  64.171  1.00  0.00    -0.360 N 
HETATM   10  C12 UNL     1      20.461  -0.297  63.417  1.00  0.00     0.180 A 
ATOM     11  H3  UNL     1      19.348  -1.701  64.515  1.00  0.00     0.166 HD
HETATM   12  N4  UNL     1      20.272   1.005  63.170  1.00  0.00    -0.350 N 
ATOM     13  H4  UNL     1      20.894   1.590  62.613  1.00  0.00     0.166 HD
ENDBRANCH   5   7
ENDBRANCH   2   4
BRANCH   1  14
HETATM   14  C7  UNL     1      19.084   3.102  59.952  1.00  0.00    -0.019 A 
HETATM   15  C6  UNL     1      20.274   2.422  59.871  1.00  0.00     0.013 A 
HETATM   16  C5  UNL     1      21.418   3.016  59.315  1.00  0.00     0.008 A 
HETATM   17  C4  UNL     1      21.389   4.290  58.835  1.00  0.00    -0.055 A 
HETATM   18  C14 UNL     1      20.167   4.975  58.922  1.00  0.00     0.008 A 
HETATM   19  C13 UNL     1      19.046   4.408  59.462  1.00  0.00     0.013 A 
BRANCH  17  20
HETATM   20  C2  UNL     1      22.504   5.007  58.239  1.00  0.00     0.010 C 
HETATM   21  C1  UNL     1      23.790   4.410  58.839  1.00  0.00     0.015 C 
HETATM   22  C3  UNL     1      22.634   4.862  56.753  1.00  0.00     0.015 C 
ENDBRANCH  17  20
ENDBRANCH   1  14
TORSDOF 4
ENDMDL
MODEL 2
REMARK VINA RESULT: -7.110396610      0.168      1.126
REMARK  4 active torsions:
REMARK  status: ('A' for Active; 'I' for Inactive)
REMARK    1  A    between atoms: C2_2  and  C4_4 
REMARK    2  A    between atoms: C7_7  and  C8_8 
REMARK    3  A    between atoms: N1_9  and  N2_11 
REMARK    4  A    between atoms: C9_13  and  C10_14 
ROOT
HETATM    1  C8  UNL     1      17.916   2.509  60.484  1.00  0.00     0.118 C 
HETATM    2  N1  UNL     1      17.502   2.593  61.654  1.00  0.00    -0.311 N 
ATOM      3  H1  UNL     1      16.657   2.041  61.799  1.00  0.00     0.186 HD
ENDROOT
BRANCH   2   4
HETATM    4  N2  UNL     1      17.874   3.210  62.744  1.00  0.00    -0.310 N 
HETATM    5  C9  UNL     1      18.556   2.804  63.709  1.00  0.00     0.138 C 
ATOM      6  H2  UNL     1      17.556   4.176  62.820  1.00  0.00     0.186 HD
BRANCH   5   7
HETATM    7  C10 UNL     1      19.102   1.466  63.797  1.00  0.00     0.065 A 
HETATM    8  C11 UNL     1      18.649   0.320  64.406  1.00  0.00     0.119 A 
HETATM    9  N3  UNL     1      19.513  -0.706  64.216  1.00  0.00    -0.360 N 
HETATM   10  C12 UNL     1      20.516  -0.228  63.491  1.00  0.00     0.180 A 
ATOM     11  H3  UNL     1      19.412  -1.660  64.563  1.00  0.00     0.166 HD
HETATM   12  N4  UNL     1      20.295   1.065  63.228  1.00  0.00    -0.350 N 
ATOM     13  H4  UNL     1      20.915   1.667  62.687  1.00  0.00     0.166 HD
ENDBRANCH   5   7
ENDBRANCH   2   4
BRANCH   1  14
HETATM   14  C7  UNL     1      19.085   3.159  59.933  1.00  0.00    -0.019 A 
HETATM   15  C6  UNL     1      19.058   4.433  59.421  1.00  0.00     0.013 A 
HETATM   16  C5  UNL     1      20.215   5.031  58.894  1.00  0.00     0.008 A 
HETATM   17  C4  UNL     1      21.405   4.369  58.872  1.00  0.00    -0.055 A 
HETATM   18  C14 UNL     1      21.419   3.069  59.399  1.00  0.00     0.008 A 
HETATM   19  C13 UNL     1      20.300   2.475  59.914  1.00  0.00     0.013 A 
BRANCH  17  20
HETATM   20  C2  UNL     1      22.662   4.884  58.355  1.00  0.00     0.010 C 
HETATM   21  C1  UNL     1      23.748   3.855  58.714  1.00  0.00     0.015 C 
HETATM   22  C3  UNL     1      22.720   5.046  56.867  1.00  0.00     0.015 C 
ENDBRANCH  17  20
ENDBRANCH   1  14
TORSDOF 4
ENDMDL
MODEL 3
REMARK VINA RESULT: -7.109141030      1.680      2.999
REMARK  4 active torsions:
REMARK  status: ('A' for Active; 'I' for Inactive)
REMARK    1  A    between atoms: C2_2  and  C4_4 
REMARK    2  A    between atoms: C7_7  and  C8_8 
REMARK    3  A    between atoms: N1_9  and  N2_11 
REMARK    4  A    between atoms: C9_13  and  C10_14 
ROOT
HETATM    1  C8  UNL     1      19.444   4.950  59.551  1.00  0.00     0.118 C 
HETATM    2  N1  UNL     1      18.769   3.967  59.905  1.00  0.00    -0.311 N 
ATOM      3  H1  UNL     1      17.882   4.246  60.324  1.00  0.00     0.186 HD
ENDROOT
BRANCH   2   4
HETATM    4  N2  UNL     1      18.906   2.668  59.875  1.00  0.00    -0.310 N 
HETATM    5  C9  UNL     1      19.054   1.850  60.808  1.00  0.00     0.138 C 
ATOM      6  H2  UNL     1      18.891   2.257  58.942  1.00  0.00     0.186 HD
BRANCH   5   7
HETATM    7  C10 UNL     1      19.102   2.229  62.205  1.00  0.00     0.065 A 
HETATM    8  C11 UNL     1      20.148   2.483  63.059  1.00  0.00     0.119 A 
HETATM    9  N3  UNL     1      19.700   2.806  64.295  1.00  0.00    -0.360 N 
HETATM   10  C12 UNL     1      18.375   2.762  64.242  1.00  0.00     0.180 A 
ATOM     11  H3  UNL     1      20.269   3.038  65.109  1.00  0.00     0.166 HD
HETATM   12  N4  UNL     1      17.994   2.419  63.006  1.00  0.00    -0.350 N 
ATOM     13  H4  UNL     1      17.026   2.314  62.700  1.00  0.00     0.166 HD
ENDBRANCH   5   7
ENDBRANCH   2   4
BRANCH   1  14
HETATM   14  C7  UNL     1      20.747   4.922  58.924  1.00  0.00    -0.019 A 
HETATM   15  C6  UNL     1      20.929   5.092  57.573  1.00  0.00     0.013 A 
HETATM   16  C5  UNL     1      22.211   5.058  57.000  1.00  0.00     0.008 A 
HETATM   17  C4  UNL     1      23.320   4.855  57.763  1.00  0.00    -0.055 A 
HETATM   18  C14 UNL     1      23.121   4.683  59.141  1.00  0.00     0.008 A 
HETATM   19  C13 UNL     1      21.879   4.713  59.712  1.00  0.00     0.013 A 
BRANCH  17  20
HETATM   20  C2  UNL     1      24.691   4.800  57.283  1.00  0.00     0.010 C 
HETATM   21  C1  UNL     1      24.801   5.812  56.129  1.00  0.00     0.015 C 
HETATM   22  C3  UNL     1      25.733   5.199  58.284  1.00  0.00     0.015 C 
ENDBRANCH  17  20
ENDBRANCH   1  14
TORSDOF 4
ENDMDL
MODEL 4
REMARK VINA RESULT: -7.050543536      1.534      2.591
REMARK  4 active torsions:
REMARK  status: ('A' for Active; 'I' for Inactive)
REMARK    1  A    between atoms: C2_2  and  C4_4 
REMARK    2  A    between atoms: C7_7  and  C8_8 
REMARK    3  A    between atoms: N1_9  and  N2_11 
REMARK    4  A    between atoms: C9_13  and  C10_14 
ROOT
HETATM    1  C8  UNL     1      19.545   5.109  60.913  1.00  0.00     0.118 C 
HETATM    2  N1  UNL     1      18.561   4.354  61.002  1.00  0.00    -0.311 N 
ATOM      3  H1  UNL     1      17.903   4.669  61.714  1.00  0.00     0.186 HD
ENDROOT
BRANCH   2   4
HETATM    4  N2  UNL     1      18.156   3.259  60.415  1.00  0.00    -0.310 N 
HETATM    5  C9  UNL     1      18.013   2.104  60.870  1.00  0.00     0.138 C 
ATOM      6  H2  UNL     1      17.920   3.364  59.428  1.00  0.00     0.186 HD
BRANCH   5   7
HETATM    7  C10 UNL     1      18.292   1.744  62.244  1.00  0.00     0.065 A 
HETATM    8  C11 UNL     1      19.441   1.331  62.877  1.00  0.00     0.119 A 
HETATM    9  N3  UNL     1      19.216   1.105  64.193  1.00  0.00    -0.360 N 
HETATM   10  C12 UNL     1      17.934   1.370  64.411  1.00  0.00     0.180 A 
ATOM     11  H3  UNL     1      19.900   0.792  64.883  1.00  0.00     0.166 HD
HETATM   12  N4  UNL     1      17.362   1.752  63.263  1.00  0.00    -0.350 N 
ATOM     13  H4  UNL     1      16.381   2.012  63.157  1.00  0.00     0.166 HD
ENDBRANCH   5   7
ENDBRANCH   2   4
BRANCH   1  14
HETATM   14  C7  UNL     1      20.666   4.964  60.011  1.00  0.00    -0.019 A 
HETATM   15  C6  UNL     1      20.547   5.079  58.648  1.00  0.00     0.013 A 
HETATM   16  C5  UNL     1      21.659   4.932  57.803  1.00  0.00     0.008 A 
HETATM   17  C4  UNL     1      22.897   4.670  58.306  1.00  0.00    -0.055 A 
HETATM   18  C14 UNL     1      23.006   4.556  59.700  1.00  0.00     0.008 A 
HETATM   19  C13 UNL     1      21.932   4.696  60.533  1.00  0.00     0.013 A 
BRANCH  17  20
HETATM   20  C2  UNL     1      24.116   4.499  57.533  1.00  0.00     0.010 C 
HETATM   21  C1  UNL     1      24.007   5.431  56.314  1.00  0.00     0.015 C 
HETATM   22  C3  UNL     1      25.379   4.887  58.241  1.00  0.00     0.015 C 
ENDBRANCH  17  20
ENDBRANCH   1  14
TORSDOF 4
ENDMDL
MODEL 5
REMARK VINA RESULT: -7.000637947      1.789      2.854
REMARK  4 active torsions:
REMARK  status: ('A' for Active; 'I' for Inactive)
REMARK    1  A    between atoms: C2_2  and  C4_4 
REMARK    2  A    between atoms: C7_7  and  C8_8 
REMARK    3  A    between atoms: N1_9  and  N2_11 
REMARK    4  A    between atoms: C9_13  and  C10_14 
ROOT
HETATM    1  C8  UNL     1      19.441   4.912  59.757  1.00  0.00     0.118 C 
HETATM    2  N1  UNL     1      18.753   3.938  60.111  1.00  0.00    -0.311 N 
ATOM      3  H1  UNL     1      17.836   4.223  60.452  1.00  0.00     0.186 HD
ENDROOT
BRANCH   2   4
HETATM    4  N2  UNL     1      18.908   2.641  60.158  1.00  0.00    -0.310 N 
HETATM    5  C9  UNL     1      19.238   1.901  61.109  1.00  0.00     0.138 C 
ATOM      6  H2  UNL     1      18.731   2.156  59.278  1.00  0.00     0.186 HD
BRANCH   5   7
HETATM    7  C10 UNL     1      19.532   2.390  62.440  1.00  0.00     0.065 A 
HETATM    8  C11 UNL     1      20.664   2.938  62.995  1.00  0.00     0.119 A 
HETATM    9  N3  UNL     1      20.464   3.250  64.298  1.00  0.00    -0.360 N 
HETATM   10  C12 UNL     1      19.215   2.907  64.583  1.00  0.00     0.180 A 
ATOM     11  H3  UNL     1      21.142   3.667  64.935  1.00  0.00     0.166 HD
HETATM   12  N4  UNL     1      18.638   2.391  63.492  1.00  0.00    -0.350 N 
ATOM     13  H4  UNL     1      17.678   2.048  63.443  1.00  0.00     0.166 HD
ENDBRANCH   5   7
ENDBRANCH   2   4
BRANCH   1  14
HETATM   14  C7  UNL     1      20.785   4.872  59.225  1.00  0.00    -0.019 A 
HETATM   15  C6  UNL     1      21.892   4.664  60.011  1.00  0.00     0.013 A 
HETATM   16  C5  UNL     1      23.183   4.632  59.458  1.00  0.00     0.008 A 
HETATM   17  C4  UNL     1      23.384   4.806  58.123  1.00  0.00    -0.055 A 
HETATM   18  C14 UNL     1      22.245   5.017  57.331  1.00  0.00     0.008 A 
HETATM   19  C13 UNL     1      20.983   5.051  57.856  1.00  0.00     0.013 A 
BRANCH  17  20
HETATM   20  C2  UNL     1      24.667   4.792  57.441  1.00  0.00     0.010 C 
HETATM   21  C1  UNL     1      24.483   5.569  56.125  1.00  0.00     0.015 C 
HETATM   22  C3  UNL     1      25.784   5.474  58.172  1.00  0.00     0.015 C 
ENDBRANCH  17  20
ENDBRANCH   1  14
TORSDOF 4
ENDMDL
