MODEL 1
REMARK VINA RESULT: -7.639157766      0.000      0.000
REMARK  4 active torsions:
REMARK  status: ('A' for Active; 'I' for Inactive)
REMARK    1  A    between atoms: C5_7  and  N2_8 
REMARK    2  A    between atoms: N2_8  and  C6_10 
REMARK    3  A    between atoms: C6_10  and  C7_11 
REMARK    4  A    between atoms: C10_14  and  C11_15 
ROOT
HETATM    1  C11 UNL     1      21.032   0.377  65.795  1.00  0.00     0.162 C 
HETATM    2  C12 UNL     1      21.774  -0.715  65.160  1.00  0.00     0.063 C 
HETATM    3  N3  UNL     1      22.352  -1.591  64.663  1.00  0.00    -0.197 NA
ENDROOT
BRANCH   1   4
HETATM    4  C10 UNL     1      20.274   1.079  64.728  1.00  0.00    -0.045 A 
HETATM    5  C9  UNL     1      19.041   0.705  64.296  1.00  0.00     0.009 A 
HETATM    6  C8  UNL     1      18.369   1.395  63.292  1.00  0.00     0.009 A 
HETATM    7  C7  UNL     1      18.932   2.494  62.689  1.00  0.00    -0.041 A 
HETATM    8  C14 UNL     1      20.200   2.859  63.150  1.00  0.00     0.009 A 
HETATM    9  C13 UNL     1      20.866   2.178  64.143  1.00  0.00     0.009 A 
BRANCH   7  10
HETATM   10  C6  UNL     1      18.285   3.288  61.618  1.00  0.00     0.159 C 
BRANCH  10  11
HETATM   11  N2  UNL     1      18.934   4.537  61.344  1.00  0.00    -0.372 N 
ATOM     12  H2  UNL     1      18.955   5.271  62.051  1.00  0.00     0.161 HD
BRANCH  11  13
HETATM   13  C5  UNL     1      19.555   4.748  60.062  1.00  0.00     0.101 A 
HETATM   14  N1  UNL     1      18.824   5.004  58.964  1.00  0.00    -0.353 N 
HETATM   15  C4  UNL     1      19.373   5.206  57.753  1.00  0.00     0.090 A 
ATOM     16  H1  UNL     1      17.809   5.046  59.052  1.00  0.00     0.166 HD
HETATM   17  C3  UNL     1      20.744   5.152  57.614  1.00  0.00     0.024 A 
HETATM   18  C2  UNL     1      21.542   4.896  58.695  1.00  0.00    -0.057 A 
HETATM   19  C1  UNL     1      23.018   4.825  58.619  1.00  0.00     0.048 C 
HETATM   20  C15 UNL     1      20.924   4.696  59.919  1.00  0.00     0.054 A 
ENDBRANCH  11  13
ENDBRANCH  10  11
ENDBRANCH   7  10
ENDBRANCH   1   4
TORSDOF 4
ENDMDL
MODEL 2
REMARK VINA RESULT: -7.619207621      0.114      1.113
REMARK  4 active torsions:
REMARK  status: ('A' for Active; 'I' for Inactive)
REMARK    1  A    between atoms: C5_7  and  N2_8 
REMARK    2  A    between atoms: N2_8  and  C6_10 
REMARK    3  A    between atoms: C6_10  and  C7_11 
REMARK    4  A    between atoms: C10_14  and  C11_15 
ROOT
HETATM    1  C11 UNL     1      21.029   0.270  65.802  1.00  0.00     0.162 C 
HETATM    2  C12 UNL     1      21.862  -0.736  65.138  1.00  0.00     0.063 C 
HETATM    3  N3  UNL     1      22.512  -1.545  64.616  1.00  0.00    -0.197 NA
ENDROOT
BRANCH   1   4
HETATM    4  C10 UNL     1      20.402   1.099  64.740  1.00  0.00    -0.045 A 
HETATM    5  C9  UNL     1      20.968   2.214  64.208  1.00  0.00     0.009 A 
HETATM    6  C8  UNL     1      20.343   2.958  63.214  1.00  0.00     0.009 A 
HETATM    7  C7  UNL     1      19.111   2.592  62.724  1.00  0.00    -0.041 A 
HETATM    8  C14 UNL     1      18.550   1.443  63.287  1.00  0.00     0.009 A 
HETATM    9  C13 UNL     1      19.168   0.705  64.270  1.00  0.00     0.009 A 
BRANCH   7  10
HETATM   10  C6  UNL     1      18.377   3.323  61.665  1.00  0.00     0.159 C 
BRANCH  10  11
HETATM   11  N2  UNL     1      18.945   4.598  61.333  1.00  0.00    -0.372 N 
ATOM     12  H2  UNL     1      18.906   5.366  62.001  1.00  0.00     0.161 HD
BRANCH  11  13
HETATM   13  C5  UNL     1      19.570   4.784  60.050  1.00  0.00     0.101 A 
HETATM   14  N1  UNL     1      18.844   5.029  58.946  1.00  0.00    -0.353 N 
HETATM   15  C4  UNL     1      19.397   5.208  57.733  1.00  0.00     0.090 A 
ATOM     16  H1  UNL     1      17.829   5.081  59.031  1.00  0.00     0.166 HD
HETATM   17  C3  UNL     1      20.768   5.141  57.599  1.00  0.00     0.024 A 
HETATM   18  C2  UNL     1      21.562   4.896  58.686  1.00  0.00    -0.057 A 
HETATM   19  C1  UNL     1      23.037   4.812  58.614  1.00  0.00     0.048 C 
HETATM   20  C15 UNL     1      20.939   4.719  59.910  1.00  0.00     0.054 A 
ENDBRANCH  11  13
ENDBRANCH  10  11
ENDBRANCH   7  10
ENDBRANCH   1   4
TORSDOF 4
ENDMDL
MODEL 3
REMARK VINA RESULT: -7.580649470      1.072      1.219
REMARK  4 active torsions:
REMARK  status: ('A' for Active; 'I' for Inactive)
REMARK    1  A    between atoms: C5_7  and  N2_8 
REMARK    2  A    between atoms: N2_8  and  C6_10 
REMARK    3  A    between atoms: C6_10  and  C7_11 
REMARK    4  A    between atoms: C10_14  and  C11_15 
ROOT
HETATM    1  C11 UNL     1      20.318  -1.100  64.237  1.00  0.00     0.162 C 
HETATM    2  C12 UNL     1      21.429  -0.540  65.012  1.00  0.00     0.063 C 
HETATM    3  N3  UNL     1      22.319  -0.104  65.616  1.00  0.00    -0.197 NA
ENDROOT
BRANCH   1   4
HETATM    4  C10 UNL     1      19.669   0.025  63.515  1.00  0.00    -0.045 A 
HETATM    5  C9  UNL     1      18.715   0.828  64.053  1.00  0.00     0.009 A 
HETATM    6  C8  UNL     1      18.136   1.871  63.338  1.00  0.00     0.009 A 
HETATM    7  C7  UNL     1      18.510   2.133  62.041  1.00  0.00    -0.041 A 
HETATM    8  C14 UNL     1      19.492   1.293  61.510  1.00  0.00     0.009 A 
HETATM    9  C13 UNL     1      20.066   0.262  62.217  1.00  0.00     0.009 A 
BRANCH   7  10
HETATM   10  C6  UNL     1      17.950   3.223  61.209  1.00  0.00     0.159 C 
BRANCH  10  11
HETATM   11  N2  UNL     1      18.785   4.386  61.129  1.00  0.00    -0.372 N 
ATOM     12  H2  UNL     1      18.866   5.015  61.927  1.00  0.00     0.161 HD
BRANCH  11  13
HETATM   13  C5  UNL     1      19.508   4.658  59.915  1.00  0.00     0.101 A 
HETATM   14  N1  UNL     1      18.869   4.953  58.770  1.00  0.00    -0.353 N 
HETATM   15  C4  UNL     1      19.515   5.213  57.620  1.00  0.00     0.090 A 
ATOM     16  H1  UNL     1      17.850   4.981  58.774  1.00  0.00     0.166 HD
HETATM   17  C3  UNL     1      20.894   5.180  57.596  1.00  0.00     0.024 A 
HETATM   18  C2  UNL     1      21.602   4.887  58.729  1.00  0.00    -0.057 A 
HETATM   19  C1  UNL     1      23.079   4.835  58.775  1.00  0.00     0.048 C 
HETATM   20  C15 UNL     1      20.886   4.627  59.886  1.00  0.00     0.054 A 
ENDBRANCH  11  13
ENDBRANCH  10  11
ENDBRANCH   7  10
ENDBRANCH   1   4
TORSDOF 4
ENDMDL
MODEL 4
REMARK VINA RESULT: -7.528801911      2.201      6.807
REMARK  4 active torsions:
REMARK  status: ('A' for Active; 'I' for Inactive)
REMARK    1  A    between atoms: C5_7  and  N2_8 
REMARK    2  A    between atoms: N2_8  and  C6_10 
REMARK    3  A    between atoms: C6_10  and  C7_11 
REMARK    4  A    between atoms: C10_14  and  C11_15 
ROOT
HETATM    1  C11 UNL     1      22.554   5.079  56.428  1.00  0.00     0.162 C 
HETATM    2  C12 UNL     1      23.967   5.124  56.814  1.00  0.00     0.063 C 
HETATM    3  N3  UNL     1      25.088   5.174  57.116  1.00  0.00    -0.197 NA
ENDROOT
BRANCH   1   4
HETATM    4  C10 UNL     1      21.755   4.993  57.678  1.00  0.00    -0.045 A 
HETATM    5  C9  UNL     1      22.285   4.764  58.908  1.00  0.00     0.009 A 
HETATM    6  C8  UNL     1      21.496   4.691  60.051  1.00  0.00     0.009 A 
HETATM    7  C7  UNL     1      20.131   4.848  59.981  1.00  0.00    -0.041 A 
HETATM    8  C14 UNL     1      19.611   5.083  58.705  1.00  0.00     0.009 A 
HETATM    9  C13 UNL     1      20.391   5.155  57.574  1.00  0.00     0.009 A 
BRANCH   7  10
HETATM   10  C6  UNL     1      19.218   4.791  61.145  1.00  0.00     0.159 C 
BRANCH  10  11
HETATM   11  N2  UNL     1      18.288   3.700  61.106  1.00  0.00    -0.372 N 
ATOM     12  H2  UNL     1      17.507   3.715  60.451  1.00  0.00     0.161 HD
BRANCH  11  13
HETATM   13  C5  UNL     1      18.465   2.584  61.998  1.00  0.00     0.101 A 
HETATM   14  N1  UNL     1      17.717   2.448  63.106  1.00  0.00    -0.353 N 
HETATM   15  C4  UNL     1      17.856   1.418  63.959  1.00  0.00     0.090 A 
ATOM     16  H1  UNL     1      17.012   3.156  63.309  1.00  0.00     0.166 HD
HETATM   17  C3  UNL     1      18.805   0.450  63.701  1.00  0.00     0.024 A 
HETATM   18  C2  UNL     1      19.598   0.533  62.589  1.00  0.00    -0.057 A 
HETATM   19  C1  UNL     1      20.633  -0.468  62.252  1.00  0.00     0.048 C 
HETATM   20  C15 UNL     1      19.411   1.615  61.745  1.00  0.00     0.054 A 
ENDBRANCH  11  13
ENDBRANCH  10  11
ENDBRANCH   7  10
ENDBRANCH   1   4
TORSDOF 4
ENDMDL
MODEL 5
REMARK VINA RESULT: -7.511222630      1.033      1.376
REMARK  4 active torsions:
REMARK  status: ('A' for Active; 'I' for Inactive)
REMARK    1  A    between atoms: C5_7  and  N2_8 
REMARK    2  A    between atoms: N2_8  and  C6_10 
REMARK    3  A    between atoms: C6_10  and  C7_11 
REMARK    4  A    between atoms: C10_14  and  C11_15 
ROOT
HETATM    1  C11 UNL     1      20.322  -1.126  64.266  1.00  0.00     0.162 C 
HETATM    2  C12 UNL     1      21.445  -0.585  65.037  1.00  0.00     0.063 C 
HETATM    3  N3  UNL     1      22.344  -0.165  65.640  1.00  0.00    -0.197 NA
ENDROOT
BRANCH   1   4
HETATM    4  C10 UNL     1      19.770  -0.015  63.449  1.00  0.00    -0.045 A 
HETATM    5  C9  UNL     1      20.137   0.246  62.167  1.00  0.00     0.009 A 
HETATM    6  C8  UNL     1      19.590   1.298  61.441  1.00  0.00     0.009 A 
HETATM    7  C7  UNL     1      18.646   2.128  61.998  1.00  0.00    -0.041 A 
HETATM    8  C14 UNL     1      18.285   1.840  63.317  1.00  0.00     0.009 A 
HETATM    9  C13 UNL     1      18.825   0.799  64.036  1.00  0.00     0.009 A 
BRANCH   7  10
HETATM   10  C6  UNL     1      18.010   3.267  61.296  1.00  0.00     0.159 C 
BRANCH  10  11
HETATM   11  N2  UNL     1      18.843   4.430  61.194  1.00  0.00    -0.372 N 
ATOM     12  H2  UNL     1      18.930   5.070  61.982  1.00  0.00     0.161 HD
BRANCH  11  13
HETATM   13  C5  UNL     1      19.555   4.687  59.969  1.00  0.00     0.101 A 
HETATM   14  N1  UNL     1      18.907   4.986  58.831  1.00  0.00    -0.353 N 
HETATM   15  C4  UNL     1      19.542   5.232  57.672  1.00  0.00     0.090 A 
ATOM     16  H1  UNL     1      17.888   5.028  58.847  1.00  0.00     0.166 HD
HETATM   17  C3  UNL     1      20.920   5.179  57.631  1.00  0.00     0.024 A 
HETATM   18  C2  UNL     1      21.637   4.880  58.757  1.00  0.00    -0.057 A 
HETATM   19  C1  UNL     1      23.114   4.807  58.785  1.00  0.00     0.048 C 
HETATM   20  C15 UNL     1      20.932   4.636  59.924  1.00  0.00     0.054 A 
ENDBRANCH  11  13
ENDBRANCH  10  11
ENDBRANCH   7  10
ENDBRANCH   1   4
TORSDOF 4
ENDMDL
