MODEL 1
REMARK VINA RESULT: -6.549367104      0.000      0.000
REMARK  5 active torsions:
REMARK  status: ('A' for Active; 'I' for Inactive)
REMARK    1  A    between atoms: C2_2  and  O1_3 
REMARK    2  A    between atoms: C2_2  and  C3_5 
REMARK    3  A    between atoms: C7_9  and  C8_10 
REMARK    4  A    between atoms: C8_10  and  C9_11 
REMARK    5  A    between atoms: C9_11  and  C10_12 
ROOT
HETATM    1  C3  UNL     1      18.387   1.780  62.274  1.00  0.00     0.038 A 
HETATM    2  C4  UNL     1      17.619   1.819  63.419  1.00  0.00     0.027 A 
HETATM    3  C5  UNL     1      17.970   1.006  64.470  1.00  0.00     0.004 A 
HETATM    4  C6  UNL     1      19.059   0.201  64.327  1.00  0.00     0.025 A 
HETATM    5  C7  UNL     1      19.837   0.148  63.190  1.00  0.00     0.009 A 
HETATM    6  N1  UNL     1      19.456   0.969  62.172  1.00  0.00    -0.361 N 
ATOM      7  H1  UNL     1      19.997   0.970  61.308  1.00  0.00     0.165 HD
ENDROOT
BRANCH   5   8
HETATM    8  C8  UNL     1      21.020  -0.735  63.050  1.00  0.00     0.062 C 
BRANCH   8   9
HETATM    9  C9  UNL     1      22.315  -0.090  63.433  1.00  0.00     0.052 C 
BRANCH   9  10
HETATM   10  C10 UNL     1      22.817  -0.584  64.768  1.00  0.00    -0.017 A 
HETATM   11  C11 UNL     1      22.239  -0.400  65.997  1.00  0.00     0.015 A 
HETATM   12  C12 UNL     1      22.862  -0.929  67.054  1.00  0.00     0.008 A 
HETATM   13  C13 UNL     1      24.025  -1.612  66.829  1.00  0.00     0.050 A 
HETATM   14  S1  UNL     1      24.214  -1.492  65.138  1.00  0.00    -0.106 SA
ENDBRANCH   9  10
ENDBRANCH   8   9
ENDBRANCH   5   8
BRANCH   1  15
HETATM   15  C2  UNL     1      17.988   2.668  61.153  1.00  0.00     0.163 C 
HETATM   16  C1  UNL     1      18.965   2.558  60.006  1.00  0.00     0.046 C 
BRANCH  15  17
HETATM   17  O1  UNL     1      16.714   2.257  60.696  1.00  0.00    -0.390 OA
ATOM     18  H1  UNL     1      16.090   2.375  61.402  1.00  0.00     0.210 HD
ENDBRANCH  15  17
ENDBRANCH   1  15
TORSDOF 5
ENDMDL
MODEL 2
REMARK VINA RESULT: -6.331270909      4.610      7.230
REMARK  5 active torsions:
REMARK  status: ('A' for Active; 'I' for Inactive)
REMARK    1  A    between atoms: C2_2  and  O1_3 
REMARK    2  A    between atoms: C2_2  and  C3_5 
REMARK    3  A    between atoms: C7_9  and  C8_10 
REMARK    4  A    between atoms: C8_10  and  C9_11 
REMARK    5  A    between atoms: C9_11  and  C10_12 
ROOT
HETATM    1  C3  UNL     1      18.894   2.991  60.545  1.00  0.00     0.038 A 
HETATM    2  C4  UNL     1      19.138   4.085  61.350  1.00  0.00     0.027 A 
HETATM    3  C5  UNL     1      20.006   5.050  60.896  1.00  0.00     0.004 A 
HETATM    4  C6  UNL     1      20.583   4.876  59.676  1.00  0.00     0.025 A 
HETATM    5  C7  UNL     1      20.352   3.790  58.858  1.00  0.00     0.009 A 
HETATM    6  N1  UNL     1      19.485   2.857  59.344  1.00  0.00    -0.361 N 
ATOM      7  H1  UNL     1      19.278   2.033  58.780  1.00  0.00     0.165 HD
ENDROOT
BRANCH   5   8
HETATM    8  C8  UNL     1      20.988   3.616  57.531  1.00  0.00     0.062 C 
BRANCH   8   9
HETATM    9  C9  UNL     1      21.652   4.849  57.002  1.00  0.00     0.052 C 
BRANCH   9  10
HETATM   10  C10 UNL     1      23.156   4.759  57.088  1.00  0.00    -0.017 A 
HETATM   11  C11 UNL     1      24.077   5.454  56.348  1.00  0.00     0.015 A 
HETATM   12  C12 UNL     1      25.369   5.214  56.592  1.00  0.00     0.008 A 
HETATM   13  C13 UNL     1      25.672   4.296  57.559  1.00  0.00     0.050 A 
HETATM   14  S1  UNL     1      24.135   3.793  58.100  1.00  0.00    -0.106 SA
ENDBRANCH   9  10
ENDBRANCH   8   9
ENDBRANCH   5   8
BRANCH   1  15
HETATM   15  C2  UNL     1      17.951   1.964  61.055  1.00  0.00     0.163 C 
HETATM   16  C1  UNL     1      17.986   1.906  62.565  1.00  0.00     0.046 C 
BRANCH  15  17
HETATM   17  O1  UNL     1      16.645   2.325  60.652  1.00  0.00    -0.390 OA
ATOM     18  H1  UNL     1      16.686   3.173  60.227  1.00  0.00     0.210 HD
ENDBRANCH  15  17
ENDBRANCH   1  15
TORSDOF 5
ENDMDL
MODEL 3
REMARK VINA RESULT: -6.297576590      2.611      4.473
REMARK  5 active torsions:
REMARK  status: ('A' for Active; 'I' for Inactive)
REMARK    1  A    between atoms: C2_2  and  O1_3 
REMARK    2  A    between atoms: C2_2  and  C3_5 
REMARK    3  A    between atoms: C7_9  and  C8_10 
REMARK    4  A    between atoms: C8_10  and  C9_11 
REMARK    5  A    between atoms: C9_11  and  C10_12 
ROOT
HETATM    1  C3  UNL     1      19.392   4.019  58.979  1.00  0.00     0.038 A 
HETATM    2  C4  UNL     1      20.548   3.295  58.770  1.00  0.00     0.027 A 
HETATM    3  C5  UNL     1      20.825   2.248  59.616  1.00  0.00     0.004 A 
HETATM    4  C6  UNL     1      19.946   1.979  60.620  1.00  0.00     0.025 A 
HETATM    5  C7  UNL     1      18.787   2.691  60.844  1.00  0.00     0.009 A 
HETATM    6  N1  UNL     1      18.548   3.720  59.984  1.00  0.00    -0.361 N 
ATOM      7  H1  UNL     1      17.705   4.281  60.105  1.00  0.00     0.165 HD
ENDROOT
BRANCH   5   8
HETATM    8  C8  UNL     1      17.839   2.384  61.942  1.00  0.00     0.062 C 
BRANCH   8   9
HETATM    9  C9  UNL     1      18.308   2.817  63.296  1.00  0.00     0.052 C 
BRANCH   9  10
HETATM   10  C10 UNL     1      19.102   1.736  63.988  1.00  0.00    -0.017 A 
HETATM   11  C11 UNL     1      18.783   0.408  64.101  1.00  0.00     0.015 A 
HETATM   12  C12 UNL     1      19.639  -0.376  64.763  1.00  0.00     0.008 A 
HETATM   13  C13 UNL     1      20.765   0.206  65.275  1.00  0.00     0.050 A 
HETATM   14  S1  UNL     1      20.592   1.839  64.815  1.00  0.00    -0.106 SA
ENDBRANCH   9  10
ENDBRANCH   8   9
ENDBRANCH   5   8
BRANCH   1  15
HETATM   15  C2  UNL     1      19.113   5.144  58.052  1.00  0.00     0.163 C 
HETATM   16  C1  UNL     1      20.326   5.456  57.206  1.00  0.00     0.046 C 
BRANCH  15  17
HETATM   17  O1  UNL     1      18.058   4.757  57.194  1.00  0.00    -0.390 OA
ATOM     18  H1  UNL     1      17.316   4.501  57.729  1.00  0.00     0.210 HD
ENDBRANCH  15  17
ENDBRANCH   1  15
TORSDOF 5
ENDMDL
MODEL 4
REMARK VINA RESULT: -6.181810889      2.743      4.147
REMARK  5 active torsions:
REMARK  status: ('A' for Active; 'I' for Inactive)
REMARK    1  A    between atoms: C2_2  and  O1_3 
REMARK    2  A    between atoms: C2_2  and  C3_5 
REMARK    3  A    between atoms: C7_9  and  C8_10 
REMARK    4  A    between atoms: C8_10  and  C9_11 
REMARK    5  A    between atoms: C9_11  and  C10_12 
ROOT
HETATM    1  C3  UNL     1      18.459   1.786  62.105  1.00  0.00     0.038 A 
HETATM    2  C4  UNL     1      17.946   1.575  63.369  1.00  0.00     0.027 A 
HETATM    3  C5  UNL     1      18.534   0.618  64.161  1.00  0.00     0.004 A 
HETATM    4  C6  UNL     1      19.591  -0.076  63.658  1.00  0.00     0.025 A 
HETATM    5  C7  UNL     1      20.116   0.120  62.399  1.00  0.00     0.009 A 
HETATM    6  N1  UNL     1      19.506   1.078  61.645  1.00  0.00    -0.361 N 
ATOM      7  H1  UNL     1      19.855   1.264  60.705  1.00  0.00     0.165 HD
ENDROOT
BRANCH   5   8
HETATM    8  C8  UNL     1      21.269  -0.643  61.866  1.00  0.00     0.062 C 
BRANCH   8   9
HETATM    9  C9  UNL     1      22.564   0.108  61.882  1.00  0.00     0.052 C 
BRANCH   9  10
HETATM   10  C10 UNL     1      22.667   1.075  60.728  1.00  0.00    -0.017 A 
HETATM   11  C11 UNL     1      22.754   0.775  59.393  1.00  0.00     0.015 A 
HETATM   12  C12 UNL     1      22.838   1.798  58.537  1.00  0.00     0.008 A 
HETATM   13  C13 UNL     1      22.830   3.062  59.058  1.00  0.00     0.050 A 
HETATM   14  S1  UNL     1      22.706   2.782  60.735  1.00  0.00    -0.106 SA
ENDBRANCH   9  10
ENDBRANCH   8   9
ENDBRANCH   5   8
BRANCH   1  15
HETATM   15  C2  UNL     1      17.808   2.826  61.269  1.00  0.00     0.163 C 
HETATM   16  C1  UNL     1      18.729   3.277  60.160  1.00  0.00     0.046 C 
BRANCH  15  17
HETATM   17  O1  UNL     1      16.650   2.262  60.686  1.00  0.00    -0.390 OA
ATOM     18  H1  UNL     1      15.905   2.473  61.236  1.00  0.00     0.210 HD
ENDBRANCH  15  17
ENDBRANCH   1  15
TORSDOF 5
ENDMDL
MODEL 5
REMARK VINA RESULT: -6.174876538      2.964      4.469
REMARK  5 active torsions:
REMARK  status: ('A' for Active; 'I' for Inactive)
REMARK    1  A    between atoms: C2_2  and  O1_3 
REMARK    2  A    between atoms: C2_2  and  C3_5 
REMARK    3  A    between atoms: C7_9  and  C8_10 
REMARK    4  A    between atoms: C8_10  and  C9_11 
REMARK    5  A    between atoms: C9_11  and  C10_12 
ROOT
HETATM    1  C3  UNL     1      19.775   4.649  59.455  1.00  0.00     0.038 A 
HETATM    2  C4  UNL     1      21.026   4.982  59.933  1.00  0.00     0.027 A 
HETATM    3  C5  UNL     1      21.354   4.617  61.217  1.00  0.00     0.004 A 
HETATM    4  C6  UNL     1      20.426   3.946  61.954  1.00  0.00     0.025 A 
HETATM    5  C7  UNL     1      19.172   3.606  61.494  1.00  0.00     0.009 A 
HETATM    6  N1  UNL     1      18.887   3.985  60.217  1.00  0.00    -0.361 N 
ATOM      7  H1  UNL     1      17.972   3.758  59.826  1.00  0.00     0.165 HD
ENDROOT
BRANCH   5   8
HETATM    8  C8  UNL     1      18.174   2.874  62.309  1.00  0.00     0.062 C 
BRANCH   8   9
HETATM    9  C9  UNL     1      18.523   2.771  63.761  1.00  0.00     0.052 C 
BRANCH   9  10
HETATM   10  C10 UNL     1      19.316   1.523  64.062  1.00  0.00    -0.017 A 
HETATM   11  C11 UNL     1      20.360   1.388  64.941  1.00  0.00     0.015 A 
HETATM   12  C12 UNL     1      20.920   0.180  65.049  1.00  0.00     0.008 A 
HETATM   13  C13 UNL     1      20.411  -0.826  64.277  1.00  0.00     0.050 A 
HETATM   14  S1  UNL     1      19.159  -0.050  63.418  1.00  0.00    -0.106 SA
ENDBRANCH   9  10
ENDBRANCH   8   9
ENDBRANCH   5   8
BRANCH   1  15
HETATM   15  C2  UNL     1      19.445   5.053  58.065  1.00  0.00     0.163 C 
HETATM   16  C1  UNL     1      20.700   5.357  57.281  1.00  0.00     0.046 C 
BRANCH  15  17
HETATM   17  O1  UNL     1      18.778   3.974  57.440  1.00  0.00    -0.390 OA
ATOM     18  H1  UNL     1      17.936   4.284  57.125  1.00  0.00     0.210 HD
ENDBRANCH  15  17
ENDBRANCH   1  15
TORSDOF 5
ENDMDL
