MODEL 1
REMARK VINA RESULT: -5.656928141      0.000      0.000
REMARK  6 active torsions:
REMARK  status: ('A' for Active; 'I' for Inactive)
REMARK    1  A    between atoms: N1_1  and  C1_4 
REMARK    2  A    between atoms: C2_7  and  N3_8 
REMARK    3  A    between atoms: N4_11  and  C3_12 
REMARK    4  A    between atoms: C3_12  and  C4_13 
REMARK    5  A    between atoms: C4_13  and  C5_14 
REMARK    6  A    between atoms: C5_14  and  N5_15 
ROOT
HETATM    1  C1  UNL     1      17.572   6.638 -13.296  1.00  0.00     0.705 A 
HETATM    2  N2  UNL     1      16.391   5.997 -13.356  1.00  0.00    -0.020 N 
ATOM      3  H2  UNL     1      15.869   5.761 -14.200  1.00  0.00     0.203 HD
HETATM    4  C2  UNL     1      16.032   5.728 -12.083  1.00  0.00     0.707 A 
HETATM    5  N4  UNL     1      16.972   6.191 -11.225  1.00  0.00    -0.109 N 
HETATM    6  N6  UNL     1      17.896   6.740 -11.995  1.00  0.00    -0.115 N 
ATOM      7  H6  UNL     1      18.747   7.183 -11.646  1.00  0.00     0.206 HD
ENDROOT
BRANCH   5   8
HETATM    8  C3  UNL     1      16.944   6.092  -9.777  1.00  0.00     0.170 C 
BRANCH   8   9
HETATM    9  C4  UNL     1      18.082   6.863  -9.142  1.00  0.00     0.050 C 
BRANCH   9  10
HETATM   10  C5  UNL     1      17.443   7.840  -8.159  1.00  0.00     0.231 C 
BRANCH  10  11
HETATM   11  N5  UNL     1      16.434   8.644  -8.781  1.00  0.00    -0.079 N 
ATOM     12  H53 UNL     1      16.801   9.559  -9.046  1.00  0.00     0.274 HD
ATOM     13  H52 UNL     1      16.199   8.291  -9.708  1.00  0.00     0.274 HD
ATOM     14  H51 UNL     1      15.603   8.734  -8.197  1.00  0.00     0.274 HD
ENDBRANCH  10  11
ENDBRANCH   9  10
ENDBRANCH   8   9
ENDBRANCH   5   8
BRANCH   4  15
HETATM   15  N3  UNL     1      14.955   5.117 -11.668  1.00  0.00    -0.233 N 
ATOM     16  H32 UNL     1      14.020   5.440 -11.917  1.00  0.00     0.174 HD
ATOM     17  H31 UNL     1      14.896   4.288 -11.076  1.00  0.00     0.174 HD
ENDBRANCH   4  15
BRANCH   1  18
HETATM   18  N1  UNL     1      18.239   7.061 -14.329  1.00  0.00    -0.233 N 
ATOM     19  H12 UNL     1      17.960   7.050 -15.310  1.00  0.00     0.174 HD
ATOM     20  H11 UNL     1      19.169   7.477 -14.289  1.00  0.00     0.174 HD
ENDBRANCH   1  18
TORSDOF 6
ENDMDL
MODEL 2
REMARK VINA RESULT: -5.440945512      1.655      4.654
REMARK  6 active torsions:
REMARK  status: ('A' for Active; 'I' for Inactive)
REMARK    1  A    between atoms: N1_1  and  C1_4 
REMARK    2  A    between atoms: C2_7  and  N3_8 
REMARK    3  A    between atoms: N4_11  and  C3_12 
REMARK    4  A    between atoms: C3_12  and  C4_13 
REMARK    5  A    between atoms: C4_13  and  C5_14 
REMARK    6  A    between atoms: C5_14  and  N5_15 
ROOT
HETATM    1  C1  UNL     1      16.864   8.596  -8.305  1.00  0.00     0.705 A 
HETATM    2  N2  UNL     1      17.658   7.768  -7.605  1.00  0.00    -0.020 N 
ATOM      3  H2  UNL     1      18.099   7.961  -6.706  1.00  0.00     0.203 HD
HETATM    4  C2  UNL     1      17.759   6.630  -8.324  1.00  0.00     0.707 A 
HETATM    5  N4  UNL     1      17.038   6.733  -9.465  1.00  0.00    -0.109 N 
HETATM    6  N6  UNL     1      16.505   7.943  -9.424  1.00  0.00    -0.115 N 
ATOM      7  H6  UNL     1      15.899   8.330 -10.148  1.00  0.00     0.206 HD
ENDROOT
BRANCH   5   8
HETATM    8  C3  UNL     1      16.897   5.719 -10.494  1.00  0.00     0.170 C 
BRANCH   8   9
HETATM    9  C4  UNL     1      17.838   5.965 -11.655  1.00  0.00     0.050 C 
BRANCH   9  10
HETATM   10  C5  UNL     1      16.964   6.064 -12.902  1.00  0.00     0.231 C 
BRANCH  10  11
HETATM   11  N5  UNL     1      17.468   7.027 -13.835  1.00  0.00    -0.079 N 
ATOM     12  H53 UNL     1      17.753   7.886 -13.364  1.00  0.00     0.274 HD
ATOM     13  H52 UNL     1      18.372   6.741 -14.210  1.00  0.00     0.274 HD
ATOM     14  H51 UNL     1      16.802   7.219 -14.583  1.00  0.00     0.274 HD
ENDBRANCH  10  11
ENDBRANCH   9  10
ENDBRANCH   8   9
ENDBRANCH   5   8
BRANCH   4  15
HETATM   15  N3  UNL     1      18.432   5.551  -8.024  1.00  0.00    -0.233 N 
ATOM     16  H32 UNL     1      18.761   5.364  -7.077  1.00  0.00     0.174 HD
ATOM     17  H31 UNL     1      18.707   4.793  -8.649  1.00  0.00     0.174 HD
ENDBRANCH   4  15
BRANCH   1  18
HETATM   18  N1  UNL     1      16.533   9.797  -7.931  1.00  0.00    -0.233 N 
ATOM     19  H12 UNL     1      15.923  10.074  -7.162  1.00  0.00     0.174 HD
ATOM     20  H11 UNL     1      16.855  10.655  -8.379  1.00  0.00     0.174 HD
ENDBRANCH   1  18
TORSDOF 6
ENDMDL
MODEL 3
REMARK VINA RESULT: -5.382300606      1.300      2.321
REMARK  6 active torsions:
REMARK  status: ('A' for Active; 'I' for Inactive)
REMARK    1  A    between atoms: N1_1  and  C1_4 
REMARK    2  A    between atoms: C2_7  and  N3_8 
REMARK    3  A    between atoms: N4_11  and  C3_12 
REMARK    4  A    between atoms: C3_12  and  C4_13 
REMARK    5  A    between atoms: C4_13  and  C5_14 
REMARK    6  A    between atoms: C5_14  and  N5_15 
ROOT
HETATM    1  C1  UNL     1      17.208   6.827 -13.998  1.00  0.00     0.705 A 
HETATM    2  N2  UNL     1      18.535   6.678 -14.156  1.00  0.00    -0.020 N 
ATOM      3  H2  UNL     1      19.073   6.865 -15.002  1.00  0.00     0.203 HD
HETATM    4  C2  UNL     1      19.016   6.233 -12.976  1.00  0.00     0.707 A 
HETATM    5  N4  UNL     1      18.009   6.102 -12.080  1.00  0.00    -0.109 N 
HETATM    6  N6  UNL     1      16.921   6.471 -12.734  1.00  0.00    -0.115 N 
ATOM      7  H6  UNL     1      15.983   6.484 -12.331  1.00  0.00     0.206 HD
ENDROOT
BRANCH   5   8
HETATM    8  C3  UNL     1      18.128   5.651 -10.705  1.00  0.00     0.170 C 
BRANCH   8   9
HETATM    9  C4  UNL     1      16.962   6.120  -9.860  1.00  0.00     0.050 C 
BRANCH   9  10
HETATM   10  C5  UNL     1      17.486   7.276  -9.012  1.00  0.00     0.231 C 
BRANCH  10  11
HETATM   11  N5  UNL     1      16.545   8.352  -8.932  1.00  0.00    -0.079 N 
ATOM     12  H53 UNL     1      16.233   8.641  -9.859  1.00  0.00     0.274 HD
ATOM     13  H52 UNL     1      15.652   8.036  -8.554  1.00  0.00     0.274 HD
ATOM     14  H51 UNL     1      16.912   9.142  -8.402  1.00  0.00     0.274 HD
ENDBRANCH  10  11
ENDBRANCH   9  10
ENDBRANCH   8   9
ENDBRANCH   5   8
BRANCH   4  15
HETATM   15  N3  UNL     1      20.255   5.952 -12.672  1.00  0.00    -0.233 N 
ATOM     16  H32 UNL     1      21.036   6.515 -13.009  1.00  0.00     0.174 HD
ATOM     17  H31 UNL     1      20.598   5.184 -12.095  1.00  0.00     0.174 HD
ENDBRANCH   4  15
BRANCH   1  18
HETATM   18  N1  UNL     1      16.394   7.241 -14.925  1.00  0.00    -0.233 N 
ATOM     19  H12 UNL     1      16.126   8.199 -15.149  1.00  0.00     0.174 HD
ATOM     20  H11 UNL     1      15.897   6.633 -15.575  1.00  0.00     0.174 HD
ENDBRANCH   1  18
TORSDOF 6
ENDMDL
MODEL 4
REMARK VINA RESULT: -5.325638466      1.171      1.171
REMARK  6 active torsions:
REMARK  status: ('A' for Active; 'I' for Inactive)
REMARK    1  A    between atoms: N1_1  and  C1_4 
REMARK    2  A    between atoms: C2_7  and  N3_8 
REMARK    3  A    between atoms: N4_11  and  C3_12 
REMARK    4  A    between atoms: C3_12  and  C4_13 
REMARK    5  A    between atoms: C4_13  and  C5_14 
REMARK    6  A    between atoms: C5_14  and  N5_15 
ROOT
HETATM    1  C1  UNL     1      17.591   6.657 -13.454  1.00  0.00     0.705 A 
HETATM    2  N2  UNL     1      16.391   6.051 -13.482  1.00  0.00    -0.020 N 
ATOM      3  H2  UNL     1      15.828   5.852 -14.309  1.00  0.00     0.203 HD
HETATM    4  C2  UNL     1      16.077   5.757 -12.203  1.00  0.00     0.707 A 
HETATM    5  N4  UNL     1      17.063   6.171 -11.373  1.00  0.00    -0.109 N 
HETATM    6  N6  UNL     1      17.971   6.714 -12.165  1.00  0.00    -0.115 N 
ATOM      7  H6  UNL     1      18.848   7.125 -11.841  1.00  0.00     0.206 HD
ENDROOT
BRANCH   5   8
HETATM    8  C3  UNL     1      17.092   6.033  -9.928  1.00  0.00     0.170 C 
BRANCH   8   9
HETATM    9  C4  UNL     1      17.258   7.372  -9.241  1.00  0.00     0.050 C 
BRANCH   9  10
HETATM   10  C5  UNL     1      18.081   7.111  -7.983  1.00  0.00     0.231 C 
BRANCH  10  11
HETATM   11  N5  UNL     1      18.223   5.710  -7.717  1.00  0.00    -0.079 N 
ATOM     12  H53 UNL     1      18.379   5.184  -8.576  1.00  0.00     0.274 HD
ATOM     13  H52 UNL     1      19.104   5.511  -7.244  1.00  0.00     0.274 HD
ATOM     14  H51 UNL     1      17.430   5.339  -7.194  1.00  0.00     0.274 HD
ENDBRANCH  10  11
ENDBRANCH   9  10
ENDBRANCH   8   9
ENDBRANCH   5   8
BRANCH   4  15
HETATM   15  N3  UNL     1      15.000   5.165 -11.760  1.00  0.00    -0.233 N 
ATOM     16  H32 UNL     1      14.701   4.255 -12.109  1.00  0.00     0.174 HD
ATOM     17  H31 UNL     1      14.349   5.501 -11.051  1.00  0.00     0.174 HD
ENDBRANCH   4  15
BRANCH   1  18
HETATM   18  N1  UNL     1      18.228   7.090 -14.503  1.00  0.00    -0.233 N 
ATOM     19  H12 UNL     1      18.703   7.983 -14.630  1.00  0.00     0.174 HD
ATOM     20  H11 UNL     1      18.337   6.568 -15.372  1.00  0.00     0.174 HD
ENDBRANCH   1  18
TORSDOF 6
ENDMDL
MODEL 5
REMARK VINA RESULT: -5.307299240      1.450      1.984
REMARK  6 active torsions:
REMARK  status: ('A' for Active; 'I' for Inactive)
REMARK    1  A    between atoms: N1_1  and  C1_4 
REMARK    2  A    between atoms: C2_7  and  N3_8 
REMARK    3  A    between atoms: N4_11  and  C3_12 
REMARK    4  A    between atoms: C3_12  and  C4_13 
REMARK    5  A    between atoms: C4_13  and  C5_14 
REMARK    6  A    between atoms: C5_14  and  N5_15 
ROOT
HETATM    1  C1  UNL     1      19.777   5.999 -12.957  1.00  0.00     0.705 A 
HETATM    2  N2  UNL     1      18.840   6.439 -13.815  1.00  0.00    -0.020 N 
ATOM      3  H2  UNL     1      18.974   6.667 -14.800  1.00  0.00     0.203 HD
HETATM    4  C2  UNL     1      17.687   6.522 -13.118  1.00  0.00     0.707 A 
HETATM    5  N4  UNL     1      17.888   6.138 -11.835  1.00  0.00    -0.109 N 
HETATM    6  N6  UNL     1      19.171   5.826 -11.769  1.00  0.00    -0.115 N 
ATOM      7  H6  UNL     1      19.641   5.497 -10.926  1.00  0.00     0.206 HD
ENDROOT
BRANCH   5   8
HETATM    8  C3  UNL     1      16.891   6.090 -10.781  1.00  0.00     0.170 C 
BRANCH   8   9
HETATM    9  C4  UNL     1      17.522   5.844  -9.426  1.00  0.00     0.050 C 
BRANCH   9  10
HETATM   10  C5  UNL     1      17.664   7.212  -8.764  1.00  0.00     0.231 C 
BRANCH  10  11
HETATM   11  N5  UNL     1      16.574   8.082  -9.091  1.00  0.00    -0.079 N 
ATOM     12  H53 UNL     1      15.846   8.048  -8.377  1.00  0.00     0.274 HD
ATOM     13  H52 UNL     1      16.842   9.062  -9.001  1.00  0.00     0.274 HD
ATOM     14  H51 UNL     1      16.194   7.886 -10.017  1.00  0.00     0.274 HD
ENDBRANCH  10  11
ENDBRANCH   9  10
ENDBRANCH   8   9
ENDBRANCH   5   8
BRANCH   4  15
HETATM   15  N3  UNL     1      16.516   6.904 -13.552  1.00  0.00    -0.233 N 
ATOM     16  H32 UNL     1      16.352   7.847 -13.906  1.00  0.00     0.174 HD
ATOM     17  H31 UNL     1      15.656   6.357 -13.596  1.00  0.00     0.174 HD
ENDBRANCH   4  15
BRANCH   1  18
HETATM   18  N1  UNL     1      21.025   5.794 -13.264  1.00  0.00    -0.233 N 
ATOM     19  H12 UNL     1      21.562   4.931 -13.184  1.00  0.00     0.174 HD
ATOM     20  H11 UNL     1      21.654   6.502 -13.641  1.00  0.00     0.174 HD
ENDBRANCH   1  18
TORSDOF 6
ENDMDL
