MODEL 1
REMARK VINA RESULT: -6.245125399      0.000      0.000
REMARK  6 active torsions:
REMARK  status: ('A' for Active; 'I' for Inactive)
REMARK    1  A    between atoms: N1_1  and  C1_4 
REMARK    2  A    between atoms: C2_10  and  N4_11 
REMARK    3  A    between atoms: N4_11  and  N5_13 
REMARK    4  A    between atoms: N5_13  and  C3_15 
REMARK    5  A    between atoms: C3_15  and  N6_16 
REMARK    6  A    between atoms: N6_16  and  N7_17 
ROOT
HETATM    1  C1  UNL     1      17.217   7.524  -8.720  1.00  0.00     0.169 A 
HETATM    2  N2  UNL     1      18.079   6.951  -7.846  1.00  0.00    -0.222 N 
ATOM      3  H2  UNL     1      18.401   7.353  -6.966  1.00  0.00     0.198 HD
HETATM    4  O1  UNL     1      18.419   5.806  -8.327  1.00  0.00    -0.153 OA
HETATM    5  N3  UNL     1      17.834   5.586  -9.469  1.00  0.00    -0.221 N 
ATOM      6  H3  UNL     1      17.944   4.750 -10.044  1.00  0.00     0.198 HD
HETATM    7  C2  UNL     1      17.056   6.651  -9.763  1.00  0.00     0.188 A 
ENDROOT
BRANCH   7   8
HETATM    8  N4  UNL     1      16.356   6.718 -10.832  1.00  0.00    -0.284 N 
ATOM      9  H4  UNL     1      16.205   7.636 -11.250  1.00  0.00     0.188 HD
BRANCH   8  10
HETATM   10  N5  UNL     1      15.788   5.612 -11.460  1.00  0.00    -0.318 N 
ATOM     11  H5  UNL     1      15.078   5.050 -10.990  1.00  0.00     0.181 HD
BRANCH  10  12
HETATM   12  C3  UNL     1      16.238   5.277 -12.812  1.00  0.00     0.273 C 
BRANCH  12  13
HETATM   13  N6  UNL     1      16.071   6.477 -13.604  1.00  0.00    -0.127 NA
BRANCH  13  14
HETATM   14  N7  UNL     1      17.253   6.998 -14.077  1.00  0.00    -0.347 N 
ATOM     15  H72 UNL     1      18.142   6.507 -13.980  1.00  0.00     0.172 HD
ATOM     16  H71 UNL     1      17.151   7.909 -14.525  1.00  0.00     0.172 HD
ENDBRANCH  13  14
ENDBRANCH  12  13
ENDBRANCH  10  12
ENDBRANCH   8  10
ENDBRANCH   7   8
BRANCH   1  17
HETATM   17  N1  UNL     1      16.645   8.655  -8.624  1.00  0.00    -0.381 N 
ATOM     18  H12 UNL     1      16.141   8.985  -7.802  1.00  0.00     0.157 HD
ATOM     19  H11 UNL     1      16.596   9.394  -9.326  1.00  0.00     0.157 HD
ENDBRANCH   1  17
TORSDOF 6
ENDMDL
MODEL 2
REMARK VINA RESULT: -6.100002547      2.114      4.676
REMARK  6 active torsions:
REMARK  status: ('A' for Active; 'I' for Inactive)
REMARK    1  A    between atoms: N1_1  and  C1_4 
REMARK    2  A    between atoms: C2_10  and  N4_11 
REMARK    3  A    between atoms: N4_11  and  N5_13 
REMARK    4  A    between atoms: N5_13  and  C3_15 
REMARK    5  A    between atoms: C3_15  and  N6_16 
REMARK    6  A    between atoms: N6_16  and  N7_17 
ROOT
HETATM    1  C1  UNL     1      17.067   6.136 -12.348  1.00  0.00     0.169 A 
HETATM    2  N2  UNL     1      16.405   5.699 -13.446  1.00  0.00    -0.222 N 
ATOM      3  H2  UNL     1      16.724   5.775 -14.411  1.00  0.00     0.198 HD
HETATM    4  O1  UNL     1      15.299   5.172 -13.051  1.00  0.00    -0.153 OA
HETATM    5  N3  UNL     1      15.187   5.233 -11.755  1.00  0.00    -0.221 N 
ATOM      6  H3  UNL     1      14.401   4.884 -11.207  1.00  0.00     0.198 HD
HETATM    7  C2  UNL     1      16.289   5.838 -11.260  1.00  0.00     0.188 A 
ENDROOT
BRANCH   7   8
HETATM    8  N4  UNL     1      16.460   6.039 -10.007  1.00  0.00    -0.284 N 
ATOM      9  H4  UNL     1      16.353   5.245  -9.376  1.00  0.00     0.188 HD
BRANCH   8  10
HETATM   10  N5  UNL     1      16.783   7.276  -9.455  1.00  0.00    -0.318 N 
ATOM     11  H5  UNL     1      16.310   8.126  -9.762  1.00  0.00     0.181 HD
BRANCH  10  12
HETATM   12  C3  UNL     1      17.820   7.323  -8.423  1.00  0.00     0.273 C 
BRANCH  12  13
HETATM   13  N6  UNL     1      17.507   8.461  -7.585  1.00  0.00    -0.127 NA
BRANCH  13  14
HETATM   14  N7  UNL     1      16.234   8.950  -7.769  1.00  0.00    -0.347 N 
ATOM     15  H72 UNL     1      15.404   8.432  -7.478  1.00  0.00     0.172 HD
ATOM     16  H71 UNL     1      16.206   9.865  -8.218  1.00  0.00     0.172 HD
ENDBRANCH  13  14
ENDBRANCH  12  13
ENDBRANCH  10  12
ENDBRANCH   8  10
ENDBRANCH   7   8
BRANCH   1  17
HETATM   17  N1  UNL     1      18.197   6.715 -12.296  1.00  0.00    -0.381 N 
ATOM     18  H12 UNL     1      18.389   7.650 -12.655  1.00  0.00     0.157 HD
ATOM     19  H11 UNL     1      19.066   6.358 -11.902  1.00  0.00     0.157 HD
ENDBRANCH   1  17
TORSDOF 6
ENDMDL
MODEL 3
REMARK VINA RESULT: -6.095027890      1.291      1.825
REMARK  6 active torsions:
REMARK  status: ('A' for Active; 'I' for Inactive)
REMARK    1  A    between atoms: N1_1  and  C1_4 
REMARK    2  A    between atoms: C2_10  and  N4_11 
REMARK    3  A    between atoms: N4_11  and  N5_13 
REMARK    4  A    between atoms: N5_13  and  C3_15 
REMARK    5  A    between atoms: C3_15  and  N6_16 
REMARK    6  A    between atoms: N6_16  and  N7_17 
ROOT
HETATM    1  C1  UNL     1      17.777   6.648  -8.236  1.00  0.00     0.169 A 
HETATM    2  N2  UNL     1      17.862   7.849  -7.616  1.00  0.00    -0.222 N 
ATOM      3  H2  UNL     1      18.424   8.063  -6.792  1.00  0.00     0.198 HD
HETATM    4  O1  UNL     1      17.105   8.672  -8.254  1.00  0.00    -0.153 OA
HETATM    5  N3  UNL     1      16.522   8.089  -9.261  1.00  0.00    -0.221 N 
ATOM      6  H3  UNL     1      15.876   8.531  -9.914  1.00  0.00     0.198 HD
HETATM    7  C2  UNL     1      16.918   6.797  -9.293  1.00  0.00     0.188 A 
ENDROOT
BRANCH   7   8
HETATM    8  N4  UNL     1      16.506   5.973 -10.181  1.00  0.00    -0.284 N 
ATOM      9  H4  UNL     1      16.483   4.982  -9.941  1.00  0.00     0.188 HD
BRANCH   8  10
HETATM   10  N5  UNL     1      16.086   6.348 -11.455  1.00  0.00    -0.318 N 
ATOM     11  H5  UNL     1      15.221   6.873 -11.588  1.00  0.00     0.181 HD
BRANCH  10  12
HETATM   12  C3  UNL     1      16.918   5.967 -12.598  1.00  0.00     0.273 C 
BRANCH  12  13
HETATM   13  N6  UNL     1      16.165   6.320 -13.782  1.00  0.00    -0.127 NA
BRANCH  13  14
HETATM   14  N7  UNL     1      16.863   7.107 -14.669  1.00  0.00    -0.347 N 
ATOM     15  H72 UNL     1      17.294   6.727 -15.512  1.00  0.00     0.172 HD
ATOM     16  H71 UNL     1      16.904   8.090 -14.401  1.00  0.00     0.172 HD
ENDBRANCH  13  14
ENDBRANCH  12  13
ENDBRANCH  10  12
ENDBRANCH   8  10
ENDBRANCH   7   8
BRANCH   1  17
HETATM   17  N1  UNL     1      18.367   5.566  -7.927  1.00  0.00    -0.381 N 
ATOM     18  H12 UNL     1      19.003   5.454  -7.138  1.00  0.00     0.157 HD
ATOM     19  H11 UNL     1      18.307   4.663  -8.397  1.00  0.00     0.157 HD
ENDBRANCH   1  17
TORSDOF 6
ENDMDL
MODEL 4
REMARK VINA RESULT: -6.023305726      1.884      4.393
REMARK  6 active torsions:
REMARK  status: ('A' for Active; 'I' for Inactive)
REMARK    1  A    between atoms: N1_1  and  C1_4 
REMARK    2  A    between atoms: C2_10  and  N4_11 
REMARK    3  A    between atoms: N4_11  and  N5_13 
REMARK    4  A    between atoms: N5_13  and  C3_15 
REMARK    5  A    between atoms: C3_15  and  N6_16 
REMARK    6  A    between atoms: N6_16  and  N7_17 
ROOT
HETATM    1  C1  UNL     1      16.392   6.033 -12.121  1.00  0.00     0.169 A 
HETATM    2  N2  UNL     1      16.800   6.639 -13.261  1.00  0.00    -0.222 N 
ATOM      3  H2  UNL     1      16.241   6.779 -14.103  1.00  0.00     0.198 HD
HETATM    4  O1  UNL     1      18.022   7.008 -13.091  1.00  0.00    -0.153 OA
HETATM    5  N3  UNL     1      18.449   6.681 -11.906  1.00  0.00    -0.221 N 
ATOM      6  H3  UNL     1      19.382   6.865 -11.537  1.00  0.00     0.198 HD
HETATM    7  C2  UNL     1      17.447   6.057 -11.248  1.00  0.00     0.188 A 
ENDROOT
BRANCH   7   8
HETATM    8  N4  UNL     1      17.576   5.620 -10.052  1.00  0.00    -0.284 N 
ATOM      9  H4  UNL     1      18.057   4.731  -9.917  1.00  0.00     0.188 HD
BRANCH   8  10
HETATM   10  N5  UNL     1      17.101   6.285  -8.925  1.00  0.00    -0.318 N 
ATOM     11  H5  UNL     1      16.118   6.222  -8.655  1.00  0.00     0.181 HD
BRANCH  10  12
HETATM   12  C3  UNL     1      18.047   7.078  -8.139  1.00  0.00     0.273 C 
BRANCH  12  13
HETATM   13  N6  UNL     1      17.383   8.332  -7.849  1.00  0.00    -0.127 NA
BRANCH  13  14
HETATM   14  N7  UNL     1      16.452   8.696  -8.795  1.00  0.00    -0.347 N 
ATOM     15  H72 UNL     1      15.681   8.085  -9.063  1.00  0.00     0.172 HD
ATOM     16  H71 UNL     1      16.610   9.622  -9.191  1.00  0.00     0.172 HD
ENDBRANCH  13  14
ENDBRANCH  12  13
ENDBRANCH  10  12
ENDBRANCH   8  10
ENDBRANCH   7   8
BRANCH   1  17
HETATM   17  N1  UNL     1      15.254   5.525 -11.871  1.00  0.00    -0.381 N 
ATOM     18  H12 UNL     1      14.523   5.363 -12.564  1.00  0.00     0.157 HD
ATOM     19  H11 UNL     1      14.894   5.205 -10.972  1.00  0.00     0.157 HD
ENDBRANCH   1  17
TORSDOF 6
ENDMDL
MODEL 5
REMARK VINA RESULT: -5.972258625      2.102      4.523
REMARK  6 active torsions:
REMARK  status: ('A' for Active; 'I' for Inactive)
REMARK    1  A    between atoms: N1_1  and  C1_4 
REMARK    2  A    between atoms: C2_10  and  N4_11 
REMARK    3  A    between atoms: N4_11  and  N5_13 
REMARK    4  A    between atoms: N5_13  and  C3_15 
REMARK    5  A    between atoms: C3_15  and  N6_16 
REMARK    6  A    between atoms: N6_16  and  N7_17 
ROOT
HETATM    1  C1  UNL     1      17.811   6.335 -12.539  1.00  0.00     0.169 A 
HETATM    2  N2  UNL     1      16.965   6.726 -13.521  1.00  0.00    -0.222 N 
ATOM      3  H2  UNL     1      17.228   7.019 -14.461  1.00  0.00     0.198 HD
HETATM    4  O1  UNL     1      15.767   6.660 -13.053  1.00  0.00    -0.153 OA
HETATM    5  N3  UNL     1      15.768   6.250 -11.818  1.00  0.00    -0.221 N 
ATOM      6  H3  UNL     1      14.944   6.117 -11.233  1.00  0.00     0.198 HD
HETATM    7  C2  UNL     1      17.048   6.028 -11.444  1.00  0.00     0.188 A 
ENDROOT
BRANCH   7   8
HETATM    8  N4  UNL     1      17.360   5.615 -10.273  1.00  0.00    -0.284 N 
ATOM      9  H4  UNL     1      17.925   4.769 -10.199  1.00  0.00     0.188 HD
BRANCH   8  10
HETATM   10  N5  UNL     1      16.976   6.252  -9.096  1.00  0.00    -0.318 N 
ATOM     11  H5  UNL     1      16.006   6.231  -8.781  1.00  0.00     0.181 HD
BRANCH  10  12
HETATM   12  C3  UNL     1      18.003   6.953  -8.322  1.00  0.00     0.273 C 
BRANCH  12  13
HETATM   13  N6  UNL     1      17.425   8.225  -7.943  1.00  0.00    -0.127 NA
BRANCH  13  14
HETATM   14  N7  UNL     1      16.432   8.657  -8.792  1.00  0.00    -0.347 N 
ATOM     15  H72 UNL     1      15.540   9.014  -8.449  1.00  0.00     0.172 HD
ATOM     16  H71 UNL     1      16.675   8.585  -9.779  1.00  0.00     0.172 HD
ENDBRANCH  13  14
ENDBRANCH  12  13
ENDBRANCH  10  12
ENDBRANCH   8  10
ENDBRANCH   7   8
BRANCH   1  17
HETATM   17  N1  UNL     1      19.078   6.255 -12.586  1.00  0.00    -0.381 N 
ATOM     18  H12 UNL     1      19.639   6.379 -13.428  1.00  0.00     0.157 HD
ATOM     19  H11 UNL     1      19.723   6.062 -11.820  1.00  0.00     0.157 HD
ENDBRANCH   1  17
TORSDOF 6
ENDMDL
