MODEL 1
REMARK VINA RESULT: -8.075905529      0.000      0.000
REMARK  14 active torsions:
REMARK  status: ('A' for Active; 'I' for Inactive)
REMARK    1  A    between atoms: N1_1  and  C1_4 
REMARK    2  A    between atoms: N4_9  and  C2_10 
REMARK    3  A    between atoms: C2_10  and  C3_11 
REMARK       I    between atoms: C3_11  and  N5_13 
REMARK    4  A    between atoms: N5_13  and  C4_15 
REMARK    5  A    between atoms: C4_15  and  C5_16 
REMARK    6  A    between atoms: C6_23  and  C7_24 
REMARK    7  A    between atoms: C8_25  and  O2_26 
REMARK    8  A    between atoms: C9_28  and  O3_29 
REMARK    9  A    between atoms: C10_31  and  O4_32 
REMARK   10  A    between atoms: C11_34  and  C12_35 
REMARK   11  A    between atoms: C12_35  and  O5_36 
REMARK   12  A    between atoms: C12_35  and  N9_38 
REMARK   13  A    between atoms: N9_38  and  O6_40 
REMARK   14  A    between atoms: C13_42  and  O7_43 
ROOT
HETATM    1  C5  UNL     1       0.871  14.982  52.298  1.00  0.00     0.116 A 
HETATM    2  N6  UNL     1       1.514  14.990  53.481  1.00  0.00    -0.273 N 
ATOM      3  H6  UNL     1       1.472  14.149  54.056  1.00  0.00     0.190 HD
HETATM    4  N7  UNL     1       2.188  16.011  53.936  1.00  0.00    -0.240 N 
ATOM      5  H7  UNL     1       2.656  15.960  54.841  1.00  0.00     0.208 HD
HETATM    6  N8  UNL     1       2.256  17.110  53.210  1.00  0.00    -0.270 N 
ATOM      7  H8  UNL     1       2.782  17.911  53.559  1.00  0.00     0.190 HD
HETATM    8  C6  UNL     1       1.643  17.191  52.014  1.00  0.00     0.138 A 
HETATM    9  N10 UNL     1       0.948  16.104  51.571  1.00  0.00    -0.328 N 
ATOM     10  H10 UNL     1       0.478  16.147  50.667  1.00  0.00     0.169 HD
ENDROOT
BRANCH   8  11
HETATM   11  C7  UNL     1       1.704  18.401  51.211  1.00  0.00     0.080 A 
HETATM   12  C8  UNL     1       2.889  18.850  50.697  1.00  0.00     0.118 A 
HETATM   13  C9  UNL     1       2.974  19.999  49.935  1.00  0.00     0.134 A 
HETATM   14  C10 UNL     1       1.823  20.709  49.689  1.00  0.00     0.119 A 
HETATM   15  C11 UNL     1       0.590  20.281  50.196  1.00  0.00     0.087 A 
HETATM   16  C13 UNL     1       0.550  19.137  50.947  1.00  0.00     0.100 A 
BRANCH  12  17
HETATM   17  O2  UNL     1       4.055  18.130  50.947  1.00  0.00    -0.357 OA
ATOM     18  H2  UNL     1       4.386  18.075  51.835  1.00  0.00     0.217 HD
ENDBRANCH  12  17
BRANCH  13  19
HETATM   19  O3  UNL     1       4.197  20.418  49.436  1.00  0.00    -0.356 OA
ATOM     20  H3  UNL     1       4.286  21.280  49.047  1.00  0.00     0.218 HD
ENDBRANCH  13  19
BRANCH  14  21
HETATM   21  O4  UNL     1       1.814  21.870  48.934  1.00  0.00    -0.357 OA
ATOM     22  H4  UNL     1       2.266  22.659  49.208  1.00  0.00     0.218 HD
ENDBRANCH  14  21
BRANCH  15  23
HETATM   23  C12 UNL     1      -0.593  21.047  49.930  1.00  0.00     0.176 C 
BRANCH  23  24
HETATM   24  O5  UNL     1      -1.006  21.086  48.692  1.00  0.00    -0.344 OA
ATOM     25  H5  UNL     1      -1.903  21.363  48.547  1.00  0.00     0.219 HD
ENDBRANCH  23  24
BRANCH  23  26
HETATM   26  N9  UNL     1      -1.399  21.777  50.809  1.00  0.00    -0.247 N 
ATOM     27  H9  UNL     1      -1.792  22.676  50.529  1.00  0.00     0.196 HD
BRANCH  26  28
HETATM   28  O6  UNL     1      -1.652  21.261  52.061  1.00  0.00    -0.288 OA
ATOM     29  H6  UNL     1      -2.547  21.252  52.380  1.00  0.00     0.244 HD
ENDBRANCH  26  28
ENDBRANCH  23  26
ENDBRANCH  15  23
BRANCH  16  30
HETATM   30  O7  UNL     1      -0.605  18.636  51.489  1.00  0.00    -0.358 OA
ATOM     31  H7  UNL     1      -1.163  18.154  50.889  1.00  0.00     0.217 HD
ENDBRANCH  16  30
ENDBRANCH   8  11
BRANCH   1  32
HETATM   32  C4  UNL     1       0.129  13.759  51.914  1.00  0.00     0.200 C 
BRANCH  32  33
HETATM   33  N5  UNL     1      -0.640  13.217  52.995  1.00  0.00    -0.352 N 
HETATM   34  C3  UNL     1      -1.129  11.903  52.918  1.00  0.00     0.239 C 
HETATM   35  O1  UNL     1      -0.907  11.203  51.913  1.00  0.00    -0.272 OA
ATOM     36  H5  UNL     1      -0.832  13.785  53.820  1.00  0.00     0.162 HD
BRANCH  34  37
HETATM   37  C2  UNL     1      -1.919  11.305  54.023  1.00  0.00     0.274 C 
BRANCH  37  38
HETATM   38  N4  UNL     1      -3.206  10.833  53.550  1.00  0.00    -0.196 N 
HETATM   39  N3  UNL     1      -3.646  10.761  52.310  1.00  0.00    -0.211 N 
HETATM   40  N2  UNL     1      -4.874  10.281  52.256  1.00  0.00    -0.115 N 
ATOM     41  H3  UNL     1      -3.104  11.041  51.493  1.00  0.00     0.210 HD
HETATM   42  C1  UNL     1      -5.224  10.037  53.542  1.00  0.00     0.707 A 
ATOM     43  H2  UNL     1      -5.440  10.127  51.422  1.00  0.00     0.207 HD
HETATM   44  N11 UNL     1      -4.187  10.385  54.313  1.00  0.00    -0.113 N 
ATOM     45  H11 UNL     1      -4.158  10.314  55.331  1.00  0.00     0.207 HD
BRANCH  42  46
HETATM   46  N1  UNL     1      -6.367   9.555  53.945  1.00  0.00    -0.232 N 
ATOM     47  H12 UNL     1      -6.623   8.570  54.010  1.00  0.00     0.174 HD
ATOM     48  H11 UNL     1      -7.171  10.101  54.255  1.00  0.00     0.174 HD
ENDBRANCH  42  46
ENDBRANCH  37  38
ENDBRANCH  34  37
ENDBRANCH  32  33
ENDBRANCH   1  32
TORSDOF 14
ENDMDL
MODEL 2
REMARK VINA RESULT: -8.066177529      2.402      3.420
REMARK  14 active torsions:
REMARK  status: ('A' for Active; 'I' for Inactive)
REMARK    1  A    between atoms: N1_1  and  C1_4 
REMARK    2  A    between atoms: N4_9  and  C2_10 
REMARK    3  A    between atoms: C2_10  and  C3_11 
REMARK       I    between atoms: C3_11  and  N5_13 
REMARK    4  A    between atoms: N5_13  and  C4_15 
REMARK    5  A    between atoms: C4_15  and  C5_16 
REMARK    6  A    between atoms: C6_23  and  C7_24 
REMARK    7  A    between atoms: C8_25  and  O2_26 
REMARK    8  A    between atoms: C9_28  and  O3_29 
REMARK    9  A    between atoms: C10_31  and  O4_32 
REMARK   10  A    between atoms: C11_34  and  C12_35 
REMARK   11  A    between atoms: C12_35  and  O5_36 
REMARK   12  A    between atoms: C12_35  and  N9_38 
REMARK   13  A    between atoms: N9_38  and  O6_40 
REMARK   14  A    between atoms: C13_42  and  O7_43 
ROOT
HETATM    1  C5  UNL     1       0.756  15.078  52.336  1.00  0.00     0.116 A 
HETATM    2  N6  UNL     1       1.451  15.026  53.488  1.00  0.00    -0.273 N 
ATOM      3  H6  UNL     1       1.395  14.174  54.044  1.00  0.00     0.190 HD
HETATM    4  N7  UNL     1       2.194  16.003  53.934  1.00  0.00    -0.240 N 
ATOM      5  H7  UNL     1       2.699  15.907  54.815  1.00  0.00     0.208 HD
HETATM    6  N8  UNL     1       2.281  17.115  53.230  1.00  0.00    -0.270 N 
ATOM      7  H8  UNL     1       2.860  17.882  53.573  1.00  0.00     0.190 HD
HETATM    8  C6  UNL     1       1.619  17.254  52.067  1.00  0.00     0.138 A 
HETATM    9  N10 UNL     1       0.854  16.213  51.631  1.00  0.00    -0.328 N 
ATOM     10  H10 UNL     1       0.346  16.300  50.752  1.00  0.00     0.169 HD
ENDROOT
BRANCH   8  11
HETATM   11  C7  UNL     1       1.701  18.480  51.289  1.00  0.00     0.080 A 
HETATM   12  C8  UNL     1       2.899  18.935  50.811  1.00  0.00     0.118 A 
HETATM   13  C9  UNL     1       3.005  20.098  50.074  1.00  0.00     0.134 A 
HETATM   14  C10 UNL     1       1.861  20.818  49.817  1.00  0.00     0.119 A 
HETATM   15  C11 UNL     1       0.617  20.384  50.288  1.00  0.00     0.087 A 
HETATM   16  C13 UNL     1       0.557  19.225  51.016  1.00  0.00     0.100 A 
BRANCH  12  17
HETATM   17  O2  UNL     1       4.057  18.205  51.071  1.00  0.00    -0.357 OA
ATOM     18  H2  UNL     1       4.430  18.221  51.944  1.00  0.00     0.217 HD
ENDBRANCH  12  17
BRANCH  13  19
HETATM   19  O3  UNL     1       4.240  20.523  49.609  1.00  0.00    -0.356 OA
ATOM     20  H3  UNL     1       4.527  21.416  49.759  1.00  0.00     0.218 HD
ENDBRANCH  13  19
BRANCH  14  21
HETATM   21  O4  UNL     1       1.873  21.993  49.086  1.00  0.00    -0.357 OA
ATOM     22  H4  UNL     1       2.295  22.783  49.399  1.00  0.00     0.218 HD
ENDBRANCH  14  21
BRANCH  15  23
HETATM   23  C12 UNL     1      -0.558  21.159  50.012  1.00  0.00     0.176 C 
BRANCH  23  24
HETATM   24  O5  UNL     1      -0.927  21.248  48.764  1.00  0.00    -0.344 OA
ATOM     25  H5  UNL     1      -0.928  22.116  48.376  1.00  0.00     0.219 HD
ENDBRANCH  23  24
BRANCH  23  26
HETATM   26  N9  UNL     1      -1.395  21.854  50.892  1.00  0.00    -0.247 N 
ATOM     27  H9  UNL     1      -1.751  22.778  50.649  1.00  0.00     0.196 HD
BRANCH  26  28
HETATM   28  O6  UNL     1      -1.730  21.266  52.092  1.00  0.00    -0.288 OA
ATOM     29  H6  UNL     1      -2.463  20.661  52.115  1.00  0.00     0.244 HD
ENDBRANCH  26  28
ENDBRANCH  23  26
ENDBRANCH  15  23
BRANCH  16  30
HETATM   30  O7  UNL     1      -0.612  18.718  51.523  1.00  0.00    -0.358 OA
ATOM     31  H7  UNL     1      -1.277  18.502  50.879  1.00  0.00     0.217 HD
ENDBRANCH  16  30
ENDBRANCH   8  11
BRANCH   1  32
HETATM   32  C4  UNL     1      -0.060  13.900  51.959  1.00  0.00     0.200 C 
BRANCH  32  33
HETATM   33  N5  UNL     1       0.053  12.826  52.900  1.00  0.00    -0.352 N 
HETATM   34  C3  UNL     1      -0.125  11.499  52.474  1.00  0.00     0.239 C 
HETATM   35  O1  UNL     1      -0.389  11.246  51.284  1.00  0.00    -0.272 OA
ATOM     36  H5  UNL     1       0.262  13.024  53.878  1.00  0.00     0.162 HD
BRANCH  34  37
HETATM   37  C2  UNL     1      -0.004  10.360  53.418  1.00  0.00     0.274 C 
BRANCH  37  38
HETATM   38  N4  UNL     1       1.198   9.592  53.158  1.00  0.00    -0.196 N 
HETATM   39  N3  UNL     1       1.455   8.340  53.481  1.00  0.00    -0.211 N 
HETATM   40  N2  UNL     1       2.657   7.971  53.085  1.00  0.00    -0.115 N 
ATOM     41  H3  UNL     1       0.803   7.731  53.976  1.00  0.00     0.210 HD
HETATM   42  C1  UNL     1       3.187   9.059  52.476  1.00  0.00     0.707 A 
ATOM     43  H2  UNL     1       3.097   7.059  53.211  1.00  0.00     0.207 HD
HETATM   44  N11 UNL     1       2.274  10.037  52.535  1.00  0.00    -0.113 N 
ATOM     45  H11 UNL     1       2.391  10.978  52.158  1.00  0.00     0.207 HD
BRANCH  42  46
HETATM   46  N1  UNL     1       4.372   9.132  51.935  1.00  0.00    -0.232 N 
ATOM     47  H12 UNL     1       4.588   9.398  50.974  1.00  0.00     0.174 HD
ATOM     48  H11 UNL     1       5.256   8.934  52.403  1.00  0.00     0.174 HD
ENDBRANCH  42  46
ENDBRANCH  37  38
ENDBRANCH  34  37
ENDBRANCH  32  33
ENDBRANCH   1  32
TORSDOF 14
ENDMDL
MODEL 3
REMARK VINA RESULT: -8.038269087      2.822      4.787
REMARK  14 active torsions:
REMARK  status: ('A' for Active; 'I' for Inactive)
REMARK    1  A    between atoms: N1_1  and  C1_4 
REMARK    2  A    between atoms: N4_9  and  C2_10 
REMARK    3  A    between atoms: C2_10  and  C3_11 
REMARK       I    between atoms: C3_11  and  N5_13 
REMARK    4  A    between atoms: N5_13  and  C4_15 
REMARK    5  A    between atoms: C4_15  and  C5_16 
REMARK    6  A    between atoms: C6_23  and  C7_24 
REMARK    7  A    between atoms: C8_25  and  O2_26 
REMARK    8  A    between atoms: C9_28  and  O3_29 
REMARK    9  A    between atoms: C10_31  and  O4_32 
REMARK   10  A    between atoms: C11_34  and  C12_35 
REMARK   11  A    between atoms: C12_35  and  O5_36 
REMARK   12  A    between atoms: C12_35  and  N9_38 
REMARK   13  A    between atoms: N9_38  and  O6_40 
REMARK   14  A    between atoms: C13_42  and  O7_43 
ROOT
HETATM    1  C5  UNL     1      -0.668  11.622  53.927  1.00  0.00     0.116 A 
HETATM    2  N6  UNL     1       0.110  10.531  54.058  1.00  0.00    -0.273 N 
ATOM      3  H6  UNL     1      -0.262   9.737  54.577  1.00  0.00     0.190 HD
HETATM    4  N7  UNL     1       1.312  10.429  53.559  1.00  0.00    -0.240 N 
ATOM      5  H7  UNL     1       1.855   9.576  53.690  1.00  0.00     0.208 HD
HETATM    6  N8  UNL     1       1.813  11.444  52.883  1.00  0.00    -0.270 N 
ATOM      7  H8  UNL     1       2.752  11.371  52.490  1.00  0.00     0.190 HD
HETATM    8  C6  UNL     1       1.107  12.576  52.703  1.00  0.00     0.138 A 
HETATM    9  N10 UNL     1      -0.146  12.646  53.238  1.00  0.00    -0.328 N 
ATOM     10  H10 UNL     1      -0.696  13.495  53.111  1.00  0.00     0.169 HD
ENDROOT
BRANCH   8  11
HETATM   11  C7  UNL     1       1.655  13.704  51.968  1.00  0.00     0.080 A 
HETATM   12  C8  UNL     1       2.122  13.556  50.691  1.00  0.00     0.118 A 
HETATM   13  C9  UNL     1       2.652  14.611  49.974  1.00  0.00     0.134 A 
HETATM   14  C10 UNL     1       2.708  15.849  50.571  1.00  0.00     0.119 A 
HETATM   15  C11 UNL     1       2.238  16.040  51.876  1.00  0.00     0.087 A 
HETATM   16  C13 UNL     1       1.721  14.967  52.552  1.00  0.00     0.100 A 
BRANCH  12  17
HETATM   17  O2  UNL     1       2.066  12.303  50.086  1.00  0.00    -0.357 OA
ATOM     18  H2  UNL     1       1.219  11.927  49.874  1.00  0.00     0.217 HD
ENDBRANCH  12  17
BRANCH  13  19
HETATM   19  O3  UNL     1       3.116  14.416  48.683  1.00  0.00    -0.356 OA
ATOM     20  H3  UNL     1       2.611  14.726  47.940  1.00  0.00     0.218 HD
ENDBRANCH  13  19
BRANCH  14  21
HETATM   21  O4  UNL     1       3.220  16.961  49.927  1.00  0.00    -0.357 OA
ATOM     22  H4  UNL     1       4.097  17.287  50.092  1.00  0.00     0.218 HD
ENDBRANCH  14  21
BRANCH  15  23
HETATM   23  C12 UNL     1       2.317  17.340  52.477  1.00  0.00     0.176 C 
BRANCH  23  24
HETATM   24  O5  UNL     1       3.093  17.463  53.518  1.00  0.00    -0.344 OA
ATOM     25  H5  UNL     1       3.954  17.836  53.371  1.00  0.00     0.219 HD
ENDBRANCH  23  24
BRANCH  23  26
HETATM   26  N9  UNL     1       1.678  18.530  52.115  1.00  0.00    -0.247 N 
ATOM     27  H9  UNL     1       2.180  19.418  52.137  1.00  0.00     0.196 HD
BRANCH  26  28
HETATM   28  O6  UNL     1       0.357  18.482  51.727  1.00  0.00    -0.288 OA
ATOM     29  H6  UNL     1       0.063  17.753  51.194  1.00  0.00     0.244 HD
ENDBRANCH  26  28
ENDBRANCH  23  26
ENDBRANCH  15  23
BRANCH  16  30
HETATM   30  O7  UNL     1       1.238  15.051  53.833  1.00  0.00    -0.358 OA
ATOM     31  H7  UNL     1       1.172  15.930  54.188  1.00  0.00     0.217 HD
ENDBRANCH  16  30
ENDBRANCH   8  11
BRANCH   1  32
HETATM   32  C4  UNL     1      -2.007  11.607  54.560  1.00  0.00     0.200 C 
BRANCH  32  33
HETATM   33  N5  UNL     1      -2.987  10.932  53.763  1.00  0.00    -0.352 N 
HETATM   34  C3  UNL     1      -4.227  10.583  54.323  1.00  0.00     0.239 C 
HETATM   35  O1  UNL     1      -4.482  10.850  55.513  1.00  0.00    -0.272 OA
ATOM     36  H5  UNL     1      -2.785  10.704  52.790  1.00  0.00     0.162 HD
BRANCH  34  37
HETATM   37  C2  UNL     1      -5.271   9.894  53.525  1.00  0.00     0.274 C 
BRANCH  37  38
HETATM   38  N4  UNL     1      -5.700   8.669  54.171  1.00  0.00    -0.196 N 
HETATM   39  N3  UNL     1      -5.900   8.447  55.454  1.00  0.00    -0.211 N 
HETATM   40  N2  UNL     1      -6.288   7.207  55.680  1.00  0.00    -0.115 N 
ATOM     41  H3  UNL     1      -5.772   9.149  56.183  1.00  0.00     0.210 HD
HETATM   42  C1  UNL     1      -6.334   6.615  54.463  1.00  0.00     0.707 A 
ATOM     43  H2  UNL     1      -6.506   6.783  56.582  1.00  0.00     0.207 HD
HETATM   44  N11 UNL     1      -5.969   7.531  53.557  1.00  0.00    -0.113 N 
ATOM     45  H11 UNL     1      -5.908   7.374  52.550  1.00  0.00     0.207 HD
BRANCH  42  46
HETATM   46  N1  UNL     1      -6.671   5.377  54.226  1.00  0.00    -0.232 N 
ATOM     47  H12 UNL     1      -6.227   4.542  54.606  1.00  0.00     0.174 HD
ATOM     48  H11 UNL     1      -7.435   5.070  53.624  1.00  0.00     0.174 HD
ENDBRANCH  42  46
ENDBRANCH  37  38
ENDBRANCH  34  37
ENDBRANCH  32  33
ENDBRANCH   1  32
TORSDOF 14
ENDMDL
MODEL 4
REMARK VINA RESULT: -7.980463418      3.148      5.141
REMARK  14 active torsions:
REMARK  status: ('A' for Active; 'I' for Inactive)
REMARK    1  A    between atoms: N1_1  and  C1_4 
REMARK    2  A    between atoms: N4_9  and  C2_10 
REMARK    3  A    between atoms: C2_10  and  C3_11 
REMARK       I    between atoms: C3_11  and  N5_13 
REMARK    4  A    between atoms: N5_13  and  C4_15 
REMARK    5  A    between atoms: C4_15  and  C5_16 
REMARK    6  A    between atoms: C6_23  and  C7_24 
REMARK    7  A    between atoms: C8_25  and  O2_26 
REMARK    8  A    between atoms: C9_28  and  O3_29 
REMARK    9  A    between atoms: C10_31  and  O4_32 
REMARK   10  A    between atoms: C11_34  and  C12_35 
REMARK   11  A    between atoms: C12_35  and  O5_36 
REMARK   12  A    between atoms: C12_35  and  N9_38 
REMARK   13  A    between atoms: N9_38  and  O6_40 
REMARK   14  A    between atoms: C13_42  and  O7_43 
ROOT
HETATM    1  C5  UNL     1      -1.338  11.622  53.944  1.00  0.00     0.116 A 
HETATM    2  N6  UNL     1      -0.447  10.693  54.341  1.00  0.00    -0.273 N 
ATOM      3  H6  UNL     1      -0.770   9.954  54.964  1.00  0.00     0.190 HD
HETATM    4  N7  UNL     1       0.806  10.684  53.975  1.00  0.00    -0.240 N 
ATOM      5  H7  UNL     1       1.436   9.953  54.308  1.00  0.00     0.208 HD
HETATM    6  N8  UNL     1       1.246  11.630  53.169  1.00  0.00    -0.270 N 
ATOM      7  H8  UNL     1       2.224  11.628  52.879  1.00  0.00     0.190 HD
HETATM    8  C6  UNL     1       0.425  12.599  52.723  1.00  0.00     0.138 A 
HETATM    9  N10 UNL     1      -0.878  12.577  53.126  1.00  0.00    -0.328 N 
ATOM     10  H10 UNL     1      -1.514  13.303  52.797  1.00  0.00     0.169 HD
ENDROOT
BRANCH   8  11
HETATM   11  C7  UNL     1       0.903  13.653  51.842  1.00  0.00     0.080 A 
HETATM   12  C8  UNL     1       0.749  13.565  50.486  1.00  0.00     0.118 A 
HETATM   13  C9  UNL     1       1.198  14.549  49.628  1.00  0.00     0.134 A 
HETATM   14  C10 UNL     1       1.821  15.652  50.164  1.00  0.00     0.119 A 
HETATM   15  C11 UNL     1       1.996  15.779  51.546  1.00  0.00     0.087 A 
HETATM   16  C13 UNL     1       1.536  14.780  52.362  1.00  0.00     0.100 A 
BRANCH  12  17
HETATM   17  O2  UNL     1       0.118  12.448  49.944  1.00  0.00    -0.357 OA
ATOM     18  H2  UNL     1      -0.741  12.545  49.549  1.00  0.00     0.217 HD
ENDBRANCH  12  17
BRANCH  13  19
HETATM   19  O3  UNL     1       1.022  14.419  48.260  1.00  0.00    -0.356 OA
ATOM     20  H3  UNL     1       0.362  14.932  47.810  1.00  0.00     0.218 HD
ENDBRANCH  13  19
BRANCH  14  21
HETATM   21  O4  UNL     1       2.301  16.688  49.380  1.00  0.00    -0.357 OA
ATOM     22  H4  UNL     1       2.130  17.600  49.581  1.00  0.00     0.218 HD
ENDBRANCH  14  21
BRANCH  15  23
HETATM   23  C12 UNL     1       2.657  16.937  52.077  1.00  0.00     0.176 C 
BRANCH  23  24
HETATM   24  O5  UNL     1       3.808  17.253  51.548  1.00  0.00    -0.344 OA
ATOM     25  H5  UNL     1       4.146  18.119  51.742  1.00  0.00     0.219 HD
ENDBRANCH  23  24
BRANCH  23  26
HETATM   26  N9  UNL     1       2.254  17.806  53.096  1.00  0.00    -0.247 N 
ATOM     27  H9  UNL     1       1.792  18.687  52.875  1.00  0.00     0.196 HD
BRANCH  26  28
HETATM   28  O6  UNL     1       2.495  17.449  54.405  1.00  0.00    -0.288 OA
ATOM     29  H6  UNL     1       2.005  17.882  55.094  1.00  0.00     0.244 HD
ENDBRANCH  26  28
ENDBRANCH  23  26
ENDBRANCH  15  23
BRANCH  16  30
HETATM   30  O7  UNL     1       1.662  14.809  53.727  1.00  0.00    -0.358 OA
ATOM     31  H7  UNL     1       1.236  15.539  54.161  1.00  0.00     0.217 HD
ENDBRANCH  16  30
ENDBRANCH   8  11
BRANCH   1  32
HETATM   32  C4  UNL     1      -2.726  11.520  54.451  1.00  0.00     0.200 C 
BRANCH  32  33
HETATM   33  N5  UNL     1      -3.609  10.883  53.521  1.00  0.00    -0.352 N 
HETATM   34  C3  UNL     1      -4.692  10.121  53.990  1.00  0.00     0.239 C 
HETATM   35  O1  UNL     1      -4.890   9.988  55.212  1.00  0.00    -0.272 OA
ATOM     36  H5  UNL     1      -3.452  10.981  52.518  1.00  0.00     0.162 HD
BRANCH  34  37
HETATM   37  C2  UNL     1      -5.634   9.457  53.056  1.00  0.00     0.274 C 
BRANCH  37  38
HETATM   38  N4  UNL     1      -6.245   8.293  53.668  1.00  0.00    -0.196 N 
HETATM   39  N3  UNL     1      -7.137   8.251  54.637  1.00  0.00    -0.211 N 
HETATM   40  N2  UNL     1      -7.467   7.011  54.943  1.00  0.00    -0.115 N 
ATOM     41  H3  UNL     1      -7.526   9.076  55.093  1.00  0.00     0.210 HD
HETATM   42  C1  UNL     1      -6.735   6.227  54.114  1.00  0.00     0.707 A 
ATOM     43  H2  UNL     1      -8.132   6.707  55.654  1.00  0.00     0.207 HD
HETATM   44  N11 UNL     1      -5.996   7.037  53.346  1.00  0.00    -0.113 N 
ATOM     45  H11 UNL     1      -5.343   6.730  52.624  1.00  0.00     0.207 HD
BRANCH  42  46
HETATM   46  N1  UNL     1      -6.754   4.923  54.081  1.00  0.00    -0.232 N 
ATOM     47  H12 UNL     1      -7.038   4.338  53.296  1.00  0.00     0.174 HD
ATOM     48  H11 UNL     1      -6.481   4.302  54.843  1.00  0.00     0.174 HD
ENDBRANCH  42  46
ENDBRANCH  37  38
ENDBRANCH  34  37
ENDBRANCH  32  33
ENDBRANCH   1  32
TORSDOF 14
ENDMDL
MODEL 5
REMARK VINA RESULT: -7.935484790      2.903      4.579
REMARK  14 active torsions:
REMARK  status: ('A' for Active; 'I' for Inactive)
REMARK    1  A    between atoms: N1_1  and  C1_4 
REMARK    2  A    between atoms: N4_9  and  C2_10 
REMARK    3  A    between atoms: C2_10  and  C3_11 
REMARK       I    between atoms: C3_11  and  N5_13 
REMARK    4  A    between atoms: N5_13  and  C4_15 
REMARK    5  A    between atoms: C4_15  and  C5_16 
REMARK    6  A    between atoms: C6_23  and  C7_24 
REMARK    7  A    between atoms: C8_25  and  O2_26 
REMARK    8  A    between atoms: C9_28  and  O3_29 
REMARK    9  A    between atoms: C10_31  and  O4_32 
REMARK   10  A    between atoms: C11_34  and  C12_35 
REMARK   11  A    between atoms: C12_35  and  O5_36 
REMARK   12  A    between atoms: C12_35  and  N9_38 
REMARK   13  A    between atoms: N9_38  and  O6_40 
REMARK   14  A    between atoms: C13_42  and  O7_43 
ROOT
HETATM    1  C5  UNL     1      -0.451  11.234  52.398  1.00  0.00     0.116 A 
HETATM    2  N6  UNL     1       0.300  10.303  53.016  1.00  0.00    -0.273 N 
ATOM      3  H6  UNL     1      -0.159   9.448  53.330  1.00  0.00     0.190 HD
HETATM    4  N7  UNL     1       1.580  10.429  53.236  1.00  0.00    -0.240 N 
ATOM      5  H7  UNL     1       2.099   9.689  53.709  1.00  0.00     0.208 HD
HETATM    6  N8  UNL     1       2.194  11.526  52.838  1.00  0.00    -0.270 N 
ATOM      7  H8  UNL     1       3.195  11.631  53.007  1.00  0.00     0.190 HD
HETATM    8  C6  UNL     1       1.522  12.510  52.213  1.00  0.00     0.138 A 
HETATM    9  N10 UNL     1       0.185  12.344  51.999  1.00  0.00    -0.328 N 
ATOM     10  H10 UNL     1      -0.341  13.078  51.526  1.00  0.00     0.169 HD
ENDROOT
BRANCH   8  11
HETATM   11  C7  UNL     1       2.187  13.728  51.779  1.00  0.00     0.080 A 
HETATM   12  C8  UNL     1       3.090  13.713  50.751  1.00  0.00     0.118 A 
HETATM   13  C9  UNL     1       3.738  14.854  50.324  1.00  0.00     0.134 A 
HETATM   14  C10 UNL     1       3.463  16.043  50.959  1.00  0.00     0.119 A 
HETATM   15  C11 UNL     1       2.545  16.098  52.014  1.00  0.00     0.087 A 
HETATM   16  C13 UNL     1       1.924  14.944  52.407  1.00  0.00     0.100 A 
BRANCH  12  17
HETATM   17  O2  UNL     1       3.368  12.509  50.108  1.00  0.00    -0.357 OA
ATOM     18  H2  UNL     1       2.675  11.869  49.999  1.00  0.00     0.217 HD
ENDBRANCH  12  17
BRANCH  13  19
HETATM   19  O3  UNL     1       4.647  14.793  49.279  1.00  0.00    -0.356 OA
ATOM     20  H3  UNL     1       4.786  15.548  48.719  1.00  0.00     0.218 HD
ENDBRANCH  13  19
BRANCH  14  21
HETATM   21  O4  UNL     1       4.065  17.235  50.596  1.00  0.00    -0.357 OA
ATOM     22  H4  UNL     1       3.756  18.077  50.908  1.00  0.00     0.218 HD
ENDBRANCH  14  21
BRANCH  15  23
HETATM   23  C12 UNL     1       2.283  17.351  52.664  1.00  0.00     0.176 C 
BRANCH  23  24
HETATM   24  O5  UNL     1       2.670  17.464  53.905  1.00  0.00    -0.344 OA
ATOM     25  H5  UNL     1       3.597  17.346  54.079  1.00  0.00     0.219 HD
ENDBRANCH  23  24
BRANCH  23  26
HETATM   26  N9  UNL     1       1.665  18.502  52.166  1.00  0.00    -0.247 N 
ATOM     27  H9  UNL     1       2.161  19.393  52.150  1.00  0.00     0.196 HD
BRANCH  26  28
HETATM   28  O6  UNL     1       0.372  18.411  51.699  1.00  0.00    -0.288 OA
ATOM     29  H6  UNL     1      -0.302  18.078  52.280  1.00  0.00     0.244 HD
ENDBRANCH  26  28
ENDBRANCH  23  26
ENDBRANCH  15  23
BRANCH  16  30
HETATM   30  O7  UNL     1       1.012  14.893  53.430  1.00  0.00    -0.358 OA
ATOM     31  H7  UNL     1       0.975  15.665  53.983  1.00  0.00     0.217 HD
ENDBRANCH  16  30
ENDBRANCH   8  11
BRANCH   1  32
HETATM   32  C4  UNL     1      -1.899  10.966  52.230  1.00  0.00     0.200 C 
BRANCH  32  33
HETATM   33  N5  UNL     1      -2.584  10.829  53.480  1.00  0.00    -0.352 N 
HETATM   34  C3  UNL     1      -3.965  10.573  53.499  1.00  0.00     0.239 C 
HETATM   35  O1  UNL     1      -4.604  10.470  52.436  1.00  0.00    -0.272 OA
ATOM     36  H5  UNL     1      -2.070  10.918  54.357  1.00  0.00     0.162 HD
BRANCH  34  37
HETATM   37  C2  UNL     1      -4.706  10.413  54.775  1.00  0.00     0.274 C 
BRANCH  37  38
HETATM   38  N4  UNL     1      -5.609   9.281  54.718  1.00  0.00    -0.196 N 
HETATM   39  N3  UNL     1      -5.744   8.297  55.584  1.00  0.00    -0.211 N 
HETATM   40  N2  UNL     1      -6.668   7.436  55.203  1.00  0.00    -0.115 N 
ATOM     41  H3  UNL     1      -5.201   8.212  56.443  1.00  0.00     0.210 HD
HETATM   42  C1  UNL     1      -7.141   7.910  54.025  1.00  0.00     0.707 A 
ATOM     43  H2  UNL     1      -6.963   6.591  55.692  1.00  0.00     0.207 HD
HETATM   44  N11 UNL     1      -6.476   9.039  53.751  1.00  0.00    -0.113 N 
ATOM     45  H11 UNL     1      -6.617   9.621  52.925  1.00  0.00     0.207 HD
BRANCH  42  46
HETATM   46  N1  UNL     1      -8.073   7.359  53.298  1.00  0.00    -0.232 N 
ATOM     47  H12 UNL     1      -8.206   6.361  53.132  1.00  0.00     0.174 HD
ATOM     48  H11 UNL     1      -8.807   7.853  52.791  1.00  0.00     0.174 HD
ENDBRANCH  42  46
ENDBRANCH  37  38
ENDBRANCH  34  37
ENDBRANCH  32  33
ENDBRANCH   1  32
TORSDOF 14
ENDMDL
