MODEL 1
REMARK VINA RESULT: -6.831622834      0.000      0.000
REMARK  12 active torsions:
REMARK  status: ('A' for Active; 'I' for Inactive)
REMARK    1  A    between atoms: O1_2  and  C2_3 
REMARK    2  A    between atoms: C2_3  and  C3_5 
REMARK    3  A    between atoms: C3_5  and  N1_6 
REMARK    4  A    between atoms: C3_5  and  C13_37 
REMARK    5  A    between atoms: N1_6  and  C4_8 
REMARK    6  A    between atoms: C4_8  and  C5_9 
REMARK    7  A    between atoms: C4_8  and  C11_27 
REMARK    8  A    between atoms: C8_14  and  N4_15 
REMARK    9  A    between atoms: C9_20  and  N6_21 
REMARK   10  A    between atoms: N9_33  and  N10_34 
REMARK   11  A    between atoms: C13_37  and  O4_38 
REMARK   12  A    between atoms: C13_37  and  O5_40 
ROOT
HETATM    1  C4  UNL     1       1.306  14.041  51.671  1.00  0.00     0.188 C 
ENDROOT
BRANCH   1   2
HETATM    2  N1  UNL     1       1.482  15.195  52.503  1.00  0.00    -0.390 N 
ATOM      3  H1  UNL     1       1.345  15.154  53.513  1.00  0.00     0.155 HD
BRANCH   2   4
HETATM    4  C3  UNL     1       1.854  16.388  51.851  1.00  0.00     0.233 C 
BRANCH   4   5
HETATM    5  C2  UNL     1       2.744  17.291  52.569  1.00  0.00     0.285 C 
HETATM    6  O2  UNL     1       2.727  17.481  53.810  1.00  0.00    -0.263 OA
BRANCH   5   7
HETATM    7  O1  UNL     1       3.695  18.012  51.856  1.00  0.00    -0.325 OA
HETATM    8  C1  UNL     1       3.991  17.694  50.487  1.00  0.00     0.213 C 
ENDBRANCH   5   7
ENDBRANCH   4   5
BRANCH   4   9
HETATM    9  C13 UNL     1       0.616  17.138  51.400  1.00  0.00     0.285 C 
BRANCH   9  10
HETATM   10  O4  UNL     1       0.545  17.084  50.009  1.00  0.00    -0.369 OA
ATOM     11  H4  UNL     1       0.118  16.272  49.759  1.00  0.00     0.212 HD
ENDBRANCH   9  10
BRANCH   9  12
HETATM   12  O5  UNL     1       0.614  18.465  51.799  1.00  0.00    -0.369 OA
ATOM     13  H5  UNL     1      -0.247  18.864  51.753  1.00  0.00     0.212 HD
ENDBRANCH   9  12
ENDBRANCH   4   9
ENDBRANCH   2   4
ENDBRANCH   1   2
BRANCH   1  14
HETATM   14  C5  UNL     1       0.113  13.304  52.201  1.00  0.00     0.036 A 
HETATM   15  C6  UNL     1      -0.084  12.856  53.513  1.00  0.00     0.124 A 
HETATM   16  N2  UNL     1      -1.288  12.239  53.576  1.00  0.00    -0.284 N 
HETATM   17  C7  UNL     1      -1.877  11.628  54.754  1.00  0.00     0.178 C 
HETATM   18  N3  UNL     1      -1.865  12.267  52.388  1.00  0.00    -0.067 N 
HETATM   19  C8  UNL     1      -3.057  11.787  51.972  1.00  0.00     0.713 A 
HETATM   20  C10 UNL     1      -1.031  12.910  51.540  1.00  0.00     0.171 A 
HETATM   21  N5  UNL     1      -3.398  11.962  50.689  1.00  0.00    -0.021 N 
HETATM   22  C9  UNL     1      -2.596  12.597  49.808  1.00  0.00     0.692 A 
ATOM     23  H5  UNL     1      -4.296  11.603  50.366  1.00  0.00     0.203 HD
HETATM   24  N7  UNL     1      -1.417  13.061  50.259  1.00  0.00    -0.173 N 
ATOM     25  H7  UNL     1      -0.795  13.543  49.610  1.00  0.00     0.186 HD
BRANCH  19  26
HETATM   26  N4  UNL     1      -3.864  11.172  52.774  1.00  0.00    -0.232 N 
ATOM     27  H42 UNL     1      -3.843  10.154  52.832  1.00  0.00     0.174 HD
ATOM     28  H41 UNL     1      -4.531  11.676  53.358  1.00  0.00     0.174 HD
ENDBRANCH  19  26
BRANCH  22  29
HETATM   29  N6  UNL     1      -2.914  12.776  48.567  1.00  0.00    -0.234 N 
ATOM     30  H62 UNL     1      -2.693  13.665  48.119  1.00  0.00     0.174 HD
ATOM     31  H61 UNL     1      -3.382  12.066  48.004  1.00  0.00     0.174 HD
ENDBRANCH  22  29
ENDBRANCH   1  14
BRANCH   1  32
HETATM   32  C11 UNL     1       2.500  13.171  51.839  1.00  0.00     0.153 A 
HETATM   33  N8  UNL     1       2.703  12.284  52.822  1.00  0.00    -0.242 N 
HETATM   34  O3  UNL     1       3.844  11.695  52.672  1.00  0.00    -0.204 OA
ATOM     35  H8  UNL     1       2.048  12.099  53.582  1.00  0.00     0.196 HD
HETATM   36  C12 UNL     1       4.426  12.166  51.599  1.00  0.00     0.261 A 
HETATM   37  S1  UNL     1       5.886  11.736  50.989  1.00  0.00    -0.029 SA
HETATM   38  N9  UNL     1       3.599  13.092  51.063  1.00  0.00    -0.212 N 
BRANCH  38  39
HETATM   39  N10 UNL     1       3.805  13.844  49.929  1.00  0.00    -0.334 N 
ATOM     40 2H10 UNL     1       3.157  14.497  49.489  1.00  0.00     0.177 HD
ATOM     41 1H10 UNL     1       4.664  13.832  49.378  1.00  0.00     0.177 HD
ENDBRANCH  38  39
ENDBRANCH   1  32
TORSDOF 12
ENDMDL
MODEL 2
REMARK VINA RESULT: -6.768588329      2.886      5.493
REMARK  12 active torsions:
REMARK  status: ('A' for Active; 'I' for Inactive)
REMARK    1  A    between atoms: O1_2  and  C2_3 
REMARK    2  A    between atoms: C2_3  and  C3_5 
REMARK    3  A    between atoms: C3_5  and  N1_6 
REMARK    4  A    between atoms: C3_5  and  C13_37 
REMARK    5  A    between atoms: N1_6  and  C4_8 
REMARK    6  A    between atoms: C4_8  and  C5_9 
REMARK    7  A    between atoms: C4_8  and  C11_27 
REMARK    8  A    between atoms: C8_14  and  N4_15 
REMARK    9  A    between atoms: C9_20  and  N6_21 
REMARK   10  A    between atoms: N9_33  and  N10_34 
REMARK   11  A    between atoms: C13_37  and  O4_38 
REMARK   12  A    between atoms: C13_37  and  O5_40 
ROOT
HETATM    1  C4  UNL     1       1.775  15.065  51.596  1.00  0.00     0.188 C 
ENDROOT
BRANCH   1   2
HETATM    2  N1  UNL     1       1.129  16.224  51.052  1.00  0.00    -0.390 N 
ATOM      3  H1  UNL     1       0.508  16.163  50.246  1.00  0.00     0.155 HD
BRANCH   2   4
HETATM    4  C3  UNL     1       1.398  17.451  51.691  1.00  0.00     0.233 C 
BRANCH   4   5
HETATM    5  C2  UNL     1       1.445  18.643  50.855  1.00  0.00     0.285 C 
HETATM    6  O2  UNL     1       1.676  18.647  49.622  1.00  0.00    -0.263 OA
BRANCH   5   7
HETATM    7  O1  UNL     1       1.220  19.886  51.436  1.00  0.00    -0.325 OA
HETATM    8  C1  UNL     1       1.017  21.055  50.627  1.00  0.00     0.213 C 
ENDBRANCH   5   7
ENDBRANCH   4   5
BRANCH   4   9
HETATM    9  C13 UNL     1       2.676  17.342  52.502  1.00  0.00     0.285 C 
BRANCH   9  10
HETATM   10  O4  UNL     1       2.445  17.871  53.770  1.00  0.00    -0.369 OA
ATOM     11  H4  UNL     1       3.269  17.899  54.242  1.00  0.00     0.212 HD
ENDBRANCH   9  10
BRANCH   9  12
HETATM   12  O5  UNL     1       3.740  18.014  51.922  1.00  0.00    -0.369 OA
ATOM     13  H5  UNL     1       4.532  17.974  52.447  1.00  0.00     0.212 HD
ENDBRANCH   9  12
ENDBRANCH   4   9
ENDBRANCH   2   4
ENDBRANCH   1   2
BRANCH   1  14
HETATM   14  C5  UNL     1       2.614  14.484  50.498  1.00  0.00     0.036 A 
HETATM   15  C6  UNL     1       3.422  13.343  50.572  1.00  0.00     0.124 A 
HETATM   16  N2  UNL     1       4.012  13.160  49.367  1.00  0.00    -0.284 N 
HETATM   17  C7  UNL     1       4.930  12.092  49.015  1.00  0.00     0.178 C 
HETATM   18  N3  UNL     1       3.630  14.113  48.535  1.00  0.00    -0.067 N 
HETATM   19  C8  UNL     1       3.949  14.341  47.243  1.00  0.00     0.713 A 
HETATM   20  C10 UNL     1       2.781  14.927  49.203  1.00  0.00     0.171 A 
HETATM   21  N5  UNL     1       3.402  15.399  46.631  1.00  0.00    -0.021 N 
HETATM   22  C9  UNL     1       2.551  16.237  47.259  1.00  0.00     0.692 A 
ATOM     23  H5  UNL     1       3.637  15.578  45.655  1.00  0.00     0.203 HD
HETATM   24  N7  UNL     1       2.257  15.979  48.547  1.00  0.00    -0.173 N 
ATOM     25  H7  UNL     1       1.617  16.600  49.041  1.00  0.00     0.186 HD
BRANCH  19  26
HETATM   26  N4  UNL     1       4.758  13.569  46.593  1.00  0.00    -0.232 N 
ATOM     27  H42 UNL     1       5.177  12.765  47.060  1.00  0.00     0.174 HD
ATOM     28  H41 UNL     1       4.996  13.739  45.616  1.00  0.00     0.174 HD
ENDBRANCH  19  26
BRANCH  22  29
HETATM   29  N6  UNL     1       2.013  17.261  46.681  1.00  0.00    -0.234 N 
ATOM     30  H62 UNL     1       1.609  17.153  45.751  1.00  0.00     0.174 HD
ATOM     31  H61 UNL     1       1.973  18.185  47.110  1.00  0.00     0.174 HD
ENDBRANCH  22  29
ENDBRANCH   1  14
BRANCH   1  32
HETATM   32  C11 UNL     1       0.721  14.077  51.946  1.00  0.00     0.153 A 
HETATM   33  N8  UNL     1      -0.442  13.897  51.305  1.00  0.00    -0.242 N 
HETATM   34  O3  UNL     1      -1.129  12.958  51.868  1.00  0.00    -0.204 OA
ATOM     35  H8  UNL     1      -0.743  14.427  50.486  1.00  0.00     0.196 HD
HETATM   36  C12 UNL     1      -0.453  12.492  52.887  1.00  0.00     0.261 A 
HETATM   37  S1  UNL     1      -0.902  11.295  53.915  1.00  0.00    -0.029 SA
HETATM   38  N9  UNL     1       0.709  13.180  52.952  1.00  0.00    -0.212 N 
BRANCH  38  39
HETATM   39  N10 UNL     1       1.725  13.025  53.867  1.00  0.00    -0.334 N 
ATOM     40 2H10 UNL     1       2.724  12.947  53.679  1.00  0.00     0.177 HD
ATOM     41 1H10 UNL     1       1.588  12.967  54.876  1.00  0.00     0.177 HD
ENDBRANCH  38  39
ENDBRANCH   1  32
TORSDOF 12
ENDMDL
MODEL 3
REMARK VINA RESULT: -6.653190655      2.671      5.720
REMARK  12 active torsions:
REMARK  status: ('A' for Active; 'I' for Inactive)
REMARK    1  A    between atoms: O1_2  and  C2_3 
REMARK    2  A    between atoms: C2_3  and  C3_5 
REMARK    3  A    between atoms: C3_5  and  N1_6 
REMARK    4  A    between atoms: C3_5  and  C13_37 
REMARK    5  A    between atoms: N1_6  and  C4_8 
REMARK    6  A    between atoms: C4_8  and  C5_9 
REMARK    7  A    between atoms: C4_8  and  C11_27 
REMARK    8  A    between atoms: C8_14  and  N4_15 
REMARK    9  A    between atoms: C9_20  and  N6_21 
REMARK   10  A    between atoms: N9_33  and  N10_34 
REMARK   11  A    between atoms: C13_37  and  O4_38 
REMARK   12  A    between atoms: C13_37  and  O5_40 
ROOT
HETATM    1  C4  UNL     1       1.741  15.164  51.633  1.00  0.00     0.188 C 
ENDROOT
BRANCH   1   2
HETATM    2  N1  UNL     1       1.134  16.327  51.056  1.00  0.00    -0.390 N 
ATOM      3  H1  UNL     1       0.509  16.264  50.253  1.00  0.00     0.155 HD
BRANCH   2   4
HETATM    4  C3  UNL     1       1.447  17.563  51.657  1.00  0.00     0.233 C 
BRANCH   4   5
HETATM    5  C2  UNL     1       1.550  18.724  50.784  1.00  0.00     0.285 C 
HETATM    6  O2  UNL     1       1.945  18.694  49.593  1.00  0.00    -0.263 OA
BRANCH   5   7
HETATM    7  O1  UNL     1       1.191  19.974  51.274  1.00  0.00    -0.325 OA
HETATM    8  C1  UNL     1       1.193  21.132  50.424  1.00  0.00     0.213 C 
ENDBRANCH   5   7
ENDBRANCH   4   5
BRANCH   4   9
HETATM    9  C13 UNL     1       2.712  17.429  52.484  1.00  0.00     0.285 C 
BRANCH   9  10
HETATM   10  O4  UNL     1       2.441  17.858  53.782  1.00  0.00    -0.369 OA
ATOM     11  H4  UNL     1       1.886  18.628  53.738  1.00  0.00     0.212 HD
ENDBRANCH   9  10
BRANCH   9  12
HETATM   12  O5  UNL     1       3.768  18.169  51.978  1.00  0.00    -0.369 OA
ATOM     13  H5  UNL     1       3.761  19.073  52.271  1.00  0.00     0.212 HD
ENDBRANCH   9  12
ENDBRANCH   4   9
ENDBRANCH   2   4
ENDBRANCH   1   2
BRANCH   1  14
HETATM   14  C5  UNL     1       2.630  14.574  50.580  1.00  0.00     0.036 A 
HETATM   15  C6  UNL     1       2.786  15.022  49.263  1.00  0.00     0.124 A 
HETATM   16  N2  UNL     1       3.678  14.216  48.641  1.00  0.00    -0.284 N 
HETATM   17  C7  UNL     1       4.123  14.331  47.264  1.00  0.00     0.178 C 
HETATM   18  N3  UNL     1       4.098  13.285  49.479  1.00  0.00    -0.067 N 
HETATM   19  C8  UNL     1       4.979  12.276  49.313  1.00  0.00     0.713 A 
HETATM   20  C10 UNL     1       3.473  13.485  50.662  1.00  0.00     0.171 A 
HETATM   21  N5  UNL     1       5.224  11.470  50.354  1.00  0.00    -0.021 N 
HETATM   22  C9  UNL     1       4.623  11.632  51.552  1.00  0.00     0.692 A 
ATOM     23  H5  UNL     1       5.888  10.705  50.237  1.00  0.00     0.203 HD
HETATM   24  N7  UNL     1       3.750  12.648  51.679  1.00  0.00    -0.173 N 
ATOM     25  H7  UNL     1       3.284  12.789  52.575  1.00  0.00     0.186 HD
BRANCH  19  26
HETATM   26  N4  UNL     1       5.584  12.076  48.188  1.00  0.00    -0.232 N 
ATOM     27  H42 UNL     1       5.235  11.366  47.544  1.00  0.00     0.174 HD
ATOM     28  H41 UNL     1       6.410  12.609  47.918  1.00  0.00     0.174 HD
ENDBRANCH  19  26
BRANCH  22  29
HETATM   29  N6  UNL     1       4.852  10.863  52.566  1.00  0.00    -0.234 N 
ATOM     30  H62 UNL     1       4.501   9.906  52.554  1.00  0.00     0.174 HD
ATOM     31  H61 UNL     1       5.370  11.167  53.390  1.00  0.00     0.174 HD
ENDBRANCH  22  29
ENDBRANCH   1  14
BRANCH   1  32
HETATM   32  C11 UNL     1       0.662  14.186  51.930  1.00  0.00     0.153 A 
HETATM   33  N8  UNL     1      -0.411  13.933  51.169  1.00  0.00    -0.242 N 
HETATM   34  O3  UNL     1      -1.153  13.028  51.718  1.00  0.00    -0.204 OA
ATOM     35  H8  UNL     1      -0.615  14.391  50.280  1.00  0.00     0.196 HD
HETATM   36  C12 UNL     1      -0.603  12.656  52.845  1.00  0.00     0.261 A 
HETATM   37  S1  UNL     1      -1.163  11.535  53.903  1.00  0.00    -0.029 SA
HETATM   38  N9  UNL     1       0.535  13.370  52.996  1.00  0.00    -0.212 N 
BRANCH  38  39
HETATM   39  N10 UNL     1       1.433  13.307  54.037  1.00  0.00    -0.334 N 
ATOM     40 2H10 UNL     1       1.810  12.471  54.483  1.00  0.00     0.177 HD
ATOM     41 1H10 UNL     1       1.837  14.122  54.499  1.00  0.00     0.177 HD
ENDBRANCH  38  39
ENDBRANCH   1  32
TORSDOF 12
ENDMDL
MODEL 4
REMARK VINA RESULT: -6.597640435      2.954      5.193
REMARK  12 active torsions:
REMARK  status: ('A' for Active; 'I' for Inactive)
REMARK    1  A    between atoms: O1_2  and  C2_3 
REMARK    2  A    between atoms: C2_3  and  C3_5 
REMARK    3  A    between atoms: C3_5  and  N1_6 
REMARK    4  A    between atoms: C3_5  and  C13_37 
REMARK    5  A    between atoms: N1_6  and  C4_8 
REMARK    6  A    between atoms: C4_8  and  C5_9 
REMARK    7  A    between atoms: C4_8  and  C11_27 
REMARK    8  A    between atoms: C8_14  and  N4_15 
REMARK    9  A    between atoms: C9_20  and  N6_21 
REMARK   10  A    between atoms: N9_33  and  N10_34 
REMARK   11  A    between atoms: C13_37  and  O4_38 
REMARK   12  A    between atoms: C13_37  and  O5_40 
ROOT
HETATM    1  C4  UNL     1       0.443  12.105  52.795  1.00  0.00     0.188 C 
ENDROOT
BRANCH   1   2
HETATM    2  N1  UNL     1       0.971  11.076  51.948  1.00  0.00    -0.390 N 
ATOM      3  H1  UNL     1       0.665  10.966  50.981  1.00  0.00     0.155 HD
BRANCH   2   4
HETATM    4  C3  UNL     1       1.935  10.223  52.523  1.00  0.00     0.233 C 
BRANCH   4   5
HETATM    5  C2  UNL     1       3.231  10.139  51.863  1.00  0.00     0.285 C 
HETATM    6  O2  UNL     1       3.403   9.852  50.653  1.00  0.00    -0.263 OA
BRANCH   5   7
HETATM    7  O1  UNL     1       4.382  10.390  52.599  1.00  0.00    -0.325 OA
HETATM    8  C1  UNL     1       5.345  11.362  52.159  1.00  0.00     0.213 C 
ENDBRANCH   5   7
ENDBRANCH   4   5
BRANCH   4   9
HETATM    9  C13 UNL     1       1.356   8.832  52.697  1.00  0.00     0.285 C 
BRANCH   9  10
HETATM   10  O4  UNL     1       2.405   7.932  52.871  1.00  0.00    -0.369 OA
ATOM     11  H4  UNL     1       2.066   7.049  52.778  1.00  0.00     0.212 HD
ENDBRANCH   9  10
BRANCH   9  12
HETATM   12  O5  UNL     1       0.592   8.427  51.614  1.00  0.00    -0.369 OA
ATOM     13  H5  UNL     1       0.105   7.628  51.783  1.00  0.00     0.212 HD
ENDBRANCH   9  12
ENDBRANCH   4   9
ENDBRANCH   2   4
ENDBRANCH   1   2
BRANCH   1  14
HETATM   14  C5  UNL     1      -0.948  11.687  53.166  1.00  0.00     0.036 A 
HETATM   15  C6  UNL     1      -1.601  11.923  54.382  1.00  0.00     0.124 A 
HETATM   16  N2  UNL     1      -2.841  11.383  54.313  1.00  0.00    -0.284 N 
HETATM   17  C7  UNL     1      -3.844  11.401  55.361  1.00  0.00     0.178 C 
HETATM   18  N3  UNL     1      -3.015  10.818  53.131  1.00  0.00    -0.067 N 
HETATM   19  C8  UNL     1      -4.075  10.166  52.608  1.00  0.00     0.713 A 
HETATM   20  C10 UNL     1      -1.877  10.992  52.420  1.00  0.00     0.171 A 
HETATM   21  N5  UNL     1      -3.976   9.691  51.360  1.00  0.00    -0.021 N 
HETATM   22  C9  UNL     1      -2.861   9.842  50.615  1.00  0.00     0.692 A 
ATOM     23  H5  UNL     1      -4.774   9.198  50.958  1.00  0.00     0.203 HD
HETATM   24  N7  UNL     1      -1.824  10.496  51.170  1.00  0.00    -0.173 N 
ATOM     25  H7  UNL     1      -0.971  10.620  50.625  1.00  0.00     0.186 HD
BRANCH  19  26
HETATM   26  N4  UNL     1      -5.169   9.995  53.278  1.00  0.00    -0.232 N 
ATOM     27  H42 UNL     1      -5.582  10.778  53.784  1.00  0.00     0.174 HD
ATOM     28  H41 UNL     1      -5.639   9.091  53.319  1.00  0.00     0.174 HD
ENDBRANCH  19  26
BRANCH  22  29
HETATM   29  N6  UNL     1      -2.753   9.391  49.409  1.00  0.00    -0.234 N 
ATOM     30  H62 UNL     1      -3.567   8.976  48.956  1.00  0.00     0.174 HD
ATOM     31  H61 UNL     1      -1.882   9.425  48.878  1.00  0.00     0.174 HD
ENDBRANCH  22  29
ENDBRANCH   1  14
BRANCH   1  32
HETATM   32  C11 UNL     1       0.352  13.353  51.993  1.00  0.00     0.153 A 
HETATM   33  N8  UNL     1      -0.146  13.467  50.755  1.00  0.00    -0.242 N 
HETATM   34  O3  UNL     1      -0.073  14.691  50.347  1.00  0.00    -0.204 OA
ATOM     35  H8  UNL     1      -0.530  12.694  50.209  1.00  0.00     0.196 HD
HETATM   36  C12 UNL     1       0.468  15.420  51.290  1.00  0.00     0.261 A 
HETATM   37  S1  UNL     1       0.773  17.031  51.251  1.00  0.00    -0.029 SA
HETATM   38  N9  UNL     1       0.742  14.599  52.329  1.00  0.00    -0.212 N 
BRANCH  38  39
HETATM   39  N10 UNL     1       1.316  14.935  53.534  1.00  0.00    -0.334 N 
ATOM     40 2H10 UNL     1       1.720  14.306  54.227  1.00  0.00     0.177 HD
ATOM     41 1H10 UNL     1       1.405  15.889  53.884  1.00  0.00     0.177 HD
ENDBRANCH  38  39
ENDBRANCH   1  32
TORSDOF 12
ENDMDL
MODEL 5
REMARK VINA RESULT: -6.588046034      2.615      4.498
REMARK  12 active torsions:
REMARK  status: ('A' for Active; 'I' for Inactive)
REMARK    1  A    between atoms: O1_2  and  C2_3 
REMARK    2  A    between atoms: C2_3  and  C3_5 
REMARK    3  A    between atoms: C3_5  and  N1_6 
REMARK    4  A    between atoms: C3_5  and  C13_37 
REMARK    5  A    between atoms: N1_6  and  C4_8 
REMARK    6  A    between atoms: C4_8  and  C5_9 
REMARK    7  A    between atoms: C4_8  and  C11_27 
REMARK    8  A    between atoms: C8_14  and  N4_15 
REMARK    9  A    between atoms: C9_20  and  N6_21 
REMARK   10  A    between atoms: N9_33  and  N10_34 
REMARK   11  A    between atoms: C13_37  and  O4_38 
REMARK   12  A    between atoms: C13_37  and  O5_40 
ROOT
HETATM    1  C4  UNL     1       0.727  14.662  51.157  1.00  0.00     0.188 C 
ENDROOT
BRANCH   1   2
HETATM    2  N1  UNL     1       1.858  15.543  51.205  1.00  0.00    -0.390 N 
ATOM      3  H1  UNL     1       2.771  15.263  50.848  1.00  0.00     0.155 HD
BRANCH   2   4
HETATM    4  C3  UNL     1       1.640  16.815  51.772  1.00  0.00     0.233 C 
BRANCH   4   5
HETATM    5  C2  UNL     1       1.292  17.900  50.864  1.00  0.00     0.285 C 
HETATM    6  O2  UNL     1       1.370  17.842  49.612  1.00  0.00    -0.263 OA
BRANCH   5   7
HETATM    7  O1  UNL     1       0.835  19.102  51.390  1.00  0.00    -0.325 OA
HETATM    8  C1  UNL     1       1.073  20.346  50.711  1.00  0.00     0.213 C 
ENDBRANCH   5   7
ENDBRANCH   4   5
BRANCH   4   9
HETATM    9  C13 UNL     1       2.834  17.215  52.617  1.00  0.00     0.285 C 
BRANCH   9  10
HETATM   10  O4  UNL     1       2.371  17.842  53.772  1.00  0.00    -0.369 OA
ATOM     11  H4  UNL     1       2.051  17.176  54.371  1.00  0.00     0.212 HD
ENDBRANCH   9  10
BRANCH   9  12
HETATM   12  O5  UNL     1       3.698  18.074  51.956  1.00  0.00    -0.369 OA
ATOM     13  H5  UNL     1       4.337  18.474  52.535  1.00  0.00     0.212 HD
ENDBRANCH   9  12
ENDBRANCH   4   9
ENDBRANCH   2   4
ENDBRANCH   1   2
BRANCH   1  14
HETATM   14  C5  UNL     1       1.204  13.323  51.633  1.00  0.00     0.036 A 
HETATM   15  C6  UNL     1       2.403  12.686  51.290  1.00  0.00     0.124 A 
HETATM   16  N2  UNL     1       2.451  11.495  51.932  1.00  0.00    -0.284 N 
HETATM   17  C7  UNL     1       3.524  10.520  51.850  1.00  0.00     0.178 C 
HETATM   18  N3  UNL     1       1.359  11.335  52.658  1.00  0.00    -0.067 N 
HETATM   19  C8  UNL     1       0.969  10.321  53.460  1.00  0.00     0.713 A 
HETATM   20  C10 UNL     1       0.589  12.434  52.491  1.00  0.00     0.171 A 
HETATM   21  N5  UNL     1      -0.207  10.428  54.091  1.00  0.00    -0.021 N 
HETATM   22  C9  UNL     1      -1.007  11.505  53.952  1.00  0.00     0.692 A 
ATOM     23  H5  UNL     1      -0.509   9.666  54.698  1.00  0.00     0.203 HD
HETATM   24  N7  UNL     1      -0.586  12.496  53.145  1.00  0.00    -0.173 N 
ATOM     25  H7  UNL     1      -1.175  13.319  53.025  1.00  0.00     0.186 HD
BRANCH  19  26
HETATM   26  N4  UNL     1       1.698   9.266  53.629  1.00  0.00    -0.232 N 
ATOM     27  H42 UNL     1       2.346   9.217  54.415  1.00  0.00     0.174 HD
ATOM     28  H41 UNL     1       1.647   8.469  52.994  1.00  0.00     0.174 HD
ENDBRANCH  19  26
BRANCH  22  29
HETATM   29  N6  UNL     1      -2.144  11.623  54.557  1.00  0.00    -0.234 N 
ATOM     30  H62 UNL     1      -2.711  10.791  54.719  1.00  0.00     0.174 HD
ATOM     31  H61 UNL     1      -2.511  12.516  54.885  1.00  0.00     0.174 HD
ENDBRANCH  22  29
ENDBRANCH   1  14
BRANCH   1  32
HETATM   32  C11 UNL     1       0.312  14.529  49.736  1.00  0.00     0.153 A 
HETATM   33  N8  UNL     1       1.025  14.898  48.664  1.00  0.00    -0.242 N 
HETATM   34  O3  UNL     1       0.372  14.645  47.577  1.00  0.00    -0.204 OA
ATOM     35  H8  UNL     1       1.953  15.320  48.700  1.00  0.00     0.196 HD
HETATM   36  C12 UNL     1      -0.778  14.106  47.890  1.00  0.00     0.261 A 
HETATM   37  S1  UNL     1      -1.957  13.609  46.863  1.00  0.00    -0.029 SA
HETATM   38  N9  UNL     1      -0.835  14.025  49.239  1.00  0.00    -0.212 N 
BRANCH  38  39
HETATM   39  N10 UNL     1      -1.861  13.525  50.006  1.00  0.00    -0.334 N 
ATOM     40 2H10 UNL     1      -2.860  13.544  49.798  1.00  0.00     0.177 HD
ATOM     41 1H10 UNL     1      -1.735  13.063  50.907  1.00  0.00     0.177 HD
ENDBRANCH  38  39
ENDBRANCH   1  32
TORSDOF 12
ENDMDL
