MODEL 1
REMARK VINA RESULT: -4.723480486      0.000      0.000
REMARK  3 active torsions:
REMARK  status: ('A' for Active; 'I' for Inactive)
REMARK    1  A    between atoms: N2_4  and  C3_5 
REMARK    2  A    between atoms: C3_5  and  C4_6 
REMARK    3  A    between atoms: C4_6  and  N3_7 
ROOT
HETATM    1  C1  UNL     1       8.086 -17.393 -39.580  1.00  0.00     0.180 C 
HETATM    2  N1  UNL     1       8.607 -17.461 -40.950  1.00  0.00    -0.275 N 
HETATM    3  C2  UNL     1       9.204 -16.453 -41.582  1.00  0.00     0.222 A 
HETATM    4  N2  UNL     1       9.544 -16.883 -42.809  1.00  0.00    -0.269 N 
HETATM    5  N4  UNL     1       9.149 -18.132 -42.894  1.00  0.00    -0.225 N 
ATOM      6  H4  UNL     1       9.267 -18.732 -43.711  1.00  0.00     0.210 HD
HETATM    7  N5  UNL     1       8.578 -18.494 -41.768  1.00  0.00    -0.225 N 
ATOM      8  H5  UNL     1       8.182 -19.411 -41.563  1.00  0.00     0.210 HD
ENDROOT
BRANCH   4   9
HETATM    9  C3  UNL     1      10.214 -16.073 -43.793  1.00  0.00     0.178 C 
BRANCH   9  10
HETATM   10  C4  UNL     1      11.093 -16.955 -44.652  1.00  0.00     0.251 C 
BRANCH  10  11
HETATM   11  N3  UNL     1      12.433 -16.938 -44.092  1.00  0.00    -0.078 N 
ATOM     12  H33 UNL     1      12.909 -16.048 -44.236  1.00  0.00     0.274 HD
ATOM     13  H32 UNL     1      12.435 -16.932 -43.072  1.00  0.00     0.274 HD
ATOM     14  H31 UNL     1      12.949 -17.727 -44.482  1.00  0.00     0.274 HD
ENDBRANCH  10  11
ENDBRANCH   9  10
ENDBRANCH   4   9
TORSDOF 3
ENDMDL
MODEL 2
REMARK VINA RESULT: -4.689888389      1.265      1.648
REMARK  3 active torsions:
REMARK  status: ('A' for Active; 'I' for Inactive)
REMARK    1  A    between atoms: N2_4  and  C3_5 
REMARK    2  A    between atoms: C3_5  and  C4_6 
REMARK    3  A    between atoms: C4_6  and  N3_7 
ROOT
HETATM    1  C1  UNL     1       8.193 -17.054 -39.518  1.00  0.00     0.180 C 
HETATM    2  N1  UNL     1       9.264 -17.020 -40.521  1.00  0.00    -0.275 N 
HETATM    3  C2  UNL     1       9.199 -17.609 -41.713  1.00  0.00     0.222 A 
HETATM    4  N2  UNL     1      10.356 -17.364 -42.353  1.00  0.00    -0.269 N 
HETATM    5  N4  UNL     1      11.090 -16.638 -41.541  1.00  0.00    -0.225 N 
ATOM      6  H4  UNL     1      12.028 -16.293 -41.746  1.00  0.00     0.210 HD
HETATM    7  N5  UNL     1      10.434 -16.423 -40.424  1.00  0.00    -0.225 N 
ATOM      8  H5  UNL     1      10.770 -15.889 -39.623  1.00  0.00     0.210 HD
ENDROOT
BRANCH   4   9
HETATM    9  C3  UNL     1      10.664 -17.839 -43.676  1.00  0.00     0.178 C 
BRANCH   9  10
HETATM   10  C4  UNL     1      11.275 -16.712 -44.481  1.00  0.00     0.251 C 
BRANCH  10  11
HETATM   11  N3  UNL     1      12.718 -16.882 -44.471  1.00  0.00    -0.078 N 
ATOM     12  H33 UNL     1      13.005 -17.794 -44.116  1.00  0.00     0.274 HD
ATOM     13  H32 UNL     1      13.111 -16.969 -45.408  1.00  0.00     0.274 HD
ATOM     14  H31 UNL     1      13.124 -16.109 -43.944  1.00  0.00     0.274 HD
ENDBRANCH  10  11
ENDBRANCH   9  10
ENDBRANCH   4   9
TORSDOF 3
ENDMDL
MODEL 3
REMARK VINA RESULT: -4.626627765      1.576      4.147
REMARK  3 active torsions:
REMARK  status: ('A' for Active; 'I' for Inactive)
REMARK    1  A    between atoms: N2_4  and  C3_5 
REMARK    2  A    between atoms: C3_5  and  C4_6 
REMARK    3  A    between atoms: C4_6  and  N3_7 
ROOT
HETATM    1  C1  UNL     1      10.144 -17.385 -45.441  1.00  0.00     0.180 C 
HETATM    2  N1  UNL     1      10.609 -17.172 -44.066  1.00  0.00    -0.275 N 
HETATM    3  C2  UNL     1       9.809 -16.962 -43.022  1.00  0.00     0.222 A 
HETATM    4  N2  UNL     1      10.586 -16.810 -41.936  1.00  0.00    -0.269 N 
HETATM    5  N4  UNL     1      11.829 -16.932 -42.341  1.00  0.00    -0.225 N 
ATOM      6  H4  UNL     1      12.651 -16.865 -41.741  1.00  0.00     0.210 HD
HETATM    7  N5  UNL     1      11.854 -17.152 -43.635  1.00  0.00    -0.225 N 
ATOM      8  H5  UNL     1      12.688 -17.285 -44.206  1.00  0.00     0.210 HD
ENDROOT
BRANCH   4   9
HETATM    9  C3  UNL     1      10.082 -16.565 -40.610  1.00  0.00     0.178 C 
BRANCH   9  10
HETATM   10  C4  UNL     1       8.569 -16.592 -40.639  1.00  0.00     0.251 C 
BRANCH  10  11
HETATM   11  N3  UNL     1       8.110 -17.378 -39.506  1.00  0.00    -0.078 N 
ATOM     12  H33 UNL     1       7.632 -18.234 -39.788  1.00  0.00     0.274 HD
ATOM     13  H32 UNL     1       8.877 -17.812 -38.991  1.00  0.00     0.274 HD
ATOM     14  H31 UNL     1       7.531 -16.779 -38.919  1.00  0.00     0.274 HD
ENDBRANCH  10  11
ENDBRANCH   9  10
ENDBRANCH   4   9
TORSDOF 3
ENDMDL
MODEL 4
REMARK VINA RESULT: -4.607186399      2.097      3.532
REMARK  3 active torsions:
REMARK  status: ('A' for Active; 'I' for Inactive)
REMARK    1  A    between atoms: N2_4  and  C3_5 
REMARK    2  A    between atoms: C3_5  and  C4_6 
REMARK    3  A    between atoms: C4_6  and  N3_7 
ROOT
HETATM    1  C1  UNL     1       9.442 -16.998 -42.552  1.00  0.00     0.180 C 
HETATM    2  N1  UNL     1      10.589 -16.978 -43.467  1.00  0.00    -0.275 N 
HETATM    3  C2  UNL     1      10.496 -17.047 -44.794  1.00  0.00     0.222 A 
HETATM    4  N2  UNL     1      11.743 -17.000 -45.293  1.00  0.00    -0.269 N 
HETATM    5  N4  UNL     1      12.557 -16.904 -44.267  1.00  0.00    -0.225 N 
ATOM      6  H4  UNL     1      13.574 -16.849 -44.327  1.00  0.00     0.210 HD
HETATM    7  N5  UNL     1      11.864 -16.889 -43.152  1.00  0.00    -0.225 N 
ATOM      8  H5  UNL     1      12.246 -16.821 -42.209  1.00  0.00     0.210 HD
ENDROOT
BRANCH   4   9
HETATM    9  C3  UNL     1      12.054 -17.050 -46.698  1.00  0.00     0.178 C 
BRANCH   9  10
HETATM   10  C4  UNL     1      13.457 -16.529 -46.918  1.00  0.00     0.251 C 
BRANCH  10  11
HETATM   11  N3  UNL     1      14.326 -17.666 -47.169  1.00  0.00    -0.078 N 
ATOM     12  H33 UNL     1      13.874 -18.559 -46.971  1.00  0.00     0.274 HD
ATOM     13  H32 UNL     1      14.500 -17.818 -48.163  1.00  0.00     0.274 HD
ATOM     14  H31 UNL     1      15.184 -17.533 -46.635  1.00  0.00     0.274 HD
ENDBRANCH  10  11
ENDBRANCH   9  10
ENDBRANCH   4   9
TORSDOF 3
ENDMDL
MODEL 5
REMARK VINA RESULT: -4.554436773      2.396      2.929
REMARK  3 active torsions:
REMARK  status: ('A' for Active; 'I' for Inactive)
REMARK    1  A    between atoms: N2_4  and  C3_5 
REMARK    2  A    between atoms: C3_5  and  C4_6 
REMARK    3  A    between atoms: C4_6  and  N3_7 
ROOT
HETATM    1  C1  UNL     1       8.605 -21.132 -42.603  1.00  0.00     0.180 C 
HETATM    2  N1  UNL     1       9.334 -19.903 -42.938  1.00  0.00    -0.275 N 
HETATM    3  C2  UNL     1       9.040 -18.697 -42.456  1.00  0.00     0.222 A 
HETATM    4  N2  UNL     1       9.916 -17.822 -42.981  1.00  0.00    -0.269 N 
HETATM    5  N4  UNL     1      10.715 -18.512 -43.762  1.00  0.00    -0.225 N 
ATOM      6  H4  UNL     1      11.487 -18.123 -44.303  1.00  0.00     0.210 HD
HETATM    7  N5  UNL     1      10.369 -19.779 -43.742  1.00  0.00    -0.225 N 
ATOM      8  H5  UNL     1      10.821 -20.533 -44.258  1.00  0.00     0.210 HD
ENDROOT
BRANCH   4   9
HETATM    9  C3  UNL     1       9.920 -16.412 -42.695  1.00  0.00     0.178 C 
BRANCH   9  10
HETATM   10  C4  UNL     1      10.259 -16.199 -41.236  1.00  0.00     0.251 C 
BRANCH  10  11
HETATM   11  N3  UNL     1      11.658 -16.541 -41.044  1.00  0.00    -0.078 N 
ATOM     12  H33 UNL     1      12.160 -16.658 -41.924  1.00  0.00     0.274 HD
ATOM     13  H32 UNL     1      12.207 -15.763 -40.676  1.00  0.00     0.274 HD
ATOM     14  H31 UNL     1      11.704 -17.369 -40.452  1.00  0.00     0.274 HD
ENDBRANCH  10  11
ENDBRANCH   9  10
ENDBRANCH   4   9
TORSDOF 3
ENDMDL
