MODEL 1
REMARK VINA RESULT: -5.583333378      0.000      0.000
REMARK  3 active torsions:
REMARK  status: ('A' for Active; 'I' for Inactive)
REMARK    1  A    between atoms: C2_3  and  C3_4 
REMARK    2  A    between atoms: C3_4  and  N2_5 
REMARK    3  A    between atoms: N2_5  and  N3_7 
ROOT
HETATM    1  N1  UNL     1       8.305 -18.538 -42.800  1.00  0.00    -0.194 NA
HETATM    2  C1  UNL     1       8.540 -17.818 -41.917  1.00  0.00     0.102 C 
HETATM    3  C2  UNL     1       8.838 -16.911 -40.790  1.00  0.00     0.187 A 
HETATM    4  C4  UNL     1       8.343 -17.287 -39.449  1.00  0.00     0.225 A 
HETATM    5  O1  UNL     1       7.791 -16.227 -40.209  1.00  0.00    -0.357 OA
ENDROOT
BRANCH   3   6
HETATM    6  C3  UNL     1      10.215 -16.342 -40.837  1.00  0.00     0.196 C 
BRANCH   6   7
HETATM    7  N2  UNL     1      10.638 -16.345 -42.219  1.00  0.00    -0.319 N 
ATOM      8  H2  UNL     1      10.057 -15.869 -42.907  1.00  0.00     0.181 HD
BRANCH   7   9
HETATM    9  N3  UNL     1      11.809 -16.971 -42.653  1.00  0.00    -0.254 N 
HETATM   10  N4  UNL     1      12.176 -17.003 -43.850  1.00  0.00    -0.331 N 
ATOM     11  H42 UNL     1      11.576 -16.542 -44.533  1.00  0.00     0.178 HD
ATOM     12  H41 UNL     1      13.031 -17.460 -44.167  1.00  0.00     0.178 HD
ATOM     13  H3  UNL     1      12.398 -17.427 -41.956  1.00  0.00     0.207 HD
ENDBRANCH   7   9
ENDBRANCH   6   7
ENDBRANCH   3   6
TORSDOF 3
ENDMDL
MODEL 2
REMARK VINA RESULT: -5.417729401      1.933      2.350
REMARK  3 active torsions:
REMARK  status: ('A' for Active; 'I' for Inactive)
REMARK    1  A    between atoms: C2_3  and  C3_4 
REMARK    2  A    between atoms: C3_4  and  N2_5 
REMARK    3  A    between atoms: N2_5  and  N3_7 
ROOT
HETATM    1  N1  UNL     1       7.851 -16.335 -40.074  1.00  0.00    -0.194 NA
HETATM    2  C1  UNL     1       8.419 -16.785 -40.985  1.00  0.00     0.102 C 
HETATM    3  C2  UNL     1       9.130 -17.359 -42.146  1.00  0.00     0.187 A 
HETATM    4  C4  UNL     1       8.531 -18.534 -42.812  1.00  0.00     0.225 A 
HETATM    5  O1  UNL     1       9.695 -18.610 -42.010  1.00  0.00    -0.357 OA
ENDROOT
BRANCH   3   6
HETATM    6  C3  UNL     1       9.714 -16.329 -43.050  1.00  0.00     0.196 C 
BRANCH   6   7
HETATM    7  N2  UNL     1      11.149 -16.366 -42.880  1.00  0.00    -0.319 N 
ATOM      8  H2  UNL     1      11.573 -15.753 -42.184  1.00  0.00     0.181 HD
BRANCH   7   9
HETATM    9  N3  UNL     1      11.981 -17.204 -43.625  1.00  0.00    -0.254 N 
HETATM   10  N4  UNL     1      12.766 -16.794 -44.510  1.00  0.00    -0.331 N 
ATOM     11  H42 UNL     1      12.787 -15.789 -44.684  1.00  0.00     0.178 HD
ATOM     12  H41 UNL     1      13.374 -17.406 -45.055  1.00  0.00     0.178 HD
ATOM     13  H3  UNL     1      11.947 -18.206 -43.438  1.00  0.00     0.207 HD
ENDBRANCH   7   9
ENDBRANCH   6   7
ENDBRANCH   3   6
TORSDOF 3
ENDMDL
MODEL 3
REMARK VINA RESULT: -5.268741585      1.280      1.462
REMARK  3 active torsions:
REMARK  status: ('A' for Active; 'I' for Inactive)
REMARK    1  A    between atoms: C2_3  and  C3_4 
REMARK    2  A    between atoms: C3_4  and  N2_5 
REMARK    3  A    between atoms: N2_5  and  N3_7 
ROOT
HETATM    1  N1  UNL     1       9.490 -19.038 -42.567  1.00  0.00    -0.194 NA
HETATM    2  C1  UNL     1       9.325 -17.927 -42.263  1.00  0.00     0.102 C 
HETATM    3  C2  UNL     1       9.122 -16.517 -41.871  1.00  0.00     0.187 A 
HETATM    4  C4  UNL     1       9.159 -16.188 -40.431  1.00  0.00     0.225 A 
HETATM    5  O1  UNL     1       7.966 -16.190 -41.194  1.00  0.00    -0.357 OA
ENDROOT
BRANCH   3   6
HETATM    6  C3  UNL     1       9.802 -15.548 -42.775  1.00  0.00     0.196 C 
BRANCH   6   7
HETATM    7  N2  UNL     1      10.233 -16.276 -43.947  1.00  0.00    -0.319 N 
ATOM      8  H2  UNL     1       9.547 -16.838 -44.450  1.00  0.00     0.181 HD
BRANCH   7   9
HETATM    9  N3  UNL     1      11.546 -16.244 -44.421  1.00  0.00    -0.254 N 
HETATM   10  N4  UNL     1      12.455 -16.997 -44.002  1.00  0.00    -0.331 N 
ATOM     11  H42 UNL     1      12.205 -17.666 -43.273  1.00  0.00     0.178 HD
ATOM     12  H41 UNL     1      13.414 -16.974 -44.348  1.00  0.00     0.178 HD
ATOM     13  H3  UNL     1      11.778 -15.570 -45.150  1.00  0.00     0.207 HD
ENDBRANCH   7   9
ENDBRANCH   6   7
ENDBRANCH   3   6
TORSDOF 3
ENDMDL
MODEL 4
REMARK VINA RESULT: -5.058576570      1.394      1.519
REMARK  3 active torsions:
REMARK  status: ('A' for Active; 'I' for Inactive)
REMARK    1  A    between atoms: C2_3  and  C3_4 
REMARK    2  A    between atoms: C3_4  and  N2_5 
REMARK    3  A    between atoms: N2_5  and  N3_7 
ROOT
HETATM    1  N1  UNL     1       7.206 -19.328 -42.332  1.00  0.00    -0.194 NA
HETATM    2  C1  UNL     1       7.716 -18.440 -41.779  1.00  0.00     0.102 C 
HETATM    3  C2  UNL     1       8.365 -17.319 -41.069  1.00  0.00     0.187 A 
HETATM    4  C4  UNL     1       8.141 -17.199 -39.614  1.00  0.00     0.225 A 
HETATM    5  O1  UNL     1       7.563 -16.319 -40.560  1.00  0.00    -0.357 OA
ENDROOT
BRANCH   3   6
HETATM    6  C3  UNL     1       9.754 -17.048 -41.536  1.00  0.00     0.196 C 
BRANCH   6   7
HETATM    7  N2  UNL     1       9.830 -17.442 -42.925  1.00  0.00    -0.319 N 
ATOM      8  H2  UNL     1       9.192 -17.006 -43.590  1.00  0.00     0.181 HD
BRANCH   7   9
HETATM    9  N3  UNL     1      10.738 -18.393 -43.396  1.00  0.00    -0.254 N 
HETATM   10  N4  UNL     1      10.417 -19.558 -43.721  1.00  0.00    -0.331 N 
ATOM     11  H42 UNL     1       9.433 -19.812 -43.631  1.00  0.00     0.178 HD
ATOM     12  H41 UNL     1      11.080 -20.253 -44.066  1.00  0.00     0.178 HD
ATOM     13  H3  UNL     1      11.717 -18.122 -43.480  1.00  0.00     0.207 HD
ENDBRANCH   7   9
ENDBRANCH   6   7
ENDBRANCH   3   6
TORSDOF 3
ENDMDL
MODEL 5
REMARK VINA RESULT: -5.050096360      1.995      2.551
REMARK  3 active torsions:
REMARK  status: ('A' for Active; 'I' for Inactive)
REMARK    1  A    between atoms: C2_3  and  C3_4 
REMARK    2  A    between atoms: C3_4  and  N2_5 
REMARK    3  A    between atoms: N2_5  and  N3_7 
ROOT
HETATM    1  N1  UNL     1       7.795 -16.579 -40.780  1.00  0.00    -0.194 NA
HETATM    2  C1  UNL     1       8.150 -17.430 -41.490  1.00  0.00     0.102 C 
HETATM    3  C2  UNL     1       8.591 -18.511 -42.396  1.00  0.00     0.187 A 
HETATM    4  C4  UNL     1       7.609 -19.554 -42.757  1.00  0.00     0.225 A 
HETATM    5  O1  UNL     1       8.697 -19.787 -41.883  1.00  0.00    -0.357 OA
ENDROOT
BRANCH   3   6
HETATM    6  C3  UNL     1       9.468 -18.035 -43.502  1.00  0.00     0.196 C 
BRANCH   6   7
HETATM    7  N2  UNL     1      10.291 -16.970 -42.975  1.00  0.00    -0.319 N 
ATOM      8  H2  UNL     1       9.832 -16.143 -42.593  1.00  0.00     0.181 HD
BRANCH   7   9
HETATM    9  N3  UNL     1      11.687 -17.022 -42.964  1.00  0.00    -0.254 N 
HETATM   10  N4  UNL     1      12.391 -16.968 -43.998  1.00  0.00    -0.331 N 
ATOM     11  H42 UNL     1      11.903 -16.882 -44.889  1.00  0.00     0.178 HD
ATOM     12  H41 UNL     1      13.411 -17.007 -43.991  1.00  0.00     0.178 HD
ATOM     13  H3  UNL     1      12.158 -17.108 -42.064  1.00  0.00     0.207 HD
ENDBRANCH   7   9
ENDBRANCH   6   7
ENDBRANCH   3   6
TORSDOF 3
ENDMDL
