MODEL 1
REMARK VINA RESULT: -5.424337378      0.000      0.000
REMARK  3 active torsions:
REMARK  status: ('A' for Active; 'I' for Inactive)
REMARK    1  A    between atoms: O1_2  and  N1_3 
REMARK    2  A    between atoms: C2_5  and  C3_6 
REMARK    3  A    between atoms: N3_10  and  O2_11 
ROOT
HETATM    1  C3  UNL     1      10.051 -17.236 -43.046  1.00  0.00     0.086 A 
HETATM    2  C4  UNL     1      10.095 -18.152 -44.096  1.00  0.00     0.143 A 
HETATM    3  N2  UNL     1      11.031 -17.718 -44.927  1.00  0.00    -0.268 N 
ATOM      4  H2  UNL     1      11.311 -18.165 -45.800  1.00  0.00     0.190 HD
HETATM    5  N3  UNL     1      11.540 -16.603 -44.428  1.00  0.00    -0.095 N 
HETATM    6  N4  UNL     1      10.972 -16.288 -43.299  1.00  0.00    -0.257 N 
ATOM      7  H4  UNL     1      11.184 -15.477 -42.719  1.00  0.00     0.191 HD
ENDROOT
BRANCH   1   8
HETATM    8  C2  UNL     1       9.179 -17.280 -41.883  1.00  0.00     0.146 C 
HETATM    9  N1  UNL     1       8.716 -16.174 -41.416  1.00  0.00    -0.276 N 
ATOM     10  H1  UNL     1       8.952 -15.281 -41.849  1.00  0.00     0.193 HD
BRANCH   9  11
HETATM   11  O1  UNL     1       7.893 -16.233 -40.317  1.00  0.00    -0.286 OA
HETATM   12  C1  UNL     1       7.998 -17.308 -39.404  1.00  0.00     0.237 C 
ENDBRANCH   9  11
ENDBRANCH   1   8
BRANCH   5  13
HETATM   13  O2  UNL     1      12.535 -15.896 -45.047  1.00  0.00    -0.253 OA
ATOM     14  H2  UNL     1      13.092 -15.278 -44.588  1.00  0.00     0.248 HD
ENDBRANCH   5  13
TORSDOF 3
ENDMDL
MODEL 2
REMARK VINA RESULT: -5.227653515      1.486      4.898
REMARK  3 active torsions:
REMARK  status: ('A' for Active; 'I' for Inactive)
REMARK    1  A    between atoms: O1_2  and  N1_3 
REMARK    2  A    between atoms: C2_5  and  C3_6 
REMARK    3  A    between atoms: N3_10  and  O2_11 
ROOT
HETATM    1  C3  UNL     1      10.430 -16.869 -42.278  1.00  0.00     0.086 A 
HETATM    2  C4  UNL     1      10.886 -16.651 -40.979  1.00  0.00     0.143 A 
HETATM    3  N2  UNL     1       9.810 -16.411 -40.244  1.00  0.00    -0.268 N 
ATOM      4  H2  UNL     1       9.801 -16.211 -39.245  1.00  0.00     0.190 HD
HETATM    5  N3  UNL     1       8.750 -16.476 -41.033  1.00  0.00    -0.095 N 
HETATM    6  N4  UNL     1       9.090 -16.749 -42.260  1.00  0.00    -0.257 N 
ATOM      7  H4  UNL     1       8.461 -16.852 -43.056  1.00  0.00     0.191 HD
ENDROOT
BRANCH   1   8
HETATM    8  C2  UNL     1      11.238 -17.171 -43.449  1.00  0.00     0.146 C 
HETATM    9  N1  UNL     1      11.514 -16.221 -44.271  1.00  0.00    -0.276 N 
ATOM     10  H1  UNL     1      11.176 -15.272 -44.111  1.00  0.00     0.193 HD
BRANCH   9  11
HETATM   11  O1  UNL     1      12.279 -16.523 -45.373  1.00  0.00    -0.286 OA
HETATM   12  C1  UNL     1      11.700 -17.178 -46.485  1.00  0.00     0.237 C 
ENDBRANCH   9  11
ENDBRANCH   1   8
BRANCH   5  13
HETATM   13  O2  UNL     1       7.473 -16.275 -40.584  1.00  0.00    -0.253 OA
ATOM     14  H2  UNL     1       6.875 -16.988 -40.389  1.00  0.00     0.248 HD
ENDBRANCH   5  13
TORSDOF 3
ENDMDL
MODEL 3
REMARK VINA RESULT: -5.217828393      1.071      1.223
REMARK  3 active torsions:
REMARK  status: ('A' for Active; 'I' for Inactive)
REMARK    1  A    between atoms: O1_2  and  N1_3 
REMARK    2  A    between atoms: C2_5  and  C3_6 
REMARK    3  A    between atoms: N3_10  and  O2_11 
ROOT
HETATM    1  C3  UNL     1      10.017 -17.203 -43.152  1.00  0.00     0.086 A 
HETATM    2  C4  UNL     1      11.401 -17.364 -43.125  1.00  0.00     0.143 A 
HETATM    3  N2  UNL     1      11.815 -17.224 -44.376  1.00  0.00    -0.268 N 
ATOM      4  H2  UNL     1      12.780 -17.286 -44.698  1.00  0.00     0.190 HD
HETATM    5  N3  UNL     1      10.757 -16.991 -45.135  1.00  0.00    -0.095 N 
HETATM    6  N4  UNL     1       9.663 -16.972 -44.429  1.00  0.00    -0.257 N 
ATOM      7  H4  UNL     1       8.718 -16.813 -44.778  1.00  0.00     0.191 HD
ENDROOT
BRANCH   1   8
HETATM    8  C2  UNL     1       9.107 -17.269 -42.020  1.00  0.00     0.146 C 
HETATM    9  N1  UNL     1       8.747 -16.172 -41.452  1.00  0.00    -0.276 N 
ATOM     10  H1  UNL     1       9.090 -15.271 -41.785  1.00  0.00     0.193 HD
BRANCH   9  11
HETATM   11  O1  UNL     1       7.886 -16.251 -40.384  1.00  0.00    -0.286 OA
HETATM   12  C1  UNL     1       8.026 -17.285 -39.430  1.00  0.00     0.237 C 
ENDBRANCH   9  11
ENDBRANCH   1   8
BRANCH   5  13
HETATM   13  O2  UNL     1      10.838 -16.798 -46.488  1.00  0.00    -0.253 OA
ATOM     14  H2  UNL     1      10.163 -16.357 -46.990  1.00  0.00     0.248 HD
ENDBRANCH   5  13
TORSDOF 3
ENDMDL
MODEL 4
REMARK VINA RESULT: -5.159420482      1.515      4.791
REMARK  3 active torsions:
REMARK  status: ('A' for Active; 'I' for Inactive)
REMARK    1  A    between atoms: O1_2  and  N1_3 
REMARK    2  A    between atoms: C2_5  and  C3_6 
REMARK    3  A    between atoms: N3_10  and  O2_11 
ROOT
HETATM    1  C3  UNL     1       9.859 -16.851 -42.841  1.00  0.00     0.086 A 
HETATM    2  C4  UNL     1       9.388 -18.130 -42.551  1.00  0.00     0.143 A 
HETATM    3  N2  UNL     1       8.553 -17.994 -41.531  1.00  0.00    -0.268 N 
ATOM      4  H2  UNL     1       8.038 -18.747 -41.076  1.00  0.00     0.190 HD
HETATM    5  N3  UNL     1       8.505 -16.713 -41.206  1.00  0.00    -0.095 N 
HETATM    6  N4  UNL     1       9.279 -16.001 -41.975  1.00  0.00    -0.257 N 
ATOM      7  H4  UNL     1       9.417 -14.992 -41.928  1.00  0.00     0.191 HD
ENDROOT
BRANCH   1   8
HETATM    8  C2  UNL     1      10.803 -16.482 -43.884  1.00  0.00     0.146 C 
HETATM    9  N1  UNL     1      11.966 -17.035 -43.889  1.00  0.00    -0.276 N 
ATOM     10  H1  UNL     1      12.225 -17.718 -43.178  1.00  0.00     0.193 HD
BRANCH   9  11
HETATM   11  O1  UNL     1      12.846 -16.676 -44.882  1.00  0.00    -0.286 OA
HETATM   12  C1  UNL     1      12.504 -16.865 -46.241  1.00  0.00     0.237 C 
ENDBRANCH   9  11
ENDBRANCH   1   8
BRANCH   5  13
HETATM   13  O2  UNL     1       7.730 -16.232 -40.185  1.00  0.00    -0.253 OA
ATOM     14  H2  UNL     1       8.010 -16.237 -39.277  1.00  0.00     0.248 HD
ENDBRANCH   5  13
TORSDOF 3
ENDMDL
MODEL 5
REMARK VINA RESULT: -5.144362029      3.084      3.234
REMARK  3 active torsions:
REMARK  status: ('A' for Active; 'I' for Inactive)
REMARK    1  A    between atoms: O1_2  and  N1_3 
REMARK    2  A    between atoms: C2_5  and  C3_6 
REMARK    3  A    between atoms: N3_10  and  O2_11 
ROOT
HETATM    1  C3  UNL     1      10.539 -17.616 -44.423  1.00  0.00     0.086 A 
HETATM    2  C4  UNL     1      11.491 -17.361 -43.437  1.00  0.00     0.143 A 
HETATM    3  N2  UNL     1      12.515 -16.787 -44.051  1.00  0.00    -0.268 N 
ATOM      4  H2  UNL     1      13.379 -16.476 -43.608  1.00  0.00     0.190 HD
HETATM    5  N3  UNL     1      12.222 -16.689 -45.337  1.00  0.00    -0.095 N 
HETATM    6  N4  UNL     1      11.042 -17.178 -45.592  1.00  0.00    -0.257 N 
ATOM      7  H4  UNL     1      10.587 -17.221 -46.503  1.00  0.00     0.191 HD
ENDROOT
BRANCH   1   8
HETATM    8  C2  UNL     1       9.237 -18.239 -44.242  1.00  0.00     0.146 C 
HETATM    9  N1  UNL     1       8.596 -18.642 -45.283  1.00  0.00    -0.276 N 
ATOM     10  H1  UNL     1       8.987 -18.530 -46.218  1.00  0.00     0.193 HD
BRANCH   9  11
HETATM   11  O1  UNL     1       7.367 -19.228 -45.095  1.00  0.00    -0.286 OA
HETATM   12  C1  UNL     1       7.024 -19.779 -43.838  1.00  0.00     0.237 C 
ENDBRANCH   9  11
ENDBRANCH   1   8
BRANCH   5  13
HETATM   13  O2  UNL     1      13.074 -16.138 -46.256  1.00  0.00    -0.253 OA
ATOM     14  H2  UNL     1      13.709 -16.650 -46.745  1.00  0.00     0.248 HD
ENDBRANCH   5  13
TORSDOF 3
ENDMDL
