MODEL 1
REMARK VINA RESULT: -6.139781144      0.000      0.000
REMARK  3 active torsions:
REMARK  status: ('A' for Active; 'I' for Inactive)
REMARK    1  A    between atoms: C2_5  and  O1_6 
REMARK    2  A    between atoms: O1_6  and  C3_7 
REMARK    3  A    between atoms: C3_7  and  N2_8 
ROOT
HETATM    1  C3  UNL     1       9.189 -18.366 -42.441  1.00  0.00     0.338 C 
ENDROOT
BRANCH   1   2
HETATM    2  O1  UNL     1      10.566 -18.283 -42.609  1.00  0.00    -0.335 OA
BRANCH   2   3
HETATM    3  C2  UNL     1      10.842 -17.846 -43.875  1.00  0.00     0.348 A 
HETATM    4  C1  UNL     1      10.932 -16.463 -44.271  1.00  0.00     0.296 A 
HETATM    5  N1  UNL     1      12.159 -17.077 -43.881  1.00  0.00    -0.043 N 
ATOM      6  H12 UNL     1      13.081 -17.204 -44.298  1.00  0.00     0.280 HD
ATOM      7  H11 UNL     1      12.895 -16.878 -43.204  1.00  0.00     0.280 HD
ENDBRANCH   2   3
ENDBRANCH   1   2
BRANCH   1   8
HETATM    8  N2  UNL     1       8.762 -17.428 -41.424  1.00  0.00    -0.183 N 
HETATM    9  N3  UNL     1       9.542 -16.585 -40.776  1.00  0.00    -0.211 N 
HETATM   10  N4  UNL     1       8.841 -15.863 -39.909  1.00  0.00     0.006 NA
ATOM     11  H3  UNL     1      10.548 -16.500 -40.920  1.00  0.00     0.206 HD
HETATM   12  N5  UNL     1       7.587 -16.291 -40.044  1.00  0.00     0.008 NA
HETATM   13  N6  UNL     1       7.539 -17.241 -40.964  1.00  0.00     0.010 NA
ENDBRANCH   1   8
TORSDOF 3
ENDMDL
MODEL 2
REMARK VINA RESULT: -5.973752812      1.168      1.192
REMARK  3 active torsions:
REMARK  status: ('A' for Active; 'I' for Inactive)
REMARK    1  A    between atoms: C2_5  and  O1_6 
REMARK    2  A    between atoms: O1_6  and  C3_7 
REMARK    3  A    between atoms: C3_7  and  N2_8 
ROOT
HETATM    1  C3  UNL     1       9.724 -16.186 -42.390  1.00  0.00     0.338 C 
ENDROOT
BRANCH   1   2
HETATM    2  O1  UNL     1      10.999 -16.739 -42.355  1.00  0.00    -0.335 OA
BRANCH   2   3
HETATM    3  C2  UNL     1      11.229 -17.418 -43.520  1.00  0.00     0.348 A 
HETATM    4  C1  UNL     1      11.334 -16.813 -44.823  1.00  0.00     0.296 A 
HETATM    5  N1  UNL     1      12.562 -16.981 -44.118  1.00  0.00    -0.043 N 
ATOM      6  H12 UNL     1      13.462 -17.423 -44.306  1.00  0.00     0.280 HD
ATOM      7  H11 UNL     1      13.332 -16.376 -43.831  1.00  0.00     0.280 HD
ENDBRANCH   2   3
ENDBRANCH   1   2
BRANCH   1   8
HETATM    8  N2  UNL     1       9.065 -16.391 -41.118  1.00  0.00    -0.183 N 
HETATM    9  N3  UNL     1       9.640 -16.823 -40.013  1.00  0.00    -0.211 N 
HETATM   10  N4  UNL     1       8.761 -16.902 -39.022  1.00  0.00     0.006 NA
ATOM     11  H3  UNL     1      10.627 -17.065 -39.931  1.00  0.00     0.206 HD
HETATM   12  N5  UNL     1       7.608 -16.499 -39.555  1.00  0.00     0.008 NA
HETATM   13  N6  UNL     1       7.793 -16.190 -40.828  1.00  0.00     0.010 NA
ENDBRANCH   1   8
TORSDOF 3
ENDMDL
MODEL 3
REMARK VINA RESULT: -5.765027577      1.920      1.932
REMARK  3 active torsions:
REMARK  status: ('A' for Active; 'I' for Inactive)
REMARK    1  A    between atoms: C2_5  and  O1_6 
REMARK    2  A    between atoms: O1_6  and  C3_7 
REMARK    3  A    between atoms: C3_7  and  N2_8 
ROOT
HETATM    1  C3  UNL     1       8.423 -19.448 -42.141  1.00  0.00     0.338 C 
ENDROOT
BRANCH   1   2
HETATM    2  O1  UNL     1       9.616 -19.520 -42.850  1.00  0.00    -0.335 OA
BRANCH   2   3
HETATM    3  C2  UNL     1       9.355 -19.893 -44.139  1.00  0.00     0.348 A 
HETATM    4  C1  UNL     1       8.825 -19.024 -45.160  1.00  0.00     0.296 A 
HETATM    5  N1  UNL     1      10.248 -19.108 -45.095  1.00  0.00    -0.043 N 
ATOM      6  H12 UNL     1      10.999 -19.332 -45.747  1.00  0.00     0.280 HD
ATOM      7  H11 UNL     1      11.018 -18.446 -45.002  1.00  0.00     0.280 HD
ENDBRANCH   2   3
ENDBRANCH   1   2
BRANCH   1   8
HETATM    8  N2  UNL     1       8.218 -18.097 -41.663  1.00  0.00    -0.183 N 
HETATM    9  N3  UNL     1       8.995 -17.063 -41.918  1.00  0.00    -0.211 N 
HETATM   10  N4  UNL     1       8.531 -15.966 -41.331  1.00  0.00     0.006 NA
ATOM     11  H3  UNL     1       9.839 -17.100 -42.489  1.00  0.00     0.206 HD
HETATM   12  N5  UNL     1       7.427 -16.360 -40.696  1.00  0.00     0.008 NA
HETATM   13  N6  UNL     1       7.238 -17.653 -40.898  1.00  0.00     0.010 NA
ENDBRANCH   1   8
TORSDOF 3
ENDMDL
MODEL 4
REMARK VINA RESULT: -5.744921340      1.871      2.679
REMARK  3 active torsions:
REMARK  status: ('A' for Active; 'I' for Inactive)
REMARK    1  A    between atoms: C2_5  and  O1_6 
REMARK    2  A    between atoms: O1_6  and  C3_7 
REMARK    3  A    between atoms: C3_7  and  N2_8 
ROOT
HETATM    1  C3  UNL     1       9.670 -17.370 -42.411  1.00  0.00     0.338 C 
ENDROOT
BRANCH   1   2
HETATM    2  O1  UNL     1       8.711 -17.814 -43.315  1.00  0.00    -0.335 OA
BRANCH   2   3
HETATM    3  C2  UNL     1       8.507 -19.154 -43.136  1.00  0.00     0.348 A 
HETATM    4  C1  UNL     1       7.269 -19.752 -42.705  1.00  0.00     0.296 A 
HETATM    5  N1  UNL     1       7.450 -19.651 -44.116  1.00  0.00    -0.043 N 
ATOM      6  H12 UNL     1       7.427 -20.295 -44.906  1.00  0.00     0.280 HD
ATOM      7  H11 UNL     1       6.927 -19.252 -44.896  1.00  0.00     0.280 HD
ENDBRANCH   2   3
ENDBRANCH   1   2
BRANCH   1   8
HETATM    8  N2  UNL     1       9.029 -16.957 -41.180  1.00  0.00    -0.183 N 
HETATM    9  N3  UNL     1       9.566 -17.003 -39.977  1.00  0.00    -0.211 N 
HETATM   10  N4  UNL     1       8.717 -16.552 -39.062  1.00  0.00     0.006 NA
ATOM     11  H3  UNL     1      10.507 -17.341 -39.777  1.00  0.00     0.206 HD
HETATM   12  N5  UNL     1       7.622 -16.220 -39.746  1.00  0.00     0.008 NA
HETATM   13  N6  UNL     1       7.812 -16.466 -41.032  1.00  0.00     0.010 NA
ENDBRANCH   1   8
TORSDOF 3
ENDMDL
MODEL 5
REMARK VINA RESULT: -5.728549199      0.790      1.099
REMARK  3 active torsions:
REMARK  status: ('A' for Active; 'I' for Inactive)
REMARK    1  A    between atoms: C2_5  and  O1_6 
REMARK    2  A    between atoms: O1_6  and  C3_7 
REMARK    3  A    between atoms: C3_7  and  N2_8 
ROOT
HETATM    1  C3  UNL     1       9.538 -18.936 -42.842  1.00  0.00     0.338 C 
ENDROOT
BRANCH   1   2
HETATM    2  O1  UNL     1      10.757 -18.271 -42.793  1.00  0.00    -0.335 OA
BRANCH   2   3
HETATM    3  C2  UNL     1      11.065 -17.796 -44.038  1.00  0.00     0.348 A 
HETATM    4  C1  UNL     1      11.113 -16.403 -44.404  1.00  0.00     0.296 A 
HETATM    5  N1  UNL     1      12.348 -16.975 -43.976  1.00  0.00    -0.043 N 
ATOM      6  H12 UNL     1      13.290 -17.056 -44.359  1.00  0.00     0.280 HD
ATOM      7  H11 UNL     1      13.048 -16.761 -43.266  1.00  0.00     0.280 HD
ENDBRANCH   2   3
ENDBRANCH   1   2
BRANCH   1   8
HETATM    8  N2  UNL     1       8.569 -18.243 -42.020  1.00  0.00    -0.183 N 
HETATM    9  N3  UNL     1       8.736 -17.061 -41.460  1.00  0.00    -0.211 N 
HETATM   10  N4  UNL     1       7.659 -16.706 -40.771  1.00  0.00     0.006 NA
ATOM     11  H3  UNL     1       9.581 -16.496 -41.545  1.00  0.00     0.206 HD
HETATM   12  N5  UNL     1       6.807 -17.719 -40.925  1.00  0.00     0.008 NA
HETATM   13  N6  UNL     1       7.359 -18.652 -41.683  1.00  0.00     0.010 NA
ENDBRANCH   1   8
TORSDOF 3
ENDMDL
