MODEL 1
REMARK VINA RESULT: -5.283394253      0.000      0.000
REMARK  3 active torsions:
REMARK  status: ('A' for Active; 'I' for Inactive)
REMARK    1  A    between atoms: O1_2  and  C2_3 
REMARK    2  A    between atoms: C2_3  and  C3_4 
REMARK    3  A    between atoms: C3_4  and  N1_5 
ROOT
HETATM    1  N1  UNL     1      10.594 -17.251 -43.265  1.00  0.00    -0.269 N 
HETATM    2  C4  UNL     1      10.466 -17.391 -44.606  1.00  0.00     0.219 A 
HETATM    3  N2  UNL     1      11.660 -17.189 -45.147  1.00  0.00    -0.279 N 
ATOM      4  H2  UNL     1      11.870 -17.230 -46.145  1.00  0.00     0.189 HD
HETATM    5  N3  UNL     1      12.543 -16.923 -44.183  1.00  0.00    -0.227 N 
ATOM      6  H3  UNL     1      13.538 -16.725 -44.297  1.00  0.00     0.210 HD
HETATM    7  N4  UNL     1      11.871 -16.968 -43.062  1.00  0.00    -0.225 N 
ATOM      8  H4  UNL     1      12.281 -16.806 -42.142  1.00  0.00     0.210 HD
ENDROOT
BRANCH   1   9
HETATM    9  C3  UNL     1       9.510 -17.399 -42.352  1.00  0.00     0.177 C 
BRANCH   9  10
HETATM   10  C2  UNL     1       9.133 -16.102 -41.673  1.00  0.00     0.189 C 
BRANCH  10  11
HETATM   11  O1  UNL     1       7.941 -16.276 -40.990  1.00  0.00    -0.394 OA
HETATM   12  C1  UNL     1       8.056 -17.085 -39.886  1.00  0.00     0.201 C 
ENDBRANCH  10  11
ENDBRANCH   9  10
ENDBRANCH   1   9
TORSDOF 3
ENDMDL
MODEL 2
REMARK VINA RESULT: -5.073997382      2.471      3.197
REMARK  3 active torsions:
REMARK  status: ('A' for Active; 'I' for Inactive)
REMARK    1  A    between atoms: O1_2  and  C2_3 
REMARK    2  A    between atoms: C2_3  and  C3_4 
REMARK    3  A    between atoms: C3_4  and  N1_5 
ROOT
HETATM    1  N1  UNL     1      10.597 -17.444 -44.889  1.00  0.00    -0.269 N 
HETATM    2  C4  UNL     1      10.581 -17.397 -43.536  1.00  0.00     0.219 A 
HETATM    3  N2  UNL     1      11.798 -17.059 -43.132  1.00  0.00    -0.279 N 
ATOM      4  H2  UNL     1      12.086 -16.944 -42.160  1.00  0.00     0.189 HD
HETATM    5  N3  UNL     1      12.587 -16.891 -44.195  1.00  0.00    -0.227 N 
ATOM      6  H3  UNL     1      13.573 -16.631 -44.195  1.00  0.00     0.210 HD
HETATM    7  N4  UNL     1      11.834 -17.130 -45.238  1.00  0.00    -0.225 N 
ATOM      8  H4  UNL     1      12.160 -17.080 -46.203  1.00  0.00     0.210 HD
ENDROOT
BRANCH   1   9
HETATM    9  C3  UNL     1       9.456 -17.777 -45.678  1.00  0.00     0.177 C 
BRANCH   9  10
HETATM   10  C2  UNL     1       8.880 -19.132 -45.335  1.00  0.00     0.189 C 
BRANCH  10  11
HETATM   11  O1  UNL     1       7.578 -18.973 -44.894  1.00  0.00    -0.394 OA
HETATM   12  C1  UNL     1       7.281 -19.726 -43.784  1.00  0.00     0.201 C 
ENDBRANCH  10  11
ENDBRANCH   9  10
ENDBRANCH   1   9
TORSDOF 3
ENDMDL
MODEL 3
REMARK VINA RESULT: -5.062180682      1.684      2.178
REMARK  3 active torsions:
REMARK  status: ('A' for Active; 'I' for Inactive)
REMARK    1  A    between atoms: O1_2  and  C2_3 
REMARK    2  A    between atoms: C2_3  and  C3_4 
REMARK    3  A    between atoms: C3_4  and  N1_5 
ROOT
HETATM    1  N1  UNL     1      10.617 -16.896 -43.470  1.00  0.00    -0.269 N 
HETATM    2  C4  UNL     1      10.527 -16.904 -44.821  1.00  0.00     0.219 A 
HETATM    3  N2  UNL     1      11.761 -16.968 -45.305  1.00  0.00    -0.279 N 
ATOM      4  H2  UNL     1      12.006 -16.989 -46.295  1.00  0.00     0.189 HD
HETATM    5  N3  UNL     1      12.632 -17.000 -44.294  1.00  0.00    -0.227 N 
ATOM      6  H3  UNL     1      13.649 -17.050 -44.359  1.00  0.00     0.210 HD
HETATM    7  N4  UNL     1      11.911 -16.956 -43.203  1.00  0.00    -0.225 N 
ATOM      8  H4  UNL     1      12.300 -16.967 -42.260  1.00  0.00     0.210 HD
ENDROOT
BRANCH   1   9
HETATM    9  C3  UNL     1       9.484 -16.833 -42.607  1.00  0.00     0.177 C 
BRANCH   9  10
HETATM   10  C2  UNL     1       8.849 -18.185 -42.372  1.00  0.00     0.189 C 
BRANCH  10  11
HETATM   11  O1  UNL     1       9.799 -19.172 -42.564  1.00  0.00    -0.394 OA
HETATM   12  C1  UNL     1       9.292 -20.315 -43.134  1.00  0.00     0.201 C 
ENDBRANCH  10  11
ENDBRANCH   9  10
ENDBRANCH   1   9
TORSDOF 3
ENDMDL
MODEL 4
REMARK VINA RESULT: -5.052288890      1.689      2.227
REMARK  3 active torsions:
REMARK  status: ('A' for Active; 'I' for Inactive)
REMARK    1  A    between atoms: O1_2  and  C2_3 
REMARK    2  A    between atoms: C2_3  and  C3_4 
REMARK    3  A    between atoms: C3_4  and  N1_5 
ROOT
HETATM    1  N1  UNL     1      10.555 -17.232 -43.398  1.00  0.00    -0.269 N 
HETATM    2  C4  UNL     1      10.497 -17.259 -44.750  1.00  0.00     0.219 A 
HETATM    3  N2  UNL     1      11.726 -17.064 -45.209  1.00  0.00    -0.279 N 
ATOM      4  H2  UNL     1      11.991 -17.034 -46.194  1.00  0.00     0.189 HD
HETATM    5  N3  UNL     1      12.564 -16.913 -44.181  1.00  0.00    -0.227 N 
ATOM      6  H3  UNL     1      13.570 -16.748 -44.225  1.00  0.00     0.210 HD
HETATM    7  N4  UNL     1      11.828 -17.020 -43.105  1.00  0.00    -0.225 N 
ATOM      8  H4  UNL     1      12.191 -16.949 -42.154  1.00  0.00     0.210 HD
ENDROOT
BRANCH   1   9
HETATM    9  C3  UNL     1       9.416 -17.407 -42.558  1.00  0.00     0.177 C 
BRANCH   9  10
HETATM   10  C2  UNL     1       8.924 -18.836 -42.527  1.00  0.00     0.189 C 
BRANCH  10  11
HETATM   11  O1  UNL     1       7.637 -18.884 -43.031  1.00  0.00    -0.394 OA
HETATM   12  C1  UNL     1       7.543 -19.548 -44.230  1.00  0.00     0.201 C 
ENDBRANCH  10  11
ENDBRANCH   9  10
ENDBRANCH   1   9
TORSDOF 3
ENDMDL
MODEL 5
REMARK VINA RESULT: -4.993390865      2.559      2.796
REMARK  3 active torsions:
REMARK  status: ('A' for Active; 'I' for Inactive)
REMARK    1  A    between atoms: O1_2  and  C2_3 
REMARK    2  A    between atoms: C2_3  and  C3_4 
REMARK    3  A    between atoms: C3_4  and  N1_5 
ROOT
HETATM    1  N1  UNL     1      10.607 -17.682 -44.308  1.00  0.00    -0.269 N 
HETATM    2  C4  UNL     1      10.946 -17.275 -45.554  1.00  0.00     0.219 A 
HETATM    3  N2  UNL     1      12.201 -16.849 -45.509  1.00  0.00    -0.279 N 
ATOM      4  H2  UNL     1      12.728 -16.482 -46.301  1.00  0.00     0.189 HD
HETATM    5  N3  UNL     1      12.667 -16.974 -44.264  1.00  0.00    -0.227 N 
ATOM      6  H3  UNL     1      13.598 -16.728 -43.928  1.00  0.00     0.210 HD
HETATM    7  N4  UNL     1      11.683 -17.480 -43.566  1.00  0.00    -0.225 N 
ATOM      8  H4  UNL     1      11.739 -17.693 -42.569  1.00  0.00     0.210 HD
ENDROOT
BRANCH   1   9
HETATM    9  C3  UNL     1       9.323 -18.206 -43.974  1.00  0.00     0.177 C 
BRANCH   9  10
HETATM   10  C2  UNL     1       8.563 -18.710 -45.180  1.00  0.00     0.189 C 
BRANCH  10  11
HETATM   11  O1  UNL     1       7.288 -19.081 -44.791  1.00  0.00    -0.394 OA
HETATM   12  C1  UNL     1       7.253 -19.735 -43.583  1.00  0.00     0.201 C 
ENDBRANCH  10  11
ENDBRANCH   9  10
ENDBRANCH   1   9
TORSDOF 3
ENDMDL
