MODEL 1
REMARK VINA RESULT: -7.727199137      0.000      0.000
REMARK  6 active torsions:
REMARK  status: ('A' for Active; 'I' for Inactive)
REMARK    1  A    between atoms: O1_1  and  N1_3 
REMARK    2  A    between atoms: C3_6  and  O2_7 
REMARK    3  A    between atoms: N2_9  and  O3_10 
REMARK    4  A    between atoms: N3_12  and  C4_13 
REMARK    5  A    between atoms: C4_13  and  C5_14 
REMARK    6  A    between atoms: C12_23  and  N5_24 
ROOT
HETATM    1  N1  UNL     1      -4.912   4.436  10.893  1.00  0.00    -0.049 N 
HETATM    2  C1  UNL     1      -4.737   3.172  11.294  1.00  0.00     0.131 A 
HETATM    3  C2  UNL     1      -4.784   1.927  10.746  1.00  0.00     0.096 A 
HETATM    4  C3  UNL     1      -4.571   0.782  11.436  1.00  0.00     0.188 A 
HETATM    5  N2  UNL     1      -4.294   0.898  12.768  1.00  0.00    -0.135 N 
HETATM    6  N3  UNL     1      -4.223   2.052  13.402  1.00  0.00    -0.241 N 
HETATM    7  C11 UNL     1      -4.431   3.220  12.739  1.00  0.00     0.170 A 
HETATM    8  N4  UNL     1      -4.457   4.521  13.046  1.00  0.00    -0.171 N 
ATOM      9  H4  UNL     1      -4.285   4.909  13.973  1.00  0.00     0.186 HD
HETATM   10  C12 UNL     1      -4.743   5.242  11.945  1.00  0.00     0.709 A 
ENDROOT
BRANCH   6  11
HETATM   11  C4  UNL     1      -3.916   2.127  14.791  1.00  0.00     0.192 C 
BRANCH  11  12
HETATM   12  C5  UNL     1      -4.981   1.894  15.748  1.00  0.00    -0.038 A 
HETATM   13  C6  UNL     1      -4.937   0.768  16.529  1.00  0.00     0.009 A 
HETATM   14  C7  UNL     1      -5.910   0.502  17.454  1.00  0.00     0.001 A 
HETATM   15  C8  UNL     1      -6.949   1.399  17.589  1.00  0.00     0.000 A 
HETATM   16  C9  UNL     1      -7.059   2.550  16.839  1.00  0.00     0.001 A 
HETATM   17  C10 UNL     1      -6.023   2.763  15.905  1.00  0.00     0.009 A 
ENDBRANCH  11  12
ENDBRANCH   6  11
BRANCH   5  18
HETATM   18  O3  UNL     1      -4.088  -0.241  13.495  1.00  0.00    -0.266 OA
ATOM     19  H3  UNL     1      -4.155  -0.194  14.441  1.00  0.00     0.247 HD
ENDBRANCH   5  18
BRANCH   4  20
HETATM   20  O2  UNL     1      -4.616  -0.498  10.893  1.00  0.00    -0.343 OA
ATOM     21  H2  UNL     1      -4.186  -0.765  10.089  1.00  0.00     0.219 HD
ENDBRANCH   4  20
BRANCH   1  22
HETATM   22  O1  UNL     1      -5.212   4.797   9.583  1.00  0.00    -0.269 OA
ATOM     23  H1  UNL     1      -4.983   4.273   8.825  1.00  0.00     0.245 HD
ENDBRANCH   1  22
BRANCH  10  24
HETATM   24  N5  UNL     1      -4.873   6.656  11.907  1.00  0.00    -0.212 N 
HETATM   25  C13 UNL     1      -6.134   7.363  11.923  1.00  0.00     0.160 C 
HETATM   26  C14 UNL     1      -6.301   7.978  10.552  1.00  0.00     0.134 C 
HETATM   27  N6  UNL     1      -5.056   8.384   9.979  1.00  0.00    -0.418 N 
HETATM   28  C15 UNL     1      -4.010   8.669  10.931  1.00  0.00     0.134 C 
ATOM     29  H6  UNL     1      -4.918   8.466   8.971  1.00  0.00     0.153 HD
HETATM   30  C16 UNL     1      -3.680   7.490  11.829  1.00  0.00     0.160 C 
ENDBRANCH  10  24
TORSDOF 6
ENDMDL
MODEL 2
REMARK VINA RESULT: -7.634545994      0.304      1.003
REMARK  6 active torsions:
REMARK  status: ('A' for Active; 'I' for Inactive)
REMARK    1  A    between atoms: O1_1  and  N1_3 
REMARK    2  A    between atoms: C3_6  and  O2_7 
REMARK    3  A    between atoms: N2_9  and  O3_10 
REMARK    4  A    between atoms: N3_12  and  C4_13 
REMARK    5  A    between atoms: C4_13  and  C5_14 
REMARK    6  A    between atoms: C12_23  and  N5_24 
ROOT
HETATM    1  N1  UNL     1      -5.053   4.566  10.896  1.00  0.00    -0.049 N 
HETATM    2  C1  UNL     1      -4.810   3.326  11.335  1.00  0.00     0.131 A 
HETATM    3  C2  UNL     1      -4.777   2.066  10.821  1.00  0.00     0.096 A 
HETATM    4  C3  UNL     1      -4.506   0.955  11.545  1.00  0.00     0.188 A 
HETATM    5  N2  UNL     1      -4.253   1.123  12.877  1.00  0.00    -0.135 N 
HETATM    6  N3  UNL     1      -4.258   2.296  13.479  1.00  0.00    -0.241 N 
HETATM    7  C11 UNL     1      -4.526   3.432  12.780  1.00  0.00     0.170 A 
HETATM    8  N4  UNL     1      -4.631   4.737  13.050  1.00  0.00    -0.171 N 
ATOM      9  H4  UNL     1      -4.495   5.160  13.968  1.00  0.00     0.186 HD
HETATM   10  C12 UNL     1      -4.946   5.409  11.926  1.00  0.00     0.709 A 
ENDROOT
BRANCH   6  11
HETATM   11  C4  UNL     1      -3.974   2.427  14.868  1.00  0.00     0.192 C 
BRANCH  11  12
HETATM   12  C5  UNL     1      -4.984   2.012  15.822  1.00  0.00    -0.038 A 
HETATM   13  C6  UNL     1      -6.102   2.788  15.987  1.00  0.00     0.009 A 
HETATM   14  C7  UNL     1      -7.091   2.440  16.866  1.00  0.00     0.001 A 
HETATM   15  C8  UNL     1      -6.942   1.279  17.594  1.00  0.00     0.000 A 
HETATM   16  C9  UNL     1      -5.846   0.450  17.482  1.00  0.00     0.001 A 
HETATM   17  C10 UNL     1      -4.865   0.867  16.559  1.00  0.00     0.009 A 
ENDBRANCH  11  12
ENDBRANCH   6  11
BRANCH   5  18
HETATM   18  O3  UNL     1      -3.991   0.019  13.637  1.00  0.00    -0.266 OA
ATOM     19  H3  UNL     1      -3.817   0.136  14.563  1.00  0.00     0.247 HD
ENDBRANCH   5  18
BRANCH   4  20
HETATM   20  O2  UNL     1      -4.469  -0.340  11.038  1.00  0.00    -0.343 OA
ATOM     21  H2  UNL     1      -5.161  -0.984  11.134  1.00  0.00     0.219 HD
ENDBRANCH   4  20
BRANCH   1  22
HETATM   22  O1  UNL     1      -5.357   4.873   9.573  1.00  0.00    -0.269 OA
ATOM     23  H1  UNL     1      -6.115   4.534   9.113  1.00  0.00     0.245 HD
ENDBRANCH   1  22
BRANCH  10  24
HETATM   24  N5  UNL     1      -5.157   6.812  11.848  1.00  0.00    -0.212 N 
HETATM   25  C13 UNL     1      -6.443   7.455  11.995  1.00  0.00     0.160 C 
HETATM   26  C14 UNL     1      -6.814   7.995  10.632  1.00  0.00     0.134 C 
HETATM   27  N6  UNL     1      -5.675   8.435   9.889  1.00  0.00    -0.418 N 
HETATM   28  C15 UNL     1      -4.536   8.816  10.688  1.00  0.00     0.134 C 
ATOM     29  H6  UNL     1      -5.668   8.475   8.870  1.00  0.00     0.153 HD
HETATM   30  C16 UNL     1      -4.031   7.700  11.585  1.00  0.00     0.160 C 
ENDBRANCH  10  24
TORSDOF 6
ENDMDL
MODEL 3
REMARK VINA RESULT: -7.249175982      2.269      4.220
REMARK  6 active torsions:
REMARK  status: ('A' for Active; 'I' for Inactive)
REMARK    1  A    between atoms: O1_1  and  N1_3 
REMARK    2  A    between atoms: C3_6  and  O2_7 
REMARK    3  A    between atoms: N2_9  and  O3_10 
REMARK    4  A    between atoms: N3_12  and  C4_13 
REMARK    5  A    between atoms: C4_13  and  C5_14 
REMARK    6  A    between atoms: C12_23  and  N5_24 
ROOT
HETATM    1  N1  UNL     1      -6.416   6.010  12.602  1.00  0.00    -0.049 N 
HETATM    2  C1  UNL     1      -6.028   4.970  13.350  1.00  0.00     0.131 A 
HETATM    3  C2  UNL     1      -6.412   4.364  14.506  1.00  0.00     0.096 A 
HETATM    4  C3  UNL     1      -5.787   3.293  15.048  1.00  0.00     0.188 A 
HETATM    5  N2  UNL     1      -4.700   2.801  14.384  1.00  0.00    -0.135 N 
HETATM    6  N3  UNL     1      -4.241   3.309  13.257  1.00  0.00    -0.241 N 
HETATM    7  C11 UNL     1      -4.846   4.384  12.685  1.00  0.00     0.170 A 
HETATM    8  N4  UNL     1      -4.655   5.145  11.603  1.00  0.00    -0.171 N 
ATOM      9  H4  UNL     1      -3.913   5.014  10.915  1.00  0.00     0.186 HD
HETATM   10  C12 UNL     1      -5.591   6.113  11.557  1.00  0.00     0.709 A 
ENDROOT
BRANCH   6  11
HETATM   11  C4  UNL     1      -3.112   2.754  12.589  1.00  0.00     0.192 C 
BRANCH  11  12
HETATM   12  C5  UNL     1      -3.299   1.555  11.796  1.00  0.00    -0.038 A 
HETATM   13  C6  UNL     1      -2.201   0.813  11.445  1.00  0.00     0.009 A 
HETATM   14  C7  UNL     1      -2.318  -0.333  10.705  1.00  0.00     0.001 A 
HETATM   15  C8  UNL     1      -3.578  -0.733  10.313  1.00  0.00     0.000 A 
HETATM   16  C9  UNL     1      -4.726  -0.038  10.627  1.00  0.00     0.001 A 
HETATM   17  C10 UNL     1      -4.534   1.132  11.391  1.00  0.00     0.009 A 
ENDBRANCH  11  12
ENDBRANCH   6  11
BRANCH   5  18
HETATM   18  O3  UNL     1      -4.039   1.730  14.914  1.00  0.00    -0.266 OA
ATOM     19  H3  UNL     1      -3.091   1.761  14.966  1.00  0.00     0.247 HD
ENDBRANCH   5  18
BRANCH   4  20
HETATM   20  O2  UNL     1      -6.165   2.661  16.229  1.00  0.00    -0.343 OA
ATOM     21  H2  UNL     1      -5.792   2.836  17.085  1.00  0.00     0.219 HD
ENDBRANCH   4  20
BRANCH   1  22
HETATM   22  O1  UNL     1      -7.509   6.816  12.907  1.00  0.00    -0.269 OA
ATOM     23  H1  UNL     1      -7.451   7.613  13.420  1.00  0.00     0.245 HD
ENDBRANCH   1  22
BRANCH  10  24
HETATM   24  N5  UNL     1      -5.678   7.115  10.554  1.00  0.00    -0.212 N 
HETATM   25  C13 UNL     1      -5.257   8.487  10.729  1.00  0.00     0.160 C 
HETATM   26  C14 UNL     1      -6.514   9.327  10.738  1.00  0.00     0.134 C 
HETATM   27  N6  UNL     1      -7.526   8.806   9.873  1.00  0.00    -0.418 N 
HETATM   28  C15 UNL     1      -7.040   7.992   8.786  1.00  0.00     0.134 C 
ATOM     29  H6  UNL     1      -8.519   8.996  10.015  1.00  0.00     0.153 HD
HETATM   30  C16 UNL     1      -6.241   6.787   9.250  1.00  0.00     0.160 C 
ENDBRANCH  10  24
TORSDOF 6
ENDMDL
MODEL 4
REMARK VINA RESULT: -7.200458144      3.296      6.427
REMARK  6 active torsions:
REMARK  status: ('A' for Active; 'I' for Inactive)
REMARK    1  A    between atoms: O1_1  and  N1_3 
REMARK    2  A    between atoms: C3_6  and  O2_7 
REMARK    3  A    between atoms: N2_9  and  O3_10 
REMARK    4  A    between atoms: N3_12  and  C4_13 
REMARK    5  A    between atoms: C4_13  and  C5_14 
REMARK    6  A    between atoms: C12_23  and  N5_24 
ROOT
HETATM    1  N1  UNL     1      -1.938   2.259  11.473  1.00  0.00    -0.049 N 
HETATM    2  C1  UNL     1      -1.477   3.450  11.872  1.00  0.00     0.131 A 
HETATM    3  C2  UNL     1      -0.347   4.194  11.717  1.00  0.00     0.096 A 
HETATM    4  C3  UNL     1      -0.152   5.408  12.282  1.00  0.00     0.188 A 
HETATM    5  N2  UNL     1      -1.161   5.907  13.057  1.00  0.00    -0.135 N 
HETATM    6  N3  UNL     1      -2.296   5.273  13.274  1.00  0.00    -0.241 N 
HETATM    7  C11 UNL     1      -2.525   4.052  12.721  1.00  0.00     0.170 A 
HETATM    8  N4  UNL     1      -3.508   3.146  12.737  1.00  0.00    -0.171 N 
ATOM      9  H4  UNL     1      -4.391   3.246  13.237  1.00  0.00     0.186 HD
HETATM   10  C12 UNL     1      -3.155   2.080  11.993  1.00  0.00     0.709 A 
ENDROOT
BRANCH   6  11
HETATM   11  C4  UNL     1      -3.328   5.837  14.078  1.00  0.00     0.192 C 
BRANCH  11  12
HETATM   12  C5  UNL     1      -4.572   6.219  13.438  1.00  0.00    -0.038 A 
HETATM   13  C6  UNL     1      -4.532   7.056  12.353  1.00  0.00     0.009 A 
HETATM   14  C7  UNL     1      -5.673   7.441  11.705  1.00  0.00     0.001 A 
HETATM   15  C8  UNL     1      -6.882   6.968  12.168  1.00  0.00     0.000 A 
HETATM   16  C9  UNL     1      -7.001   6.125  13.252  1.00  0.00     0.001 A 
HETATM   17  C10 UNL     1      -5.786   5.767  13.874  1.00  0.00     0.009 A 
ENDBRANCH  11  12
ENDBRANCH   6  11
BRANCH   5  18
HETATM   18  O3  UNL     1      -0.988   7.124  13.653  1.00  0.00    -0.266 OA
ATOM     19  H3  UNL     1      -0.391   7.745  13.252  1.00  0.00     0.247 HD
ENDBRANCH   5  18
BRANCH   4  20
HETATM   20  O2  UNL     1       0.994   6.182  12.136  1.00  0.00    -0.343 OA
ATOM     21  H2  UNL     1       1.612   6.379  12.830  1.00  0.00     0.219 HD
ENDBRANCH   4  20
BRANCH   1  22
HETATM   22  O1  UNL     1      -1.229   1.392  10.646  1.00  0.00    -0.269 OA
ATOM     23  H1  UNL     1      -1.361   1.332   9.708  1.00  0.00     0.245 HD
ENDBRANCH   1  22
BRANCH  10  24
HETATM   24  N5  UNL     1      -3.951   0.918  11.805  1.00  0.00    -0.212 N 
HETATM   25  C13 UNL     1      -3.923  -0.242  12.667  1.00  0.00     0.160 C 
HETATM   26  C14 UNL     1      -3.289  -1.358  11.868  1.00  0.00     0.134 C 
HETATM   27  N6  UNL     1      -3.610  -1.286  10.477  1.00  0.00    -0.418 N 
HETATM   28  C15 UNL     1      -4.839  -0.594  10.170  1.00  0.00     0.134 C 
ATOM     29  H6  UNL     1      -3.015  -1.693   9.756  1.00  0.00     0.153 HD
HETATM   30  C16 UNL     1      -4.860   0.840  10.668  1.00  0.00     0.160 C 
ENDBRANCH  10  24
TORSDOF 6
ENDMDL
MODEL 5
REMARK VINA RESULT: -7.149923508      2.298      4.183
REMARK  6 active torsions:
REMARK  status: ('A' for Active; 'I' for Inactive)
REMARK    1  A    between atoms: O1_1  and  N1_3 
REMARK    2  A    between atoms: C3_6  and  O2_7 
REMARK    3  A    between atoms: N2_9  and  O3_10 
REMARK    4  A    between atoms: N3_12  and  C4_13 
REMARK    5  A    between atoms: C4_13  and  C5_14 
REMARK    6  A    between atoms: C12_23  and  N5_24 
ROOT
HETATM    1  N1  UNL     1      -6.611   6.059  12.561  1.00  0.00    -0.049 N 
HETATM    2  C1  UNL     1      -6.151   5.032  13.285  1.00  0.00     0.131 A 
HETATM    3  C2  UNL     1      -6.457   4.412  14.457  1.00  0.00     0.096 A 
HETATM    4  C3  UNL     1      -5.770   3.363  14.966  1.00  0.00     0.188 A 
HETATM    5  N2  UNL     1      -4.700   2.909  14.248  1.00  0.00    -0.135 N 
HETATM    6  N3  UNL     1      -4.314   3.434  13.101  1.00  0.00    -0.241 N 
HETATM    7  C11 UNL     1      -4.983   4.488  12.562  1.00  0.00     0.170 A 
HETATM    8  N4  UNL     1      -4.872   5.257  11.474  1.00  0.00    -0.171 N 
ATOM      9  H4  UNL     1      -4.160   5.152  10.752  1.00  0.00     0.186 HD
HETATM   10  C12 UNL     1      -5.842   6.191  11.477  1.00  0.00     0.709 A 
ENDROOT
BRANCH   6  11
HETATM   11  C4  UNL     1      -3.200   2.920  12.378  1.00  0.00     0.192 C 
BRANCH  11  12
HETATM   12  C5  UNL     1      -3.350   1.654  11.686  1.00  0.00    -0.038 A 
HETATM   13  C6  UNL     1      -2.231   0.908  11.418  1.00  0.00     0.009 A 
HETATM   14  C7  UNL     1      -2.314  -0.298  10.776  1.00  0.00     0.001 A 
HETATM   15  C8  UNL     1      -3.558  -0.756  10.399  1.00  0.00     0.000 A 
HETATM   16  C9  UNL     1      -4.725  -0.061  10.635  1.00  0.00     0.001 A 
HETATM   17  C10 UNL     1      -4.569   1.174  11.300  1.00  0.00     0.009 A 
ENDBRANCH  11  12
ENDBRANCH   6  11
BRANCH   5  18
HETATM   18  O3  UNL     1      -3.976   1.861  14.743  1.00  0.00    -0.266 OA
ATOM     19  H3  UNL     1      -4.303   0.980  14.607  1.00  0.00     0.247 HD
ENDBRANCH   5  18
BRANCH   4  20
HETATM   20  O2  UNL     1      -6.067   2.716  16.161  1.00  0.00    -0.343 OA
ATOM     21  H2  UNL     1      -5.987   1.781  16.311  1.00  0.00     0.219 HD
ENDBRANCH   4  20
BRANCH   1  22
HETATM   22  O1  UNL     1      -7.716   6.825  12.920  1.00  0.00    -0.269 OA
ATOM     23  H1  UNL     1      -8.012   7.585  12.433  1.00  0.00     0.245 HD
ENDBRANCH   1  22
BRANCH  10  24
HETATM   24  N5  UNL     1      -6.013   7.191  10.482  1.00  0.00    -0.212 N 
HETATM   25  C13 UNL     1      -6.975   7.119   9.406  1.00  0.00     0.160 C 
HETATM   26  C14 UNL     1      -6.183   6.931   8.132  1.00  0.00     0.134 C 
HETATM   27  N6  UNL     1      -4.926   7.610   8.163  1.00  0.00    -0.418 N 
HETATM   28  C15 UNL     1      -4.866   8.741   9.058  1.00  0.00     0.134 C 
ATOM     29  H6  UNL     1      -4.131   7.317   7.595  1.00  0.00     0.153 HD
HETATM   30  C16 UNL     1      -5.170   8.380  10.500  1.00  0.00     0.160 C 
ENDBRANCH  10  24
TORSDOF 6
ENDMDL
