MODEL 1
REMARK VINA RESULT: -7.909411128      0.000      0.000
REMARK  4 active torsions:
REMARK  status: ('A' for Active; 'I' for Inactive)
REMARK    1  A    between atoms: C1_2  and  C2_3 
REMARK    2  A    between atoms: C4_6  and  N1_7 
REMARK       I    between atoms: N1_7  and  C5_9 
REMARK    3  A    between atoms: C5_9  and  C6_11 
REMARK    4  A    between atoms: C6_11  and  N2_12 
ROOT
HETATM    1  N2  UNL     1      -4.313   2.173  13.462  1.00  0.00    -0.244 N 
HETATM    2  N3  UNL     1      -4.957   3.303  13.673  1.00  0.00    -0.260 N 
ATOM      3  H3  UNL     1      -4.921   4.052  12.980  1.00  0.00     0.190 HD
HETATM    4  C7  UNL     1      -5.658   3.462  14.806  1.00  0.00     0.272 A 
HETATM    5  O3  UNL     1      -6.284   4.534  15.032  1.00  0.00    -0.266 OA
HETATM    6  C8  UNL     1      -5.747   2.491  15.780  1.00  0.00     0.066 A 
HETATM    7  C9  UNL     1      -6.479   2.665  16.943  1.00  0.00     0.021 A 
HETATM    8  C10 UNL     1      -6.533   1.647  17.886  1.00  0.00     0.018 A 
HETATM    9  C11 UNL     1      -5.846   0.479  17.626  1.00  0.00     0.088 A 
HETATM   10  N4  UNL     1      -5.148   0.344  16.487  1.00  0.00    -0.361 N 
ATOM     11  H4  UNL     1      -4.651  -0.532  16.323  1.00  0.00     0.165 HD
HETATM   12  C12 UNL     1      -5.072   1.313  15.549  1.00  0.00     0.118 A 
HETATM   13  C13 UNL     1      -4.359   1.178  14.378  1.00  0.00     0.290 A 
HETATM   14  O4  UNL     1      -3.749   0.082  14.198  1.00  0.00    -0.264 OA
ENDROOT
BRANCH   1  15
HETATM   15  C6  UNL     1      -3.563   1.988  12.231  1.00  0.00     0.255 C 
BRANCH  15  16
HETATM   16  C5  UNL     1      -4.238   2.639  11.105  1.00  0.00     0.243 C 
HETATM   17  N1  UNL     1      -3.729   3.642  10.273  1.00  0.00    -0.306 N 
ATOM     18  H1  UNL     1      -2.892   3.467   9.718  1.00  0.00     0.171 HD
HETATM   19  O2  UNL     1      -5.433   2.244  10.858  1.00  0.00    -0.271 OA
BRANCH  17  20
HETATM   20  C4  UNL     1      -4.329   4.812  10.203  1.00  0.00     0.151 A 
HETATM   21  S1  UNL     1      -4.037   6.202  11.142  1.00  0.00    -0.063 SA
HETATM   22  C3  UNL     1      -5.198   7.232  10.431  1.00  0.00     0.086 A 
HETATM   23  C2  UNL     1      -5.764   6.422   9.481  1.00  0.00     0.078 A 
HETATM   24  N5  UNL     1      -5.303   5.195   9.387  1.00  0.00    -0.334 N 
ATOM     25  H5  UNL     1      -5.688   4.548   8.698  1.00  0.00     0.168 HD
BRANCH  23  26
HETATM   26  C1  UNL     1      -6.853   6.917   8.607  1.00  0.00     0.288 C 
HETATM   27  O1  UNL     1      -7.671   6.054   8.126  1.00  0.00    -0.300 OA
ENDBRANCH  23  26
ENDBRANCH  17  20
ENDBRANCH  15  16
ENDBRANCH   1  15
TORSDOF 4
ENDMDL
MODEL 2
REMARK VINA RESULT: -7.756952014      3.158      4.768
REMARK  4 active torsions:
REMARK  status: ('A' for Active; 'I' for Inactive)
REMARK    1  A    between atoms: C1_2  and  C2_3 
REMARK    2  A    between atoms: C4_6  and  N1_7 
REMARK       I    between atoms: N1_7  and  C5_9 
REMARK    3  A    between atoms: C5_9  and  C6_11 
REMARK    4  A    between atoms: C6_11  and  N2_12 
ROOT
HETATM    1  N2  UNL     1      -4.424   1.307  12.693  1.00  0.00    -0.244 N 
HETATM    2  N3  UNL     1      -4.042   1.246  13.952  1.00  0.00    -0.260 N 
ATOM      3  H3  UNL     1      -3.512   0.442  14.291  1.00  0.00     0.190 HD
HETATM    4  C7  UNL     1      -4.355   2.250  14.786  1.00  0.00     0.272 A 
HETATM    5  O3  UNL     1      -4.001   2.217  15.997  1.00  0.00    -0.266 OA
HETATM    6  C8  UNL     1      -5.067   3.363  14.393  1.00  0.00     0.066 A 
HETATM    7  C9  UNL     1      -5.380   4.394  15.262  1.00  0.00     0.021 A 
HETATM    8  C10 UNL     1      -6.097   5.492  14.805  1.00  0.00     0.018 A 
HETATM    9  C11 UNL     1      -6.477   5.517  13.479  1.00  0.00     0.088 A 
HETATM   10  N4  UNL     1      -6.155   4.500  12.664  1.00  0.00    -0.361 N 
ATOM     11  H4  UNL     1      -6.449   4.548  11.688  1.00  0.00     0.165 HD
HETATM   12  C12 UNL     1      -5.460   3.417  13.074  1.00  0.00     0.118 A 
HETATM   13  C13 UNL     1      -5.125   2.373  12.241  1.00  0.00     0.290 A 
HETATM   14  O4  UNL     1      -5.503   2.453  11.035  1.00  0.00    -0.264 OA
ENDROOT
BRANCH   1  15
HETATM   15  C6  UNL     1      -4.075   0.231  11.781  1.00  0.00     0.255 C 
BRANCH  15  16
HETATM   16  C5  UNL     1      -2.798   0.501  11.116  1.00  0.00     0.243 C 
HETATM   17  N1  UNL     1      -1.703   1.203  11.630  1.00  0.00    -0.306 N 
ATOM     18  H1  UNL     1      -1.236   0.870  12.474  1.00  0.00     0.171 HD
HETATM   19  O2  UNL     1      -2.674   0.042   9.924  1.00  0.00    -0.271 OA
BRANCH  17  20
HETATM   20  C4  UNL     1      -1.272   2.292  11.029  1.00  0.00     0.151 A 
HETATM   21  S1  UNL     1      -2.112   3.748  10.759  1.00  0.00    -0.063 SA
HETATM   22  C3  UNL     1      -0.875   4.603   9.951  1.00  0.00     0.086 A 
HETATM   23  C2  UNL     1       0.148   3.691   9.932  1.00  0.00     0.078 A 
HETATM   24  N5  UNL     1      -0.081   2.522  10.487  1.00  0.00    -0.334 N 
ATOM     25  H5  UNL     1       0.643   1.803  10.502  1.00  0.00     0.168 HD
BRANCH  23  26
HETATM   26  C1  UNL     1       1.450   4.016   9.305  1.00  0.00     0.288 C 
HETATM   27  O1  UNL     1       2.404   3.170   9.439  1.00  0.00    -0.300 OA
ENDBRANCH  23  26
ENDBRANCH  17  20
ENDBRANCH  15  16
ENDBRANCH   1  15
TORSDOF 4
ENDMDL
MODEL 3
REMARK VINA RESULT: -7.656547436      1.293      1.459
REMARK  4 active torsions:
REMARK  status: ('A' for Active; 'I' for Inactive)
REMARK    1  A    between atoms: C1_2  and  C2_3 
REMARK    2  A    between atoms: C4_6  and  N1_7 
REMARK       I    between atoms: N1_7  and  C5_9 
REMARK    3  A    between atoms: C5_9  and  C6_11 
REMARK    4  A    between atoms: C6_11  and  N2_12 
ROOT
HETATM    1  N2  UNL     1      -4.361   2.483  13.470  1.00  0.00    -0.244 N 
HETATM    2  N3  UNL     1      -5.015   3.582  13.789  1.00  0.00    -0.260 N 
ATOM      3  H3  UNL     1      -4.996   4.391  13.167  1.00  0.00     0.190 HD
HETATM    4  C7  UNL     1      -5.706   3.629  14.939  1.00  0.00     0.272 A 
HETATM    5  O3  UNL     1      -6.341   4.669  15.268  1.00  0.00    -0.266 OA
HETATM    6  C8  UNL     1      -5.773   2.573  15.822  1.00  0.00     0.066 A 
HETATM    7  C9  UNL     1      -6.493   2.632  17.003  1.00  0.00     0.021 A 
HETATM    8  C10 UNL     1      -6.525   1.533  17.851  1.00  0.00     0.018 A 
HETATM    9  C11 UNL     1      -5.828   0.402  17.479  1.00  0.00     0.088 A 
HETATM   10  N4  UNL     1      -5.141   0.379  16.326  1.00  0.00    -0.361 N 
ATOM     11  H4  UNL     1      -4.637  -0.472  16.078  1.00  0.00     0.165 HD
HETATM   12  C12 UNL     1      -5.087   1.429  15.478  1.00  0.00     0.118 A 
HETATM   13  C13 UNL     1      -4.386   1.409  14.293  1.00  0.00     0.290 A 
HETATM   14  O4  UNL     1      -3.766   0.342  14.008  1.00  0.00    -0.264 OA
ENDROOT
BRANCH   1  15
HETATM   15  C6  UNL     1      -3.623   2.420  12.220  1.00  0.00     0.255 C 
BRANCH  15  16
HETATM   16  C5  UNL     1      -4.403   2.998  11.122  1.00  0.00     0.243 C 
HETATM   17  N1  UNL     1      -4.026   4.035  10.264  1.00  0.00    -0.306 N 
ATOM     18  H1  UNL     1      -3.201   3.932   9.672  1.00  0.00     0.171 HD
HETATM   19  O2  UNL     1      -5.567   2.493  10.931  1.00  0.00    -0.271 OA
BRANCH  17  20
HETATM   20  C4  UNL     1      -4.731   5.146  10.215  1.00  0.00     0.151 A 
HETATM   21  S1  UNL     1      -4.890   6.237   8.919  1.00  0.00    -0.063 SA
HETATM   22  C3  UNL     1      -5.943   7.356   9.662  1.00  0.00     0.086 A 
HETATM   23  C2  UNL     1      -6.120   6.810  10.907  1.00  0.00     0.078 A 
HETATM   24  N5  UNL     1      -5.490   5.685  11.162  1.00  0.00    -0.334 N 
ATOM     25  H5  UNL     1      -5.583   5.233  12.073  1.00  0.00     0.168 HD
BRANCH  23  26
HETATM   26  C1  UNL     1      -6.978   7.471  11.917  1.00  0.00     0.288 C 
HETATM   27  O1  UNL     1      -7.368   6.772  12.918  1.00  0.00    -0.300 OA
ENDBRANCH  23  26
ENDBRANCH  17  20
ENDBRANCH  15  16
ENDBRANCH   1  15
TORSDOF 4
ENDMDL
MODEL 4
REMARK VINA RESULT: -7.635063344      3.253      3.515
REMARK  4 active torsions:
REMARK  status: ('A' for Active; 'I' for Inactive)
REMARK    1  A    between atoms: C1_2  and  C2_3 
REMARK    2  A    between atoms: C4_6  and  N1_7 
REMARK       I    between atoms: N1_7  and  C5_9 
REMARK    3  A    between atoms: C5_9  and  C6_11 
REMARK    4  A    between atoms: C6_11  and  N2_12 
ROOT
HETATM    1  N2  UNL     1      -4.227   1.096  13.500  1.00  0.00    -0.244 N 
HETATM    2  N3  UNL     1      -4.645   2.339  13.374  1.00  0.00    -0.260 N 
ATOM      3  H3  UNL     1      -4.486   2.850  12.505  1.00  0.00     0.190 HD
HETATM    4  C7  UNL     1      -5.282   2.928  14.398  1.00  0.00     0.272 A 
HETATM    5  O3  UNL     1      -5.694   4.117  14.303  1.00  0.00    -0.266 OA
HETATM    6  C8  UNL     1      -5.530   2.295  15.597  1.00  0.00     0.066 A 
HETATM    7  C9  UNL     1      -6.193   2.913  16.644  1.00  0.00     0.021 A 
HETATM    8  C10 UNL     1      -6.417   2.221  17.827  1.00  0.00     0.018 A 
HETATM    9  C11 UNL     1      -5.963   0.921  17.917  1.00  0.00     0.088 A 
HETATM   10  N4  UNL     1      -5.325   0.352  16.882  1.00  0.00    -0.361 N 
ATOM     11  H4  UNL     1      -5.003  -0.610  16.979  1.00  0.00     0.165 HD
HETATM   12  C12 UNL     1      -5.090   0.996  15.718  1.00  0.00     0.118 A 
HETATM   13  C13 UNL     1      -4.438   0.417  14.652  1.00  0.00     0.290 A 
HETATM   14  O4  UNL     1      -4.045  -0.779  14.797  1.00  0.00    -0.264 OA
ENDROOT
BRANCH   1  15
HETATM   15  C6  UNL     1      -3.549   0.447  12.391  1.00  0.00     0.255 C 
BRANCH  15  16
HETATM   16  C5  UNL     1      -2.813   1.423  11.583  1.00  0.00     0.243 C 
HETATM   17  N1  UNL     1      -1.459   1.758  11.678  1.00  0.00    -0.306 N 
ATOM     18  H1  UNL     1      -0.747   1.043  11.528  1.00  0.00     0.171 HD
HETATM   19  O2  UNL     1      -3.494   2.043  10.690  1.00  0.00    -0.271 OA
BRANCH  17  20
HETATM   20  C4  UNL     1      -1.099   2.993  11.958  1.00  0.00     0.151 A 
HETATM   21  S1  UNL     1       0.134   3.919  11.237  1.00  0.00    -0.063 SA
HETATM   22  C3  UNL     1      -0.063   5.349  12.150  1.00  0.00     0.086 A 
HETATM   23  C2  UNL     1      -1.099   5.022  12.986  1.00  0.00     0.078 A 
HETATM   24  N5  UNL     1      -1.608   3.816  12.867  1.00  0.00    -0.334 N 
ATOM     25  H5  UNL     1      -2.379   3.517  13.464  1.00  0.00     0.168 HD
BRANCH  23  26
HETATM   26  C1  UNL     1      -1.612   5.992  13.981  1.00  0.00     0.288 C 
HETATM   27  O1  UNL     1      -2.809   5.828  14.412  1.00  0.00    -0.300 OA
ENDBRANCH  23  26
ENDBRANCH  17  20
ENDBRANCH  15  16
ENDBRANCH   1  15
TORSDOF 4
ENDMDL
MODEL 5
REMARK VINA RESULT: -7.583174496      2.876      3.934
REMARK  4 active torsions:
REMARK  status: ('A' for Active; 'I' for Inactive)
REMARK    1  A    between atoms: C1_2  and  C2_3 
REMARK    2  A    between atoms: C4_6  and  N1_7 
REMARK       I    between atoms: N1_7  and  C5_9 
REMARK    3  A    between atoms: C5_9  and  C6_11 
REMARK    4  A    between atoms: C6_11  and  N2_12 
ROOT
HETATM    1  N2  UNL     1      -4.363   1.330  12.775  1.00  0.00    -0.244 N 
HETATM    2  N3  UNL     1      -4.186   1.256  14.079  1.00  0.00    -0.260 N 
ATOM      3  H3  UNL     1      -3.718   0.447  14.489  1.00  0.00     0.190 HD
HETATM    4  C7  UNL     1      -4.626   2.252  14.863  1.00  0.00     0.272 A 
HETATM    5  O3  UNL     1      -4.469   2.206  16.114  1.00  0.00    -0.266 OA
HETATM    6  C8  UNL     1      -5.265   3.371  14.373  1.00  0.00     0.066 A 
HETATM    7  C9  UNL     1      -5.710   4.395  15.192  1.00  0.00     0.021 A 
HETATM    8  C10 UNL     1      -6.344   5.499  14.638  1.00  0.00     0.018 A 
HETATM    9  C11 UNL     1      -6.509   5.538  13.269  1.00  0.00     0.088 A 
HETATM   10  N4  UNL     1      -6.063   4.528  12.504  1.00  0.00    -0.361 N 
ATOM     11  H4  UNL     1      -6.198   4.587  11.496  1.00  0.00     0.165 HD
HETATM   12  C12 UNL     1      -5.444   3.439  13.009  1.00  0.00     0.118 A 
HETATM   13  C13 UNL     1      -4.983   2.402  12.229  1.00  0.00     0.290 A 
HETATM   14  O4  UNL     1      -5.164   2.496  10.979  1.00  0.00    -0.264 OA
ENDROOT
BRANCH   1  15
HETATM   15  C6  UNL     1      -3.876   0.262  11.919  1.00  0.00     0.255 C 
BRANCH  15  16
HETATM   16  C5  UNL     1      -2.648   0.664  11.228  1.00  0.00     0.243 C 
HETATM   17  N1  UNL     1      -1.625   1.483  11.718  1.00  0.00    -0.306 N 
ATOM     18  H1  UNL     1      -1.109   1.207  12.553  1.00  0.00     0.171 HD
HETATM   19  O2  UNL     1      -2.498   0.213  10.036  1.00  0.00    -0.271 OA
BRANCH  17  20
HETATM   20  C4  UNL     1      -1.326   2.608  11.103  1.00  0.00     0.151 A 
HETATM   21  S1  UNL     1       0.145   3.464  11.133  1.00  0.00    -0.063 SA
HETATM   22  C3  UNL     1      -0.299   4.757  10.109  1.00  0.00     0.086 A 
HETATM   23  C2  UNL     1      -1.596   4.448   9.792  1.00  0.00     0.078 A 
HETATM   24  N5  UNL     1      -2.094   3.348  10.313  1.00  0.00    -0.334 N 
ATOM     25  H5  UNL     1      -3.055   3.069  10.113  1.00  0.00     0.168 HD
BRANCH  23  26
HETATM   26  C1  UNL     1      -2.396   5.324   8.906  1.00  0.00     0.288 C 
HETATM   27  O1  UNL     1      -2.850   4.820   7.818  1.00  0.00    -0.300 OA
ENDBRANCH  23  26
ENDBRANCH  17  20
ENDBRANCH  15  16
ENDBRANCH   1  15
TORSDOF 4
ENDMDL
