MODEL 1
REMARK VINA RESULT: -7.403114935      0.000      0.000
REMARK  5 active torsions:
REMARK  status: ('A' for Active; 'I' for Inactive)
REMARK    1  A    between atoms: N3_6  and  O1_7 
REMARK    2  A    between atoms: O1_7  and  C3_8 
REMARK    3  A    between atoms: C3_8  and  C4_9 
REMARK    4  A    between atoms: N4_19  and  C13_20 
REMARK    5  A    between atoms: C13_20  and  N5_22 
ROOT
HETATM    1  N1  UNL     1      -6.024   4.250  13.293  1.00  0.00    -0.171 NA
HETATM    2  C1  UNL     1      -4.933   4.402  12.937  1.00  0.00     0.196 C 
HETATM    3  N2  UNL     1      -3.682   4.617  12.533  1.00  0.00    -0.123 N 
ATOM      4  H2  UNL     1      -3.442   5.607  12.593  1.00  0.00     0.197 HD
HETATM    5  C2  UNL     1      -2.723   3.952  12.103  1.00  0.00     0.729 A 
HETATM    6  N3  UNL     1      -1.585   4.699  11.816  1.00  0.00    -0.060 N 
HETATM    7  C10 UNL     1      -0.521   4.047  11.352  1.00  0.00     0.148 A 
HETATM    8  C11 UNL     1      -0.493   2.690  11.144  1.00  0.00     0.096 A 
HETATM    9  C12 UNL     1      -1.634   1.998  11.439  1.00  0.00     0.270 A 
HETATM   10  O2  UNL     1      -1.690   0.721  11.272  1.00  0.00    -0.267 OA
HETATM   11  N4  UNL     1      -2.715   2.627  11.906  1.00  0.00    -0.082 N 
ENDROOT
BRANCH   6  12
HETATM   12  O1  UNL     1      -1.592   6.064  12.018  1.00  0.00    -0.256 OA
BRANCH  12  13
HETATM   13  C3  UNL     1      -0.412   6.627  12.557  1.00  0.00     0.241 C 
BRANCH  13  14
HETATM   14  C4  UNL     1      -0.705   7.641  13.596  1.00  0.00    -0.032 A 
HETATM   15  C5  UNL     1      -1.784   7.404  14.421  1.00  0.00     0.009 A 
HETATM   16  C6  UNL     1      -2.144   8.292  15.427  1.00  0.00     0.001 A 
HETATM   17  C7  UNL     1      -1.396   9.433  15.592  1.00  0.00     0.000 A 
HETATM   18  C8  UNL     1      -0.315   9.675  14.767  1.00  0.00     0.001 A 
HETATM   19  C9  UNL     1       0.031   8.782  13.772  1.00  0.00     0.009 A 
ENDBRANCH  13  14
ENDBRANCH  12  13
ENDBRANCH   6  12
BRANCH  11  20
HETATM   20  C13 UNL     1      -3.864   1.787  12.184  1.00  0.00     0.204 C 
HETATM   21  S1  UNL     1      -4.974   1.505  11.033  1.00  0.00    -0.039 SA
BRANCH  20  22
HETATM   22  N5  UNL     1      -4.038   1.236  13.470  1.00  0.00    -0.309 N 
HETATM   23  C14 UNL     1      -4.176   0.019  13.786  1.00  0.00     0.203 C 
HETATM   24  N6  UNL     1      -4.340  -0.332  15.151  1.00  0.00    -0.066 NA
HETATM   25  N7  UNL     1      -4.166  -0.988  12.801  1.00  0.00    -0.066 NA
ATOM     26  H5  UNL     1      -4.056   1.902  14.243  1.00  0.00     0.170 HD
ENDBRANCH  20  22
ENDBRANCH  11  20
TORSDOF 5
ENDMDL
MODEL 2
REMARK VINA RESULT: -7.236846923      3.410      4.603
REMARK  5 active torsions:
REMARK  status: ('A' for Active; 'I' for Inactive)
REMARK    1  A    between atoms: N3_6  and  O1_7 
REMARK    2  A    between atoms: O1_7  and  C3_8 
REMARK    3  A    between atoms: C3_8  and  C4_9 
REMARK    4  A    between atoms: N4_19  and  C13_20 
REMARK    5  A    between atoms: C13_20  and  N5_22 
ROOT
HETATM    1  N1  UNL     1      -3.058   4.103   9.614  1.00  0.00    -0.171 NA
HETATM    2  C1  UNL     1      -3.462   4.083  10.699  1.00  0.00     0.196 C 
HETATM    3  N2  UNL     1      -3.931   4.102  11.946  1.00  0.00    -0.123 N 
ATOM      4  H2  UNL     1      -4.187   5.048  12.227  1.00  0.00     0.197 HD
HETATM    5  C2  UNL     1      -4.146   3.291  12.863  1.00  0.00     0.729 A 
HETATM    6  N3  UNL     1      -4.669   3.855  14.022  1.00  0.00    -0.060 N 
HETATM    7  C10 UNL     1      -4.923   3.041  15.044  1.00  0.00     0.148 A 
HETATM    8  C11 UNL     1      -4.694   1.687  15.011  1.00  0.00     0.096 A 
HETATM    9  C12 UNL     1      -4.179   1.178  13.853  1.00  0.00     0.270 A 
HETATM   10  O2  UNL     1      -3.935  -0.083  13.740  1.00  0.00    -0.267 OA
HETATM   11  N4  UNL     1      -3.916   1.973  12.812  1.00  0.00    -0.082 N 
ENDROOT
BRANCH   6  12
HETATM   12  O1  UNL     1      -4.907   5.214  14.076  1.00  0.00    -0.256 OA
BRANCH  12  13
HETATM   13  C3  UNL     1      -6.232   5.632  13.817  1.00  0.00     0.241 C 
BRANCH  13  14
HETATM   14  C4  UNL     1      -6.291   6.676  12.768  1.00  0.00    -0.032 A 
HETATM   15  C5  UNL     1      -7.531   7.201  12.472  1.00  0.00     0.009 A 
HETATM   16  C6  UNL     1      -7.698   8.184  11.504  1.00  0.00     0.001 A 
HETATM   17  C7  UNL     1      -6.586   8.636  10.832  1.00  0.00     0.000 A 
HETATM   18  C8  UNL     1      -5.342   8.112  11.125  1.00  0.00     0.001 A 
HETATM   19  C9  UNL     1      -5.194   7.135  12.090  1.00  0.00     0.009 A 
ENDBRANCH  13  14
ENDBRANCH  12  13
ENDBRANCH   6  12
BRANCH  11  20
HETATM   20  C13 UNL     1      -3.373   1.317  11.638  1.00  0.00     0.204 C 
HETATM   21  S1  UNL     1      -1.766   1.195  11.433  1.00  0.00    -0.039 SA
BRANCH  20  22
HETATM   22  N5  UNL     1      -4.242   0.808  10.651  1.00  0.00    -0.309 N 
HETATM   23  C14 UNL     1      -4.360  -0.387  10.255  1.00  0.00     0.203 C 
HETATM   24  N6  UNL     1      -5.302  -0.695   9.241  1.00  0.00    -0.066 NA
HETATM   25  N7  UNL     1      -3.569  -1.412  10.810  1.00  0.00    -0.066 NA
ATOM     26  H5  UNL     1      -4.852   1.490  10.199  1.00  0.00     0.170 HD
ENDBRANCH  20  22
ENDBRANCH  11  20
TORSDOF 5
ENDMDL
MODEL 3
REMARK VINA RESULT: -7.161793562      3.929      5.437
REMARK  5 active torsions:
REMARK  status: ('A' for Active; 'I' for Inactive)
REMARK    1  A    between atoms: N3_6  and  O1_7 
REMARK    2  A    between atoms: O1_7  and  C3_8 
REMARK    3  A    between atoms: C3_8  and  C4_9 
REMARK    4  A    between atoms: N4_19  and  C13_20 
REMARK    5  A    between atoms: C13_20  and  N5_22 
ROOT
HETATM    1  N1  UNL     1      -3.218   4.140   9.162  1.00  0.00    -0.171 NA
HETATM    2  C1  UNL     1      -3.957   4.474   9.989  1.00  0.00     0.196 C 
HETATM    3  N2  UNL     1      -4.825   4.883  10.913  1.00  0.00    -0.123 N 
ATOM      4  H2  UNL     1      -5.487   5.553  10.522  1.00  0.00     0.197 HD
HETATM    5  C2  UNL     1      -5.056   4.679  12.117  1.00  0.00     0.729 A 
HETATM    6  N3  UNL     1      -6.134   5.395  12.628  1.00  0.00    -0.060 N 
HETATM    7  C10 UNL     1      -6.435   5.223  13.913  1.00  0.00     0.148 A 
HETATM    8  C11 UNL     1      -5.742   4.382  14.749  1.00  0.00     0.096 A 
HETATM    9  C12 UNL     1      -4.691   3.700  14.204  1.00  0.00     0.270 A 
HETATM   10  O2  UNL     1      -3.988   2.893  14.921  1.00  0.00    -0.267 OA
HETATM   11  N4  UNL     1      -4.367   3.856  12.918  1.00  0.00    -0.082 N 
ENDROOT
BRANCH   6  12
HETATM   12  O1  UNL     1      -6.845   6.245  11.804  1.00  0.00    -0.256 OA
BRANCH  12  13
HETATM   13  C3  UNL     1      -6.785   7.622  12.118  1.00  0.00     0.241 C 
BRANCH  13  14
HETATM   14  C4  UNL     1      -6.974   8.473  10.921  1.00  0.00    -0.032 A 
HETATM   15  C5  UNL     1      -7.767   7.971   9.910  1.00  0.00     0.009 A 
HETATM   16  C6  UNL     1      -8.009   8.688   8.745  1.00  0.00     0.001 A 
HETATM   17  C7  UNL     1      -7.435   9.930   8.610  1.00  0.00     0.000 A 
HETATM   18  C8  UNL     1      -6.640  10.437   9.619  1.00  0.00     0.001 A 
HETATM   19  C9  UNL     1      -6.410   9.712  10.773  1.00  0.00     0.009 A 
ENDBRANCH  13  14
ENDBRANCH  12  13
ENDBRANCH   6  12
BRANCH  11  20
HETATM   20  C13 UNL     1      -3.234   3.079  12.453  1.00  0.00     0.204 C 
HETATM   21  S1  UNL     1      -1.805   3.797  12.167  1.00  0.00    -0.039 SA
BRANCH  20  22
HETATM   22  N5  UNL     1      -3.378   1.696  12.218  1.00  0.00    -0.309 N 
HETATM   23  C14 UNL     1      -4.333   1.096  11.646  1.00  0.00     0.203 C 
HETATM   24  N6  UNL     1      -4.286  -0.315  11.507  1.00  0.00    -0.066 NA
HETATM   25  N7  UNL     1      -5.438   1.812  11.146  1.00  0.00    -0.066 NA
ATOM     26  H5  UNL     1      -2.615   1.105  12.551  1.00  0.00     0.170 HD
ENDBRANCH  20  22
ENDBRANCH  11  20
TORSDOF 5
ENDMDL
MODEL 4
REMARK VINA RESULT: -7.151972203      4.451      6.773
REMARK  5 active torsions:
REMARK  status: ('A' for Active; 'I' for Inactive)
REMARK    1  A    between atoms: N3_6  and  O1_7 
REMARK    2  A    between atoms: O1_7  and  C3_8 
REMARK    3  A    between atoms: C3_8  and  C4_9 
REMARK    4  A    between atoms: N4_19  and  C13_20 
REMARK    5  A    between atoms: C13_20  and  N5_22 
ROOT
HETATM    1  N1  UNL     1      -6.988   8.292  11.767  1.00  0.00    -0.171 NA
HETATM    2  C1  UNL     1      -6.703   7.195  12.004  1.00  0.00     0.196 C 
HETATM    3  N2  UNL     1      -6.398   5.934  12.309  1.00  0.00    -0.123 N 
ATOM      4  H2  UNL     1      -6.892   5.631  13.149  1.00  0.00     0.197 HD
HETATM    5  C2  UNL     1      -5.682   5.023  11.860  1.00  0.00     0.729 A 
HETATM    6  N3  UNL     1      -5.726   3.840  12.592  1.00  0.00    -0.060 N 
HETATM    7  C10 UNL     1      -4.982   2.823  12.164  1.00  0.00     0.148 A 
HETATM    8  C11 UNL     1      -4.182   2.883  11.049  1.00  0.00     0.096 A 
HETATM    9  C12 UNL     1      -4.171   4.065  10.362  1.00  0.00     0.270 A 
HETATM   10  O2  UNL     1      -3.446   4.204   9.306  1.00  0.00    -0.267 OA
HETATM   11  N4  UNL     1      -4.908   5.101  10.770  1.00  0.00    -0.082 N 
ENDROOT
BRANCH   6  12
HETATM   12  O1  UNL     1      -6.524   3.758  13.715  1.00  0.00    -0.256 OA
BRANCH  12  13
HETATM   13  C3  UNL     1      -5.886   3.975  14.958  1.00  0.00     0.241 C 
BRANCH  13  14
HETATM   14  C4  UNL     1      -5.817   2.740  15.771  1.00  0.00    -0.032 A 
HETATM   15  C5  UNL     1      -6.886   2.473  16.602  1.00  0.00     0.009 A 
HETATM   16  C6  UNL     1      -6.921   1.342  17.407  1.00  0.00     0.001 A 
HETATM   17  C7  UNL     1      -5.856   0.473  17.364  1.00  0.00     0.000 A 
HETATM   18  C8  UNL     1      -4.784   0.736  16.534  1.00  0.00     0.001 A 
HETATM   19  C9  UNL     1      -4.764   1.866  15.739  1.00  0.00     0.009 A 
ENDBRANCH  13  14
ENDBRANCH  12  13
ENDBRANCH   6  12
BRANCH  11  20
HETATM   20  C13 UNL     1      -4.814   6.300   9.960  1.00  0.00     0.204 C 
HETATM   21  S1  UNL     1      -3.623   7.374  10.215  1.00  0.00    -0.039 SA
BRANCH  20  22
HETATM   22  N5  UNL     1      -5.780   6.554   8.965  1.00  0.00    -0.309 N 
HETATM   23  C14 UNL     1      -5.610   6.638   7.715  1.00  0.00     0.203 C 
HETATM   24  N6  UNL     1      -6.723   6.903   6.876  1.00  0.00    -0.066 NA
HETATM   25  N7  UNL     1      -4.331   6.471   7.148  1.00  0.00    -0.066 NA
ATOM     26  H5  UNL     1      -6.736   6.687   9.295  1.00  0.00     0.170 HD
ENDBRANCH  20  22
ENDBRANCH  11  20
TORSDOF 5
ENDMDL
MODEL 5
REMARK VINA RESULT: -7.117578386      2.840      6.356
REMARK  5 active torsions:
REMARK  status: ('A' for Active; 'I' for Inactive)
REMARK    1  A    between atoms: N3_6  and  O1_7 
REMARK    2  A    between atoms: O1_7  and  C3_8 
REMARK    3  A    between atoms: C3_8  and  C4_9 
REMARK    4  A    between atoms: N4_19  and  C13_20 
REMARK    5  A    between atoms: C13_20  and  N5_22 
ROOT
HETATM    1  N1  UNL     1      -2.092   1.222  10.519  1.00  0.00    -0.171 NA
HETATM    2  C1  UNL     1      -2.177   1.993  11.379  1.00  0.00     0.196 C 
HETATM    3  N2  UNL     1      -2.297   2.851  12.391  1.00  0.00    -0.123 N 
ATOM      4  H2  UNL     1      -2.773   2.420  13.183  1.00  0.00     0.197 HD
HETATM    5  C2  UNL     1      -1.991   4.030  12.642  1.00  0.00     0.729 A 
HETATM    6  N3  UNL     1      -2.363   4.465  13.910  1.00  0.00    -0.060 N 
HETATM    7  C10 UNL     1      -2.065   5.718  14.245  1.00  0.00     0.148 A 
HETATM    8  C11 UNL     1      -1.416   6.593  13.408  1.00  0.00     0.096 A 
HETATM    9  C12 UNL     1      -1.070   6.122  12.172  1.00  0.00     0.270 A 
HETATM   10  O2  UNL     1      -0.460   6.879  11.327  1.00  0.00    -0.267 OA
HETATM   11  N4  UNL     1      -1.358   4.868  11.812  1.00  0.00    -0.082 N 
ENDROOT
BRANCH   6  12
HETATM   12  O1  UNL     1      -3.016   3.601  14.767  1.00  0.00    -0.256 OA
BRANCH  12  13
HETATM   13  C3  UNL     1      -4.428   3.629  14.733  1.00  0.00     0.241 C 
BRANCH  13  14
HETATM   14  C4  UNL     1      -5.026   2.584  15.597  1.00  0.00    -0.032 A 
HETATM   15  C5  UNL     1      -6.268   2.848  16.136  1.00  0.00     0.009 A 
HETATM   16  C6  UNL     1      -6.916   1.937  16.959  1.00  0.00     0.001 A 
HETATM   17  C7  UNL     1      -6.292   0.743  17.235  1.00  0.00     0.000 A 
HETATM   18  C8  UNL     1      -5.048   0.475  16.697  1.00  0.00     0.001 A 
HETATM   19  C9  UNL     1      -4.416   1.392  15.880  1.00  0.00     0.009 A 
ENDBRANCH  13  14
ENDBRANCH  12  13
ENDBRANCH   6  12
BRANCH  11  20
HETATM   20  C13 UNL     1      -0.941   4.483  10.478  1.00  0.00     0.204 C 
HETATM   21  S1  UNL     1      -1.870   4.832   9.192  1.00  0.00    -0.039 SA
BRANCH  20  22
HETATM   22  N5  UNL     1       0.264   3.774  10.294  1.00  0.00    -0.309 N 
HETATM   23  C14 UNL     1       1.305   4.148   9.682  1.00  0.00     0.203 C 
HETATM   24  N6  UNL     1       2.422   3.277   9.610  1.00  0.00    -0.066 NA
HETATM   25  N7  UNL     1       1.368   5.417   9.073  1.00  0.00    -0.066 NA
ATOM     26  H5  UNL     1       0.300   2.841  10.707  1.00  0.00     0.170 HD
ENDBRANCH  20  22
ENDBRANCH  11  20
TORSDOF 5
ENDMDL
