MODEL 1
REMARK VINA RESULT: -7.806659751      0.000      0.000
REMARK  5 active torsions:
REMARK  status: ('A' for Active; 'I' for Inactive)
REMARK    1  A    between atoms: C3_3  and  C4_4 
REMARK    2  A    between atoms: C4_4  and  C5_5 
REMARK    3  A    between atoms: N5_19  and  C9_20 
REMARK    4  A    between atoms: C13_24  and  C14_25 
REMARK    5  A    between atoms: C14_25  and  O4_27 
ROOT
HETATM    1  C1  UNL     1      -4.145   5.200  11.093  1.00  0.00     0.046 C 
HETATM    2  C2  UNL     1      -5.115   5.019  11.957  1.00  0.00     0.059 A 
HETATM    3  C3  UNL     1      -5.195   4.036  12.898  1.00  0.00     0.011 A 
HETATM    4  C8  UNL     1      -6.427   4.291  13.559  1.00  0.00     0.121 A 
HETATM    5  N4  UNL     1      -6.979   5.368  12.989  1.00  0.00    -0.304 N 
ATOM      6  H4  UNL     1      -7.873   5.772  13.272  1.00  0.00     0.186 HD
HETATM    7  N5  UNL     1      -6.237   5.834  12.033  1.00  0.00    -0.257 N 
ENDROOT
BRANCH   3   8
HETATM    8  C4  UNL     1      -4.429   3.040  13.240  1.00  0.00     0.050 C 
BRANCH   8   9
HETATM    9  C5  UNL     1      -4.332   1.729  12.682  1.00  0.00     0.107 A 
HETATM   10  N1  UNL     1      -4.517   1.582  11.359  1.00  0.00    -0.303 N 
HETATM   11  C6  UNL     1      -4.475   0.384  10.777  1.00  0.00     0.339 A 
ATOM     12  H1  UNL     1      -4.694   2.407  10.787  1.00  0.00     0.171 HD
HETATM   13  O1  UNL     1      -4.651   0.284   9.535  1.00  0.00    -0.245 OA
HETATM   14  N2  UNL     1      -4.242  -0.714  11.516  1.00  0.00    -0.248 N 
HETATM   15  N3  UNL     1      -4.054  -0.607  12.820  1.00  0.00    -0.261 N 
ATOM     16  H2  UNL     1      -4.209  -1.630  11.070  1.00  0.00     0.192 HD
HETATM   17  C7  UNL     1      -4.093   0.584  13.431  1.00  0.00     0.286 A 
ATOM     18  H3  UNL     1      -3.877  -1.447  13.370  1.00  0.00     0.190 HD
HETATM   19  O2  UNL     1      -3.917   0.714  14.684  1.00  0.00    -0.264 OA
ENDBRANCH   8   9
ENDBRANCH   3   8
BRANCH   7  20
HETATM   20  C9  UNL     1      -6.442   6.955  11.175  1.00  0.00     0.058 A 
HETATM   21  C10 UNL     1      -6.400   8.229  11.709  1.00  0.00     0.031 A 
HETATM   22  C11 UNL     1      -6.588   9.363  10.948  1.00  0.00     0.003 A 
HETATM   23  C12 UNL     1      -6.826   9.178   9.603  1.00  0.00     0.018 A 
HETATM   24  C13 UNL     1      -6.872   7.901   9.046  1.00  0.00     0.041 A 
HETATM   25  C16 UNL     1      -6.680   6.786   9.829  1.00  0.00     0.049 A 
BRANCH  24  26
HETATM   26  C14 UNL     1      -7.125   7.787   7.629  1.00  0.00     0.293 C 
HETATM   27  O3  UNL     1      -7.777   8.694   7.057  1.00  0.00    -0.259 OA
BRANCH  26  28
HETATM   28  O4  UNL     1      -6.691   6.732   6.860  1.00  0.00    -0.323 OA
HETATM   29  C15 UNL     1      -5.413   6.720   6.214  1.00  0.00     0.213 C 
ENDBRANCH  26  28
ENDBRANCH  24  26
ENDBRANCH   7  20
TORSDOF 5
ENDMDL
MODEL 2
REMARK VINA RESULT: -7.804162874      2.632      8.090
REMARK  5 active torsions:
REMARK  status: ('A' for Active; 'I' for Inactive)
REMARK    1  A    between atoms: C3_3  and  C4_4 
REMARK    2  A    between atoms: C4_4  and  C5_5 
REMARK    3  A    between atoms: N5_19  and  C9_20 
REMARK    4  A    between atoms: C13_24  and  C14_25 
REMARK    5  A    between atoms: C14_25  and  O4_27 
ROOT
HETATM    1  C1  UNL     1      -4.352   5.160  11.227  1.00  0.00     0.046 C 
HETATM    2  C2  UNL     1      -5.372   5.382  12.020  1.00  0.00     0.059 A 
HETATM    3  C3  UNL     1      -6.125   6.516  12.082  1.00  0.00     0.011 A 
HETATM    4  C8  UNL     1      -7.086   6.238  13.092  1.00  0.00     0.121 A 
HETATM    5  N4  UNL     1      -6.851   5.003  13.547  1.00  0.00    -0.304 N 
ATOM      6  H4  UNL     1      -7.397   4.548  14.280  1.00  0.00     0.186 HD
HETATM    7  N5  UNL     1      -5.844   4.455  12.941  1.00  0.00    -0.257 N 
ENDROOT
BRANCH   3   8
HETATM    8  C4  UNL     1      -6.106   7.656  11.452  1.00  0.00     0.050 C 
BRANCH   8   9
HETATM    9  C5  UNL     1      -6.509   7.969  10.119  1.00  0.00     0.107 A 
HETATM   10  N1  UNL     1      -7.824   7.998   9.839  1.00  0.00    -0.303 N 
HETATM   11  C6  UNL     1      -8.270   8.250   8.609  1.00  0.00     0.339 A 
ATOM     12  H1  UNL     1      -8.495   7.824  10.586  1.00  0.00     0.171 HD
HETATM   13  O1  UNL     1      -9.508   8.271   8.385  1.00  0.00    -0.245 OA
HETATM   14  N2  UNL     1      -7.400   8.483   7.613  1.00  0.00    -0.248 N 
HETATM   15  N3  UNL     1      -6.100   8.463   7.851  1.00  0.00    -0.261 N 
ATOM     16  H2  UNL     1      -7.742   8.676   6.672  1.00  0.00     0.192 HD
HETATM   17  C7  UNL     1      -5.623   8.212   9.078  1.00  0.00     0.286 A 
ATOM     18  H3  UNL     1      -5.448   8.643   7.088  1.00  0.00     0.190 HD
HETATM   19  O2  UNL     1      -4.378   8.186   9.333  1.00  0.00    -0.264 OA
ENDBRANCH   8   9
ENDBRANCH   3   8
BRANCH   7  20
HETATM   20  C9  UNL     1      -5.260   3.165  13.113  1.00  0.00     0.058 A 
HETATM   21  C10 UNL     1      -4.790   2.485  12.004  1.00  0.00     0.031 A 
HETATM   22  C11 UNL     1      -4.213   1.235  12.086  1.00  0.00     0.003 A 
HETATM   23  C12 UNL     1      -4.119   0.673  13.341  1.00  0.00     0.018 A 
HETATM   24  C13 UNL     1      -4.587   1.344  14.470  1.00  0.00     0.041 A 
HETATM   25  C16 UNL     1      -5.158   2.591  14.361  1.00  0.00     0.049 A 
BRANCH  24  26
HETATM   26  C14 UNL     1      -4.453   0.690  15.751  1.00  0.00     0.293 C 
HETATM   27  O3  UNL     1      -3.352   0.752  16.349  1.00  0.00    -0.259 OA
BRANCH  26  28
HETATM   28  O4  UNL     1      -5.471  -0.004  16.362  1.00  0.00    -0.323 OA
HETATM   29  C15 UNL     1      -6.266   0.555  17.414  1.00  0.00     0.213 C 
ENDBRANCH  26  28
ENDBRANCH  24  26
ENDBRANCH   7  20
TORSDOF 5
ENDMDL
MODEL 3
REMARK VINA RESULT: -7.754947695      1.652      2.089
REMARK  5 active torsions:
REMARK  status: ('A' for Active; 'I' for Inactive)
REMARK    1  A    between atoms: C3_3  and  C4_4 
REMARK    2  A    between atoms: C4_4  and  C5_5 
REMARK    3  A    between atoms: N5_19  and  C9_20 
REMARK    4  A    between atoms: C13_24  and  C14_25 
REMARK    5  A    between atoms: C14_25  and  O4_27 
ROOT
HETATM    1  C1  UNL     1      -6.754   4.475  13.285  1.00  0.00     0.046 C 
HETATM    2  C2  UNL     1      -5.545   4.975  13.376  1.00  0.00     0.059 A 
HETATM    3  C3  UNL     1      -4.534   4.521  14.170  1.00  0.00     0.011 A 
HETATM    4  C8  UNL     1      -3.456   5.404  13.892  1.00  0.00     0.121 A 
HETATM    5  N4  UNL     1      -3.880   6.293  12.987  1.00  0.00    -0.304 N 
ATOM      6  H4  UNL     1      -3.304   7.046  12.608  1.00  0.00     0.186 HD
HETATM    7  N5  UNL     1      -5.114   6.078  12.651  1.00  0.00    -0.257 N 
ENDROOT
BRANCH   3   8
HETATM    8  C4  UNL     1      -4.415   3.543  15.022  1.00  0.00     0.050 C 
BRANCH   8   9
HETATM    9  C5  UNL     1      -4.239   2.146  14.790  1.00  0.00     0.107 A 
HETATM   10  N1  UNL     1      -4.088   1.722  13.523  1.00  0.00    -0.303 N 
HETATM   11  C6  UNL     1      -3.952   0.429  13.230  1.00  0.00     0.339 A 
ATOM     12  H1  UNL     1      -4.076   2.407  12.767  1.00  0.00     0.171 HD
HETATM   13  O1  UNL     1      -3.811   0.070  12.033  1.00  0.00    -0.245 OA
HETATM   14  N2  UNL     1      -3.964  -0.486  14.213  1.00  0.00    -0.248 N 
HETATM   15  N3  UNL     1      -4.109  -0.107  15.471  1.00  0.00    -0.261 N 
ATOM     16  H2  UNL     1      -3.860  -1.475  13.989  1.00  0.00     0.192 HD
HETATM   17  C7  UNL     1      -4.249   1.186  15.794  1.00  0.00     0.286 A 
ATOM     18  H3  UNL     1      -4.116  -0.810  16.208  1.00  0.00     0.190 HD
HETATM   19  O2  UNL     1      -4.392   1.578  16.995  1.00  0.00    -0.264 OA
ENDBRANCH   8   9
ENDBRANCH   3   8
BRANCH   7  20
HETATM   20  C9  UNL     1      -5.949   6.776  11.730  1.00  0.00     0.058 A 
HETATM   21  C10 UNL     1      -6.727   7.825  12.186  1.00  0.00     0.031 A 
HETATM   22  C11 UNL     1      -7.560   8.549  11.361  1.00  0.00     0.003 A 
HETATM   23  C12 UNL     1      -7.592   8.185  10.032  1.00  0.00     0.018 A 
HETATM   24  C13 UNL     1      -6.814   7.131   9.553  1.00  0.00     0.041 A 
HETATM   25  C16 UNL     1      -5.991   6.424  10.399  1.00  0.00     0.049 A 
BRANCH  24  26
HETATM   26  C14 UNL     1      -6.901   6.808   8.148  1.00  0.00     0.293 C 
HETATM   27  O3  UNL     1      -7.682   5.895   7.784  1.00  0.00    -0.259 OA
BRANCH  26  28
HETATM   28  O4  UNL     1      -6.170   7.447   7.173  1.00  0.00    -0.323 OA
HETATM   29  C15 UNL     1      -5.369   6.740   6.219  1.00  0.00     0.213 C 
ENDBRANCH  26  28
ENDBRANCH  24  26
ENDBRANCH   7  20
TORSDOF 5
ENDMDL
MODEL 4
REMARK VINA RESULT: -7.724897446      2.583      8.306
REMARK  5 active torsions:
REMARK  status: ('A' for Active; 'I' for Inactive)
REMARK    1  A    between atoms: C3_3  and  C4_4 
REMARK    2  A    between atoms: C4_4  and  C5_5 
REMARK    3  A    between atoms: N5_19  and  C9_20 
REMARK    4  A    between atoms: C13_24  and  C14_25 
REMARK    5  A    between atoms: C14_25  and  O4_27 
ROOT
HETATM    1  C1  UNL     1      -6.547   4.434  13.307  1.00  0.00     0.046 C 
HETATM    2  C2  UNL     1      -5.549   4.809  12.544  1.00  0.00     0.059 A 
HETATM    3  C3  UNL     1      -5.375   6.035  11.974  1.00  0.00     0.011 A 
HETATM    4  C8  UNL     1      -4.153   5.913  11.258  1.00  0.00     0.121 A 
HETATM    5  N4  UNL     1      -3.697   4.669  11.442  1.00  0.00    -0.304 N 
ATOM      6  H4  UNL     1      -2.831   4.309  11.037  1.00  0.00     0.186 HD
HETATM    7  N5  UNL     1      -4.492   3.977  12.197  1.00  0.00    -0.257 N 
ENDROOT
BRANCH   3   8
HETATM    8  C4  UNL     1      -6.055   7.146  11.980  1.00  0.00     0.050 C 
BRANCH   8   9
HETATM    9  C5  UNL     1      -6.471   7.967  10.889  1.00  0.00     0.107 A 
HETATM   10  N1  UNL     1      -7.594   7.635  10.230  1.00  0.00    -0.303 N 
HETATM   11  C6  UNL     1      -8.023   8.338   9.182  1.00  0.00     0.339 A 
ATOM     12  H1  UNL     1      -8.132   6.826  10.539  1.00  0.00     0.171 HD
HETATM   13  O1  UNL     1      -9.080   7.998   8.589  1.00  0.00    -0.245 OA
HETATM   14  N2  UNL     1      -7.328   9.408   8.761  1.00  0.00    -0.248 N 
HETATM   15  N3  UNL     1      -6.219   9.765   9.385  1.00  0.00    -0.261 N 
ATOM     16  H2  UNL     1      -7.656   9.945   7.959  1.00  0.00     0.192 HD
HETATM   17  C7  UNL     1      -5.764   9.076  10.441  1.00  0.00     0.286 A 
ATOM     18  H3  UNL     1      -5.700  10.579   9.058  1.00  0.00     0.190 HD
HETATM   19  O2  UNL     1      -4.701   9.398  11.058  1.00  0.00    -0.264 OA
ENDBRANCH   8   9
ENDBRANCH   3   8
BRANCH   7  20
HETATM   20  C9  UNL     1      -4.390   2.626  12.643  1.00  0.00     0.058 A 
HETATM   21  C10 UNL     1      -4.220   1.620  11.709  1.00  0.00     0.031 A 
HETATM   22  C11 UNL     1      -4.112   0.290  12.058  1.00  0.00     0.003 A 
HETATM   23  C12 UNL     1      -4.182  -0.009  13.402  1.00  0.00     0.018 A 
HETATM   24  C13 UNL     1      -4.353   0.992  14.357  1.00  0.00     0.041 A 
HETATM   25  C16 UNL     1      -4.457   2.312  13.982  1.00  0.00     0.049 A 
BRANCH  24  26
HETATM   26  C14 UNL     1      -4.417   0.601  15.746  1.00  0.00     0.293 C 
HETATM   27  O3  UNL     1      -3.418   0.802  16.478  1.00  0.00    -0.259 OA
BRANCH  26  28
HETATM   28  O4  UNL     1      -5.519   0.012  16.322  1.00  0.00    -0.323 OA
HETATM   29  C15 UNL     1      -6.334   0.680  17.292  1.00  0.00     0.213 C 
ENDBRANCH  26  28
ENDBRANCH  24  26
ENDBRANCH   7  20
TORSDOF 5
ENDMDL
MODEL 5
REMARK VINA RESULT: -7.646883458      1.594      2.489
REMARK  5 active torsions:
REMARK  status: ('A' for Active; 'I' for Inactive)
REMARK    1  A    between atoms: C3_3  and  C4_4 
REMARK    2  A    between atoms: C4_4  and  C5_5 
REMARK    3  A    between atoms: N5_19  and  C9_20 
REMARK    4  A    between atoms: C13_24  and  C14_25 
REMARK    5  A    between atoms: C14_25  and  O4_27 
ROOT
HETATM    1  C1  UNL     1      -3.935   6.006  11.903  1.00  0.00     0.046 C 
HETATM    2  C2  UNL     1      -5.012   5.815  12.626  1.00  0.00     0.059 A 
HETATM    3  C3  UNL     1      -5.123   5.022  13.729  1.00  0.00     0.011 A 
HETATM    4  C8  UNL     1      -6.480   5.168  14.125  1.00  0.00     0.121 A 
HETATM    5  N4  UNL     1      -7.067   6.006  13.263  1.00  0.00    -0.304 N 
ATOM      6  H4  UNL     1      -8.046   6.288  13.313  1.00  0.00     0.186 HD
HETATM    7  N5  UNL     1      -6.235   6.416  12.356  1.00  0.00    -0.257 N 
ENDROOT
BRANCH   3   8
HETATM    8  C4  UNL     1      -4.297   4.259  14.387  1.00  0.00     0.050 C 
BRANCH   8   9
HETATM    9  C5  UNL     1      -4.279   2.838  14.523  1.00  0.00     0.107 A 
HETATM   10  N1  UNL     1      -4.457   2.310  15.746  1.00  0.00    -0.303 N 
HETATM   11  C6  UNL     1      -4.419   0.994  15.951  1.00  0.00     0.339 A 
ATOM     12  H1  UNL     1      -4.626   2.932  16.537  1.00  0.00     0.171 HD
HETATM   13  O1  UNL     1      -4.591   0.535  17.110  1.00  0.00    -0.245 OA
HETATM   14  N2  UNL     1      -4.199   0.160  14.922  1.00  0.00    -0.248 N 
HETATM   15  N3  UNL     1      -4.020   0.643  13.705  1.00  0.00    -0.261 N 
ATOM     16  H2  UNL     1      -4.169  -0.847  15.079  1.00  0.00     0.192 HD
HETATM   17  C7  UNL     1      -4.052   1.961  13.469  1.00  0.00     0.286 A 
ATOM     18  H3  UNL     1      -3.855   0.000  12.931  1.00  0.00     0.190 HD
HETATM   19  O2  UNL     1      -3.882   2.451  12.309  1.00  0.00    -0.264 OA
ENDBRANCH   8   9
ENDBRANCH   3   8
BRANCH   7  20
HETATM   20  C9  UNL     1      -6.438   7.306  11.260  1.00  0.00     0.058 A 
HETATM   21  C10 UNL     1      -6.504   8.666  11.500  1.00  0.00     0.031 A 
HETATM   22  C11 UNL     1      -6.698   9.591  10.496  1.00  0.00     0.003 A 
HETATM   23  C12 UNL     1      -6.825   9.102   9.214  1.00  0.00     0.018 A 
HETATM   24  C13 UNL     1      -6.760   7.733   8.952  1.00  0.00     0.041 A 
HETATM   25  C16 UNL     1      -6.566   6.832   9.973  1.00  0.00     0.049 A 
BRANCH  24  26
HETATM   26  C14 UNL     1      -6.902   7.297   7.583  1.00  0.00     0.293 C 
HETATM   27  O3  UNL     1      -7.327   6.138   7.359  1.00  0.00    -0.259 OA
BRANCH  26  28
HETATM   28  O4  UNL     1      -6.595   8.084   6.497  1.00  0.00    -0.323 OA
HETATM   29  C15 UNL     1      -5.386   7.927   5.746  1.00  0.00     0.213 C 
ENDBRANCH  26  28
ENDBRANCH  24  26
ENDBRANCH   7  20
TORSDOF 5
ENDMDL
