MODEL 1
REMARK VINA RESULT: -6.718036244      0.000      0.000
REMARK  11 active torsions:
REMARK  status: ('A' for Active; 'I' for Inactive)
REMARK    1  A    between atoms: N1_1  and  C1_5 
REMARK    2  A    between atoms: C1_5  and  C2_6 
REMARK    3  A    between atoms: C2_6  and  O1_7 
REMARK    4  A    between atoms: O1_7  and  N2_8 
REMARK    5  A    between atoms: N2_8  and  C3_10 
REMARK    6  A    between atoms: C3_10  and  N3_12 
REMARK    7  A    between atoms: N3_12  and  C4_14 
REMARK    8  A    between atoms: C4_14  and  C5_15 
REMARK    9  A    between atoms: C5_15  and  N4_16 
REMARK   10  A    between atoms: N4_16  and  C6_18 
REMARK   11  A    between atoms: C9_24  and  N6_25 
ROOT
HETATM    1  C4  UNL     1      66.504  52.463  62.201  1.00  0.00     0.166 C 
ENDROOT
BRANCH   1   2
HETATM    2  N3  UNL     1      67.257  52.712  63.414  1.00  0.00    -0.361 N 
ATOM      3  H3  UNL     1      67.375  53.654  63.791  1.00  0.00     0.162 HD
BRANCH   2   4
HETATM    4  C3  UNL     1      67.832  51.552  64.061  1.00  0.00     0.192 C 
HETATM    5  S1  UNL     1      67.732  49.985  63.951  1.00  0.00    -0.039 SA
BRANCH   4   6
HETATM    6  N2  UNL     1      68.642  51.940  65.272  1.00  0.00    -0.241 N 
ATOM      7  H2  UNL     1      69.515  52.447  65.130  1.00  0.00     0.197 HD
BRANCH   6   8
HETATM    8  O1  UNL     1      68.301  51.674  66.418  1.00  0.00    -0.277 OA
BRANCH   8   9
HETATM    9  C2  UNL     1      68.218  51.643  67.681  1.00  0.00     0.228 C 
BRANCH   9  10
HETATM   10  C1  UNL     1      69.787  51.971  68.065  1.00  0.00     0.258 C 
BRANCH  10  11
HETATM   11  N1  UNL     1      69.948  51.160  69.288  1.00  0.00    -0.077 N 
ATOM     12  H13 UNL     1      69.732  51.637  70.163  1.00  0.00     0.274 HD
ATOM     13  H12 UNL     1      69.258  50.421  69.420  1.00  0.00     0.274 HD
ATOM     14  H11 UNL     1      70.914  50.848  69.184  1.00  0.00     0.274 HD
ENDBRANCH  10  11
ENDBRANCH   9  10
ENDBRANCH   8   9
ENDBRANCH   6   8
ENDBRANCH   4   6
ENDBRANCH   2   4
ENDBRANCH   1   2
BRANCH   1  15
HETATM   15  C5  UNL     1      66.736  53.799  61.490  1.00  0.00     0.075 C 
BRANCH  15  16
HETATM   16  N4  UNL     1      67.982  54.310  61.196  1.00  0.00    -0.392 N 
ATOM     17  H4  UNL     1      68.683  54.353  61.935  1.00  0.00     0.159 HD
BRANCH  16  18
HETATM   18  C6  UNL     1      68.319  54.769  59.930  1.00  0.00     0.138 C 
HETATM   19  C7  UNL     1      69.305  53.849  59.278  1.00  0.00     0.259 C 
HETATM   20  N5  UNL     1      70.600  54.430  59.581  1.00  0.00    -0.071 N 
HETATM   21  C8  UNL     1      70.360  55.869  59.307  1.00  0.00     0.267 C 
ATOM     22  H52 UNL     1      70.962  54.220  60.512  1.00  0.00     0.277 HD
ATOM     23  H51 UNL     1      71.388  54.019  59.080  1.00  0.00     0.277 HD
HETATM   24  C9  UNL     1      69.058  56.106  60.016  1.00  0.00     0.233 C 
BRANCH  24  25
HETATM   25  N6  UNL     1      68.354  57.214  59.431  1.00  0.00    -0.071 N 
ATOM     26  H63 UNL     1      68.911  57.638  58.689  1.00  0.00     0.274 HD
ATOM     27  H62 UNL     1      67.560  56.882  58.884  1.00  0.00     0.274 HD
ATOM     28  H61 UNL     1      68.053  57.923  60.099  1.00  0.00     0.274 HD
ENDBRANCH  24  25
ENDBRANCH  16  18
ENDBRANCH  15  16
ENDBRANCH   1  15
TORSDOF 11
ENDMDL
MODEL 2
REMARK VINA RESULT: -5.551487984      2.225      3.306
REMARK  11 active torsions:
REMARK  status: ('A' for Active; 'I' for Inactive)
REMARK    1  A    between atoms: N1_1  and  C1_5 
REMARK    2  A    between atoms: C1_5  and  C2_6 
REMARK    3  A    between atoms: C2_6  and  O1_7 
REMARK    4  A    between atoms: O1_7  and  N2_8 
REMARK    5  A    between atoms: N2_8  and  C3_10 
REMARK    6  A    between atoms: C3_10  and  N3_12 
REMARK    7  A    between atoms: N3_12  and  C4_14 
REMARK    8  A    between atoms: C4_14  and  C5_15 
REMARK    9  A    between atoms: C5_15  and  N4_16 
REMARK   10  A    between atoms: N4_16  and  C6_18 
REMARK   11  A    between atoms: C9_24  and  N6_25 
ROOT
HETATM    1  C4  UNL     1      68.163  50.927  64.208  1.00  0.00     0.166 C 
ENDROOT
BRANCH   1   2
HETATM    2  N3  UNL     1      67.869  51.999  65.138  1.00  0.00    -0.361 N 
ATOM      3  H3  UNL     1      67.282  52.793  64.878  1.00  0.00     0.162 HD
BRANCH   2   4
HETATM    4  C3  UNL     1      68.453  51.882  66.457  1.00  0.00     0.192 C 
HETATM    5  S1  UNL     1      68.014  51.397  67.889  1.00  0.00    -0.039 SA
BRANCH   4   6
HETATM    6  N2  UNL     1      69.811  52.534  66.520  1.00  0.00    -0.241 N 
ATOM      7  H2  UNL     1      70.274  52.777  65.645  1.00  0.00     0.197 HD
BRANCH   6   8
HETATM    8  O1  UNL     1      70.384  52.785  67.573  1.00  0.00    -0.277 OA
BRANCH   8   9
HETATM    9  C2  UNL     1      71.249  53.139  68.427  1.00  0.00     0.228 C 
BRANCH   9  10
HETATM   10  C1  UNL     1      72.123  54.192  67.508  1.00  0.00     0.258 C 
BRANCH  10  11
HETATM   11  N1  UNL     1      73.224  53.317  67.057  1.00  0.00    -0.077 N 
ATOM     12  H13 UNL     1      72.948  52.535  66.464  1.00  0.00     0.274 HD
ATOM     13  H12 UNL     1      73.858  53.728  66.372  1.00  0.00     0.274 HD
ATOM     14  H11 UNL     1      73.645  53.065  67.951  1.00  0.00     0.274 HD
ENDBRANCH  10  11
ENDBRANCH   9  10
ENDBRANCH   8   9
ENDBRANCH   6   8
ENDBRANCH   4   6
ENDBRANCH   2   4
ENDBRANCH   1   2
BRANCH   1  15
HETATM   15  C5  UNL     1      67.172  51.288  63.098  1.00  0.00     0.075 C 
BRANCH  15  16
HETATM   16  N4  UNL     1      67.524  51.921  61.925  1.00  0.00    -0.392 N 
ATOM     17  H4  UNL     1      67.955  51.372  61.181  1.00  0.00     0.159 HD
BRANCH  16  18
HETATM   18  C6  UNL     1      67.315  53.277  61.718  1.00  0.00     0.138 C 
HETATM   19  C7  UNL     1      65.854  53.572  61.575  1.00  0.00     0.259 C 
HETATM   20  N5  UNL     1      65.616  53.552  60.144  1.00  0.00    -0.071 N 
HETATM   21  C8  UNL     1      66.769  54.335  59.633  1.00  0.00     0.267 C 
ATOM     22  H52 UNL     1      65.508  52.623  59.736  1.00  0.00     0.277 HD
ATOM     23  H51 UNL     1      64.699  53.891  59.852  1.00  0.00     0.277 HD
HETATM   24  C9  UNL     1      67.916  53.722  60.383  1.00  0.00     0.233 C 
BRANCH  24  25
HETATM   25  N6  UNL     1      69.004  54.653  60.501  1.00  0.00    -0.071 N 
ATOM     26  H63 UNL     1      69.808  54.330  59.963  1.00  0.00     0.274 HD
ATOM     27  H62 UNL     1      68.792  55.514  59.997  1.00  0.00     0.274 HD
ATOM     28  H61 UNL     1      69.279  54.862  61.461  1.00  0.00     0.274 HD
ENDBRANCH  24  25
ENDBRANCH  16  18
ENDBRANCH  15  16
ENDBRANCH   1  15
TORSDOF 11
ENDMDL
MODEL 3
REMARK VINA RESULT: -5.536776580      1.370      1.770
REMARK  11 active torsions:
REMARK  status: ('A' for Active; 'I' for Inactive)
REMARK    1  A    between atoms: N1_1  and  C1_5 
REMARK    2  A    between atoms: C1_5  and  C2_6 
REMARK    3  A    between atoms: C2_6  and  O1_7 
REMARK    4  A    between atoms: O1_7  and  N2_8 
REMARK    5  A    between atoms: N2_8  and  C3_10 
REMARK    6  A    between atoms: C3_10  and  N3_12 
REMARK    7  A    between atoms: N3_12  and  C4_14 
REMARK    8  A    between atoms: C4_14  and  C5_15 
REMARK    9  A    between atoms: C5_15  and  N4_16 
REMARK   10  A    between atoms: N4_16  and  C6_18 
REMARK   11  A    between atoms: C9_24  and  N6_25 
ROOT
HETATM    1  C4  UNL     1      66.629  52.664  62.546  1.00  0.00     0.166 C 
ENDROOT
BRANCH   1   2
HETATM    2  N3  UNL     1      67.630  51.644  62.300  1.00  0.00    -0.361 N 
ATOM      3  H3  UNL     1      68.159  51.607  61.429  1.00  0.00     0.162 HD
BRANCH   2   4
HETATM    4  C3  UNL     1      67.836  50.681  63.361  1.00  0.00     0.192 C 
HETATM    5  S1  UNL     1      67.360  49.225  63.725  1.00  0.00    -0.039 SA
BRANCH   4   6
HETATM    6  N2  UNL     1      68.604  51.281  64.511  1.00  0.00    -0.241 N 
ATOM      7  H2  UNL     1      69.565  51.583  64.350  1.00  0.00     0.197 HD
BRANCH   6   8
HETATM    8  O1  UNL     1      68.128  51.425  65.631  1.00  0.00    -0.277 OA
BRANCH   8   9
HETATM    9  C2  UNL     1      67.714  51.928  66.716  1.00  0.00     0.228 C 
BRANCH   9  10
HETATM   10  C1  UNL     1      69.044  51.678  67.657  1.00  0.00     0.258 C 
BRANCH  10  11
HETATM   11  N1  UNL     1      69.981  52.661  67.078  1.00  0.00    -0.077 N 
ATOM     12  H13 UNL     1      70.162  52.560  66.080  1.00  0.00     0.274 HD
ATOM     13  H12 UNL     1      69.629  53.616  67.007  1.00  0.00     0.274 HD
ATOM     14  H11 UNL     1      70.790  52.534  67.687  1.00  0.00     0.274 HD
ENDBRANCH  10  11
ENDBRANCH   9  10
ENDBRANCH   8   9
ENDBRANCH   6   8
ENDBRANCH   4   6
ENDBRANCH   2   4
ENDBRANCH   1   2
BRANCH   1  15
HETATM   15  C5  UNL     1      67.489  53.910  62.315  1.00  0.00     0.075 C 
BRANCH  15  16
HETATM   16  N4  UNL     1      68.409  54.035  61.296  1.00  0.00    -0.392 N 
ATOM     17  H4  UNL     1      69.377  53.769  61.473  1.00  0.00     0.159 HD
BRANCH  16  18
HETATM   18  C6  UNL     1      68.066  54.509  60.038  1.00  0.00     0.138 C 
HETATM   19  C7  UNL     1      69.193  55.296  59.443  1.00  0.00     0.259 C 
HETATM   20  N5  UNL     1      68.897  56.675  59.789  1.00  0.00    -0.071 N 
HETATM   21  C8  UNL     1      67.448  56.761  59.480  1.00  0.00     0.267 C 
ATOM     22  H52 UNL     1      69.156  56.948  60.737  1.00  0.00     0.277 HD
ATOM     23  H51 UNL     1      69.481  57.372  59.327  1.00  0.00     0.277 HD
HETATM   24  C9  UNL     1      66.918  55.517  60.130  1.00  0.00     0.233 C 
BRANCH  24  25
HETATM   25  N6  UNL     1      65.699  55.090  59.498  1.00  0.00    -0.071 N 
ATOM     26  H63 UNL     1      65.700  54.078  59.371  1.00  0.00     0.274 HD
ATOM     27  H62 UNL     1      64.913  55.185  60.141  1.00  0.00     0.274 HD
ATOM     28  H61 UNL     1      65.495  55.559  58.616  1.00  0.00     0.274 HD
ENDBRANCH  24  25
ENDBRANCH  16  18
ENDBRANCH  15  16
ENDBRANCH   1  15
TORSDOF 11
ENDMDL
MODEL 4
REMARK VINA RESULT: -5.460521350      2.162      3.128
REMARK  11 active torsions:
REMARK  status: ('A' for Active; 'I' for Inactive)
REMARK    1  A    between atoms: N1_1  and  C1_5 
REMARK    2  A    between atoms: C1_5  and  C2_6 
REMARK    3  A    between atoms: C2_6  and  O1_7 
REMARK    4  A    between atoms: O1_7  and  N2_8 
REMARK    5  A    between atoms: N2_8  and  C3_10 
REMARK    6  A    between atoms: C3_10  and  N3_12 
REMARK    7  A    between atoms: N3_12  and  C4_14 
REMARK    8  A    between atoms: C4_14  and  C5_15 
REMARK    9  A    between atoms: C5_15  and  N4_16 
REMARK   10  A    between atoms: N4_16  and  C6_18 
REMARK   11  A    between atoms: C9_24  and  N6_25 
ROOT
HETATM    1  C4  UNL     1      67.151  53.022  63.102  1.00  0.00     0.166 C 
ENDROOT
BRANCH   1   2
HETATM    2  N3  UNL     1      68.364  52.777  63.858  1.00  0.00    -0.361 N 
ATOM      3  H3  UNL     1      69.274  53.113  63.541  1.00  0.00     0.162 HD
BRANCH   2   4
HETATM    4  C3  UNL     1      68.211  52.029  65.088  1.00  0.00     0.192 C 
HETATM    5  S1  UNL     1      68.898  51.956  66.502  1.00  0.00    -0.039 SA
BRANCH   4   6
HETATM    6  N2  UNL     1      67.216  50.907  64.933  1.00  0.00    -0.241 N 
ATOM      7  H2  UNL     1      66.268  51.047  65.281  1.00  0.00     0.197 HD
BRANCH   6   8
HETATM    8  O1  UNL     1      67.493  49.835  64.409  1.00  0.00    -0.277 OA
BRANCH   8   9
HETATM    9  C2  UNL     1      67.456  48.790  63.695  1.00  0.00     0.228 C 
BRANCH   9  10
HETATM   10  C1  UNL     1      67.187  49.479  62.221  1.00  0.00     0.258 C 
BRANCH  10  11
HETATM   11  N1  UNL     1      68.556  49.892  61.855  1.00  0.00    -0.077 N 
ATOM     12  H13 UNL     1      69.291  49.220  62.072  1.00  0.00     0.274 HD
ATOM     13  H12 UNL     1      68.755  49.920  60.855  1.00  0.00     0.274 HD
ATOM     14  H11 UNL     1      68.621  50.787  62.342  1.00  0.00     0.274 HD
ENDBRANCH  10  11
ENDBRANCH   9  10
ENDBRANCH   8   9
ENDBRANCH   6   8
ENDBRANCH   4   6
ENDBRANCH   2   4
ENDBRANCH   1   2
BRANCH   1  15
HETATM   15  C5  UNL     1      67.732  53.896  61.987  1.00  0.00     0.075 C 
BRANCH  15  16
HETATM   16  N4  UNL     1      68.121  53.418  60.754  1.00  0.00    -0.392 N 
ATOM     17  H4  UNL     1      68.276  52.416  60.643  1.00  0.00     0.159 HD
BRANCH  16  18
HETATM   18  C6  UNL     1      68.309  54.248  59.658  1.00  0.00     0.138 C 
HETATM   19  C7  UNL     1      69.721  54.163  59.166  1.00  0.00     0.259 C 
HETATM   20  N5  UNL     1      70.403  55.262  59.824  1.00  0.00    -0.071 N 
HETATM   21  C8  UNL     1      69.431  56.371  59.651  1.00  0.00     0.267 C 
ATOM     22  H52 UNL     1      70.687  55.081  60.787  1.00  0.00     0.277 HD
ATOM     23  H51 UNL     1      71.345  55.454  59.483  1.00  0.00     0.277 HD
HETATM   24  C9  UNL     1      68.141  55.717  60.054  1.00  0.00     0.233 C 
BRANCH  24  25
HETATM   25  N6  UNL     1      67.021  56.375  59.437  1.00  0.00    -0.071 N 
ATOM     26  H63 UNL     1      67.094  56.322  58.421  1.00  0.00     0.274 HD
ATOM     27  H62 UNL     1      66.169  55.834  59.579  1.00  0.00     0.274 HD
ATOM     28  H61 UNL     1      66.884  57.341  59.734  1.00  0.00     0.274 HD
ENDBRANCH  24  25
ENDBRANCH  16  18
ENDBRANCH  15  16
ENDBRANCH   1  15
TORSDOF 11
ENDMDL
MODEL 5
REMARK VINA RESULT: -5.345296877      3.477      7.430
REMARK  11 active torsions:
REMARK  status: ('A' for Active; 'I' for Inactive)
REMARK    1  A    between atoms: N1_1  and  C1_5 
REMARK    2  A    between atoms: C1_5  and  C2_6 
REMARK    3  A    between atoms: C2_6  and  O1_7 
REMARK    4  A    between atoms: O1_7  and  N2_8 
REMARK    5  A    between atoms: N2_8  and  C3_10 
REMARK    6  A    between atoms: C3_10  and  N3_12 
REMARK    7  A    between atoms: N3_12  and  C4_14 
REMARK    8  A    between atoms: C4_14  and  C5_15 
REMARK    9  A    between atoms: C5_15  and  N4_16 
REMARK   10  A    between atoms: N4_16  and  C6_18 
REMARK   11  A    between atoms: C9_24  and  N6_25 
ROOT
HETATM    1  C4  UNL     1      65.585  54.143  60.874  1.00  0.00     0.166 C 
ENDROOT
BRANCH   1   2
HETATM    2  N3  UNL     1      66.344  53.727  59.711  1.00  0.00    -0.361 N 
ATOM      3  H3  UNL     1      65.979  53.042  59.047  1.00  0.00     0.162 HD
BRANCH   2   4
HETATM    4  C3  UNL     1      67.646  54.335  59.543  1.00  0.00     0.192 C 
HETATM    5  S1  UNL     1      69.147  53.871  59.440  1.00  0.00    -0.039 SA
BRANCH   4   6
HETATM    6  N2  UNL     1      67.570  55.838  59.636  1.00  0.00    -0.241 N 
ATOM      7  H2  UNL     1      66.684  56.264  59.908  1.00  0.00     0.197 HD
BRANCH   6   8
HETATM    8  O1  UNL     1      68.522  56.572  59.400  1.00  0.00    -0.277 OA
BRANCH   8   9
HETATM    9  C2  UNL     1      69.262  57.481  58.921  1.00  0.00     0.228 C 
BRANCH   9  10
HETATM   10  C1  UNL     1      68.108  58.428  58.221  1.00  0.00     0.258 C 
BRANCH  10  11
HETATM   11  N1  UNL     1      68.801  58.838  56.983  1.00  0.00    -0.077 N 
ATOM     12  H13 UNL     1      69.819  58.822  57.023  1.00  0.00     0.274 HD
ATOM     13  H12 UNL     1      68.734  58.182  56.204  1.00  0.00     0.274 HD
ATOM     14  H11 UNL     1      68.381  59.754  56.824  1.00  0.00     0.274 HD
ENDBRANCH  10  11
ENDBRANCH   9  10
ENDBRANCH   8   9
ENDBRANCH   6   8
ENDBRANCH   4   6
ENDBRANCH   2   4
ENDBRANCH   1   2
BRANCH   1  15
HETATM   15  C5  UNL     1      66.371  53.399  61.957  1.00  0.00     0.075 C 
BRANCH  15  16
HETATM   16  N4  UNL     1      66.499  52.028  62.013  1.00  0.00    -0.392 N 
ATOM     17  H4  UNL     1      65.708  51.449  61.732  1.00  0.00     0.159 HD
BRANCH  16  18
HETATM   18  C6  UNL     1      67.664  51.405  62.437  1.00  0.00     0.138 C 
HETATM   19  C7  UNL     1      67.757  50.019  61.877  1.00  0.00     0.259 C 
HETATM   20  N5  UNL     1      67.199  49.168  62.913  1.00  0.00    -0.071 N 
HETATM   21  C8  UNL     1      67.843  49.715  64.134  1.00  0.00     0.267 C 
ATOM     22  H52 UNL     1      66.180  49.131  62.939  1.00  0.00     0.277 HD
ATOM     23  H51 UNL     1      67.327  48.167  62.767  1.00  0.00     0.277 HD
HETATM   24  C9  UNL     1      67.646  51.192  63.952  1.00  0.00     0.233 C 
BRANCH  24  25
HETATM   25  N6  UNL     1      68.649  51.932  64.669  1.00  0.00    -0.071 N 
ATOM     26  H63 UNL     1      69.266  52.417  64.017  1.00  0.00     0.274 HD
ATOM     27  H62 UNL     1      68.231  52.733  65.141  1.00  0.00     0.274 HD
ATOM     28  H61 UNL     1      69.195  51.376  65.327  1.00  0.00     0.274 HD
ENDBRANCH  24  25
ENDBRANCH  16  18
ENDBRANCH  15  16
ENDBRANCH   1  15
TORSDOF 11
ENDMDL
