MODEL 1
REMARK VINA RESULT: -6.528629959      0.000      0.000
REMARK  10 active torsions:
REMARK  status: ('A' for Active; 'I' for Inactive)
REMARK    1  A    between atoms: N1_1  and  C1_5 
REMARK    2  A    between atoms: C1_5  and  C2_6 
REMARK    3  A    between atoms: C2_6  and  C3_7 
REMARK    4  A    between atoms: C3_7  and  C4_8 
REMARK    5  A    between atoms: C4_8  and  S1_9 
REMARK    6  A    between atoms: S1_9  and  N2_10 
REMARK    7  A    between atoms: S1_9  and  C5_13 
REMARK    8  A    between atoms: C5_13  and  C6_14 
REMARK    9  A    between atoms: C8_21  and  N6_22 
REMARK   10  A    between atoms: C9_26  and  O1_27 
ROOT
HETATM    1  C6  UNL     1      67.472  52.100  62.162  1.00  0.00     0.126 C 
HETATM    2  N3  UNL     1      67.613  50.678  62.067  1.00  0.00    -0.357 N 
ATOM      3  H3  UNL     1      67.583  50.250  61.142  1.00  0.00     0.162 HD
HETATM    4  C7  UNL     1      67.790  49.849  63.179  1.00  0.00     0.186 C 
HETATM    5  N4  UNL     1      68.292  48.522  62.966  1.00  0.00    -0.064 NA
HETATM    6  N5  UNL     1      67.505  50.276  64.364  1.00  0.00    -0.335 N 
ATOM      7  H5  UNL     1      67.641  49.653  65.161  1.00  0.00     0.164 HD
HETATM    8  C8  UNL     1      66.996  51.614  64.595  1.00  0.00     0.314 C 
HETATM    9  C9  UNL     1      67.550  52.600  63.586  1.00  0.00     0.191 C 
ENDROOT
BRANCH   1  10
HETATM   10  C5  UNL     1      66.121  52.542  61.587  1.00  0.00     0.112 C 
BRANCH  10  11
HETATM   11  S1  UNL     1      66.468  53.565  60.204  1.00  0.00    -0.133 SA
BRANCH  11  12
HETATM   12  C4  UNL     1      68.108  53.686  59.753  1.00  0.00     0.084 C 
BRANCH  12  13
HETATM   13  C3  UNL     1      68.838  54.816  60.387  1.00  0.00     0.013 C 
BRANCH  13  14
HETATM   14  C2  UNL     1      69.803  55.485  59.482  1.00  0.00     0.028 C 
BRANCH  14  15
HETATM   15  C1  UNL     1      69.565  57.005  59.442  1.00  0.00     0.229 C 
BRANCH  15  16
HETATM   16  N1  UNL     1      68.167  57.292  59.285  1.00  0.00    -0.079 N 
ATOM     17  H13 UNL     1      67.893  57.314  58.302  1.00  0.00     0.274 HD
ATOM     18  H12 UNL     1      67.584  56.512  59.588  1.00  0.00     0.274 HD
ATOM     19  H11 UNL     1      67.923  58.157  59.766  1.00  0.00     0.274 HD
ENDBRANCH  15  16
ENDBRANCH  14  15
ENDBRANCH  13  14
ENDBRANCH  12  13
ENDBRANCH  11  12
BRANCH  11  20
HETATM   20  N2  UNL     1      65.388  54.784  59.909  1.00  0.00    -0.383 N 
ATOM     21  H22 UNL     1      64.731  54.627  59.144  1.00  0.00     0.163 HD
ATOM     22  H21 UNL     1      65.078  55.419  60.645  1.00  0.00     0.163 HD
ENDBRANCH  11  20
ENDBRANCH  10  11
ENDBRANCH   1  10
BRANCH   9  23
HETATM   23  O1  UNL     1      68.842  52.976  63.870  1.00  0.00    -0.390 OA
ATOM     24  H1  UNL     1      68.853  53.883  64.154  1.00  0.00     0.210 HD
ENDBRANCH   9  23
BRANCH   8  25
HETATM   25  N6  UNL     1      67.463  52.028  65.903  1.00  0.00    -0.056 N 
ATOM     26  H63 UNL     1      67.823  51.255  66.463  1.00  0.00     0.276 HD
ATOM     27  H62 UNL     1      68.323  52.575  65.867  1.00  0.00     0.276 HD
ATOM     28  H61 UNL     1      66.693  52.523  66.353  1.00  0.00     0.276 HD
ENDBRANCH   8  25
TORSDOF 10
ENDMDL
MODEL 2
REMARK VINA RESULT: -6.227217669      2.741      6.267
REMARK  10 active torsions:
REMARK  status: ('A' for Active; 'I' for Inactive)
REMARK    1  A    between atoms: N1_1  and  C1_5 
REMARK    2  A    between atoms: C1_5  and  C2_6 
REMARK    3  A    between atoms: C2_6  and  C3_7 
REMARK    4  A    between atoms: C3_7  and  C4_8 
REMARK    5  A    between atoms: C4_8  and  S1_9 
REMARK    6  A    between atoms: S1_9  and  N2_10 
REMARK    7  A    between atoms: S1_9  and  C5_13 
REMARK    8  A    between atoms: C5_13  and  C6_14 
REMARK    9  A    between atoms: C8_21  and  N6_22 
REMARK   10  A    between atoms: C9_26  and  O1_27 
ROOT
HETATM    1  C6  UNL     1      66.953  52.612  61.109  1.00  0.00     0.126 C 
HETATM    2  N3  UNL     1      68.214  52.885  60.488  1.00  0.00    -0.357 N 
ATOM      3  H3  UNL     1      68.992  52.252  60.674  1.00  0.00     0.162 HD
HETATM    4  C7  UNL     1      68.432  53.975  59.640  1.00  0.00     0.186 C 
HETATM    5  N4  UNL     1      69.584  53.954  58.786  1.00  0.00    -0.064 NA
HETATM    6  N5  UNL     1      67.611  54.972  59.635  1.00  0.00    -0.335 N 
ATOM      7  H5  UNL     1      67.790  55.757  59.008  1.00  0.00     0.164 HD
HETATM    8  C8  UNL     1      66.443  55.008  60.493  1.00  0.00     0.314 C 
HETATM    9  C9  UNL     1      65.890  53.619  60.736  1.00  0.00     0.191 C 
ENDROOT
BRANCH   1  10
HETATM   10  C5  UNL     1      67.095  52.629  62.636  1.00  0.00     0.112 C 
BRANCH  10  11
HETATM   11  S1  UNL     1      67.478  50.990  63.128  1.00  0.00    -0.133 SA
BRANCH  11  12
HETATM   12  C4  UNL     1      67.751  50.750  64.795  1.00  0.00     0.084 C 
BRANCH  12  13
HETATM   13  C3  UNL     1      68.517  51.841  65.455  1.00  0.00     0.013 C 
BRANCH  13  14
HETATM   14  C2  UNL     1      68.401  51.840  66.933  1.00  0.00     0.028 C 
BRANCH  14  15
HETATM   15  C1  UNL     1      69.719  52.283  67.594  1.00  0.00     0.229 C 
BRANCH  15  16
HETATM   16  N1  UNL     1      69.929  51.573  68.823  1.00  0.00    -0.079 N 
ATOM     17  H13 UNL     1      69.734  52.157  69.636  1.00  0.00     0.274 HD
ATOM     18  H12 UNL     1      69.218  50.858  68.975  1.00  0.00     0.274 HD
ATOM     19  H11 UNL     1      70.871  51.183  68.854  1.00  0.00     0.274 HD
ENDBRANCH  15  16
ENDBRANCH  14  15
ENDBRANCH  13  14
ENDBRANCH  12  13
ENDBRANCH  11  12
BRANCH  11  20
HETATM   20  N2  UNL     1      68.183  50.028  61.980  1.00  0.00    -0.383 N 
ATOM     21  H22 UNL     1      68.247  49.035  62.203  1.00  0.00     0.163 HD
ATOM     22  H21 UNL     1      68.156  50.267  60.989  1.00  0.00     0.163 HD
ENDBRANCH  11  20
ENDBRANCH  10  11
ENDBRANCH   1  10
BRANCH   9  23
HETATM   23  O1  UNL     1      65.165  53.146  59.667  1.00  0.00    -0.390 OA
ATOM     24  H1  UNL     1      64.849  53.877  59.149  1.00  0.00     0.210 HD
ENDBRANCH   9  23
BRANCH   8  25
HETATM   25  N6  UNL     1      65.423  55.763  59.794  1.00  0.00    -0.056 N 
ATOM     26  H63 UNL     1      64.475  55.511  60.075  1.00  0.00     0.276 HD
ATOM     27  H62 UNL     1      65.387  56.743  60.074  1.00  0.00     0.276 HD
ATOM     28  H61 UNL     1      65.589  55.640  58.795  1.00  0.00     0.276 HD
ENDBRANCH   8  25
TORSDOF 10
ENDMDL
MODEL 3
REMARK VINA RESULT: -6.132808971      1.209      1.254
REMARK  10 active torsions:
REMARK  status: ('A' for Active; 'I' for Inactive)
REMARK    1  A    between atoms: N1_1  and  C1_5 
REMARK    2  A    between atoms: C1_5  and  C2_6 
REMARK    3  A    between atoms: C2_6  and  C3_7 
REMARK    4  A    between atoms: C3_7  and  C4_8 
REMARK    5  A    between atoms: C4_8  and  S1_9 
REMARK    6  A    between atoms: S1_9  and  N2_10 
REMARK    7  A    between atoms: S1_9  and  C5_13 
REMARK    8  A    between atoms: C5_13  and  C6_14 
REMARK    9  A    between atoms: C8_21  and  N6_22 
REMARK   10  A    between atoms: C9_26  and  O1_27 
ROOT
HETATM    1  C6  UNL     1      67.312  52.255  62.044  1.00  0.00     0.126 C 
HETATM    2  N3  UNL     1      67.512  50.842  61.938  1.00  0.00    -0.357 N 
ATOM      3  H3  UNL     1      67.454  50.413  61.015  1.00  0.00     0.162 HD
HETATM    4  C7  UNL     1      67.782  50.020  63.037  1.00  0.00     0.186 C 
HETATM    5  N4  UNL     1      68.331  48.717  62.795  1.00  0.00    -0.064 NA
HETATM    6  N5  UNL     1      67.538  50.434  64.236  1.00  0.00    -0.335 N 
ATOM      7  H5  UNL     1      67.743  49.817  65.023  1.00  0.00     0.164 HD
HETATM    8  C8  UNL     1      66.983  51.747  64.497  1.00  0.00     0.314 C 
HETATM    9  C9  UNL     1      67.440  52.758  63.464  1.00  0.00     0.191 C 
ENDROOT
BRANCH   1  10
HETATM   10  C5  UNL     1      65.915  52.637  61.539  1.00  0.00     0.112 C 
BRANCH  10  11
HETATM   11  S1  UNL     1      66.142  53.550  60.059  1.00  0.00    -0.133 SA
BRANCH  11  12
HETATM   12  C4  UNL     1      66.824  55.104  60.232  1.00  0.00     0.084 C 
BRANCH  12  13
HETATM   13  C3  UNL     1      68.290  55.106  60.484  1.00  0.00     0.013 C 
BRANCH  13  14
HETATM   14  C2  UNL     1      69.009  56.210  59.803  1.00  0.00     0.028 C 
BRANCH  14  15
HETATM   15  C1  UNL     1      70.470  55.824  59.511  1.00  0.00     0.229 C 
BRANCH  15  16
HETATM   16  N1  UNL     1      70.617  54.397  59.479  1.00  0.00    -0.079 N 
ATOM     17  H13 UNL     1      70.041  53.941  60.188  1.00  0.00     0.274 HD
ATOM     18  H12 UNL     1      70.187  53.989  58.649  1.00  0.00     0.274 HD
ATOM     19  H11 UNL     1      71.599  54.136  59.564  1.00  0.00     0.274 HD
ENDBRANCH  15  16
ENDBRANCH  14  15
ENDBRANCH  13  14
ENDBRANCH  12  13
ENDBRANCH  11  12
BRANCH  11  20
HETATM   20  N2  UNL     1      65.124  53.178  58.808  1.00  0.00    -0.383 N 
ATOM     21  H22 UNL     1      65.560  53.058  57.894  1.00  0.00     0.163 HD
ATOM     22  H21 UNL     1      64.248  52.676  58.958  1.00  0.00     0.163 HD
ENDBRANCH  11  20
ENDBRANCH  10  11
ENDBRANCH   1  10
BRANCH   9  23
HETATM   23  O1  UNL     1      68.726  53.191  63.683  1.00  0.00    -0.390 OA
ATOM     24  H1  UNL     1      68.944  53.869  63.054  1.00  0.00     0.210 HD
ENDBRANCH   9  23
BRANCH   8  25
HETATM   25  N6  UNL     1      67.496  52.181  65.781  1.00  0.00    -0.056 N 
ATOM     26  H63 UNL     1      66.770  52.277  66.490  1.00  0.00     0.276 HD
ATOM     27  H62 UNL     1      68.048  51.466  66.254  1.00  0.00     0.276 HD
ATOM     28  H61 UNL     1      68.015  53.045  65.621  1.00  0.00     0.276 HD
ENDBRANCH   8  25
TORSDOF 10
ENDMDL
MODEL 4
REMARK VINA RESULT: -5.636634721      1.416      2.362
REMARK  10 active torsions:
REMARK  status: ('A' for Active; 'I' for Inactive)
REMARK    1  A    between atoms: N1_1  and  C1_5 
REMARK    2  A    between atoms: C1_5  and  C2_6 
REMARK    3  A    between atoms: C2_6  and  C3_7 
REMARK    4  A    between atoms: C3_7  and  C4_8 
REMARK    5  A    between atoms: C4_8  and  S1_9 
REMARK    6  A    between atoms: S1_9  and  N2_10 
REMARK    7  A    between atoms: S1_9  and  C5_13 
REMARK    8  A    between atoms: C5_13  and  C6_14 
REMARK    9  A    between atoms: C8_21  and  N6_22 
REMARK   10  A    between atoms: C9_26  and  O1_27 
ROOT
HETATM    1  C6  UNL     1      67.057  52.905  62.824  1.00  0.00     0.126 C 
HETATM    2  N3  UNL     1      67.428  52.770  64.200  1.00  0.00    -0.357 N 
ATOM      3  H3  UNL     1      67.331  53.581  64.810  1.00  0.00     0.162 HD
HETATM    4  C7  UNL     1      67.917  51.580  64.749  1.00  0.00     0.186 C 
HETATM    5  N4  UNL     1      67.901  51.432  66.176  1.00  0.00    -0.064 NA
HETATM    6  N5  UNL     1      68.370  50.645  63.982  1.00  0.00    -0.335 N 
ATOM      7  H5  UNL     1      68.723  49.786  64.404  1.00  0.00     0.164 HD
HETATM    8  C8  UNL     1      68.394  50.781  62.539  1.00  0.00     0.314 C 
HETATM    9  C9  UNL     1      67.237  51.625  62.042  1.00  0.00     0.191 C 
ENDROOT
BRANCH   1  10
HETATM   10  C5  UNL     1      67.905  53.988  62.146  1.00  0.00     0.112 C 
BRANCH  10  11
HETATM   11  S1  UNL     1      67.540  53.921  60.432  1.00  0.00    -0.133 SA
BRANCH  11  12
HETATM   12  C4  UNL     1      68.882  53.886  59.379  1.00  0.00     0.084 C 
BRANCH  12  13
HETATM   13  C3  UNL     1      70.010  54.763  59.792  1.00  0.00     0.013 C 
BRANCH  13  14
HETATM   14  C2  UNL     1      70.070  56.046  59.050  1.00  0.00     0.028 C 
BRANCH  14  15
HETATM   15  C1  UNL     1      69.344  57.165  59.818  1.00  0.00     0.229 C 
BRANCH  15  16
HETATM   16  N1  UNL     1      68.193  57.613  59.086  1.00  0.00    -0.079 N 
ATOM     17  H13 UNL     1      67.706  56.838  58.635  1.00  0.00     0.274 HD
ATOM     18  H12 UNL     1      67.445  57.921  59.707  1.00  0.00     0.274 HD
ATOM     19  H11 UNL     1      68.454  58.337  58.418  1.00  0.00     0.274 HD
ENDBRANCH  15  16
ENDBRANCH  14  15
ENDBRANCH  13  14
ENDBRANCH  12  13
ENDBRANCH  11  12
BRANCH  11  20
HETATM   20  N2  UNL     1      66.083  54.556  59.970  1.00  0.00    -0.383 N 
ATOM     21  H22 UNL     1      65.303  54.403  60.609  1.00  0.00     0.163 HD
ATOM     22  H21 UNL     1      66.021  55.381  59.373  1.00  0.00     0.163 HD
ENDBRANCH  11  20
ENDBRANCH  10  11
ENDBRANCH   1  10
BRANCH   9  23
HETATM   23  O1  UNL     1      66.050  50.931  62.018  1.00  0.00    -0.390 OA
ATOM     24  H1  UNL     1      65.900  50.530  62.866  1.00  0.00     0.210 HD
ENDBRANCH   9  23
BRANCH   8  25
HETATM   25  N6  UNL     1      68.230  49.453  61.982  1.00  0.00    -0.056 N 
ATOM     26  H63 UNL     1      68.725  49.326  61.100  1.00  0.00     0.276 HD
ATOM     27  H62 UNL     1      68.719  48.733  62.513  1.00  0.00     0.276 HD
ATOM     28  H61 UNL     1      67.227  49.281  61.906  1.00  0.00     0.276 HD
ENDBRANCH   8  25
TORSDOF 10
ENDMDL
MODEL 5
REMARK VINA RESULT: -5.344098903      1.292      1.301
REMARK  10 active torsions:
REMARK  status: ('A' for Active; 'I' for Inactive)
REMARK    1  A    between atoms: N1_1  and  C1_5 
REMARK    2  A    between atoms: C1_5  and  C2_6 
REMARK    3  A    between atoms: C2_6  and  C3_7 
REMARK    4  A    between atoms: C3_7  and  C4_8 
REMARK    5  A    between atoms: C4_8  and  S1_9 
REMARK    6  A    between atoms: S1_9  and  N2_10 
REMARK    7  A    between atoms: S1_9  and  C5_13 
REMARK    8  A    between atoms: C5_13  and  C6_14 
REMARK    9  A    between atoms: C8_21  and  N6_22 
REMARK   10  A    between atoms: C9_26  and  O1_27 
ROOT
HETATM    1  C6  UNL     1      67.882  51.993  62.497  1.00  0.00     0.126 C 
HETATM    2  N3  UNL     1      67.880  50.569  62.347  1.00  0.00    -0.357 N 
ATOM      3  H3  UNL     1      67.906  50.181  61.404  1.00  0.00     0.162 HD
HETATM    4  C7  UNL     1      67.844  49.684  63.429  1.00  0.00     0.186 C 
HETATM    5  N4  UNL     1      68.221  48.318  63.204  1.00  0.00    -0.064 NA
HETATM    6  N5  UNL     1      67.478  50.095  64.597  1.00  0.00    -0.335 N 
ATOM      7  H5  UNL     1      67.458  49.432  65.372  1.00  0.00     0.164 HD
HETATM    8  C8  UNL     1      67.093  51.472  64.840  1.00  0.00     0.314 C 
HETATM    9  C9  UNL     1      67.856  52.427  63.944  1.00  0.00     0.191 C 
ENDROOT
BRANCH   1  10
HETATM   10  C5  UNL     1      66.657  52.604  61.805  1.00  0.00     0.112 C 
BRANCH  10  11
HETATM   11  S1  UNL     1      67.261  53.623  60.511  1.00  0.00    -0.133 SA
BRANCH  11  12
HETATM   12  C4  UNL     1      66.296  54.968  60.101  1.00  0.00     0.084 C 
BRANCH  12  13
HETATM   13  C3  UNL     1      67.065  56.193  59.754  1.00  0.00     0.013 C 
BRANCH  13  14
HETATM   14  C2  UNL     1      68.525  56.062  59.977  1.00  0.00     0.028 C 
BRANCH  14  15
HETATM   15  C1  UNL     1      69.294  57.215  59.307  1.00  0.00     0.229 C 
BRANCH  15  16
HETATM   16  N1  UNL     1      68.381  58.153  58.717  1.00  0.00    -0.079 N 
ATOM     17  H13 UNL     1      68.587  59.111  59.001  1.00  0.00     0.274 HD
ATOM     18  H12 UNL     1      68.537  58.255  57.714  1.00  0.00     0.274 HD
ATOM     19  H11 UNL     1      67.417  57.894  58.927  1.00  0.00     0.274 HD
ENDBRANCH  15  16
ENDBRANCH  14  15
ENDBRANCH  13  14
ENDBRANCH  12  13
ENDBRANCH  11  12
BRANCH  11  20
HETATM   20  N2  UNL     1      68.252  52.889  59.406  1.00  0.00    -0.383 N 
ATOM     21  H22 UNL     1      67.903  52.847  58.449  1.00  0.00     0.163 HD
ATOM     22  H21 UNL     1      69.266  52.877  59.517  1.00  0.00     0.163 HD
ENDBRANCH  11  20
ENDBRANCH  10  11
ENDBRANCH   1  10
BRANCH   9  23
HETATM   23  O1  UNL     1      69.142  52.646  64.381  1.00  0.00    -0.390 OA
ATOM     24  H1  UNL     1      69.386  51.969  65.001  1.00  0.00     0.210 HD
ENDBRANCH   9  23
BRANCH   8  25
HETATM   25  N6  UNL     1      67.455  51.782  66.208  1.00  0.00    -0.056 N 
ATOM     26  H63 UNL     1      66.761  52.357  66.685  1.00  0.00     0.276 HD
ATOM     27  H62 UNL     1      67.403  50.974  66.829  1.00  0.00     0.276 HD
ATOM     28  H61 UNL     1      68.381  52.209  66.185  1.00  0.00     0.276 HD
ENDBRANCH   8  25
TORSDOF 10
ENDMDL
