MODEL 1
REMARK VINA RESULT: -7.545373700      0.000      0.000
REMARK  12 active torsions:
REMARK  status: ('A' for Active; 'I' for Inactive)
REMARK    1  A    between atoms: N1_1  and  C1_4 
REMARK    2  A    between atoms: C2_7  and  N3_8 
REMARK    3  A    between atoms: N3_8  and  C3_10 
REMARK    4  A    between atoms: C3_10  and  C4_11 
REMARK    5  A    between atoms: C4_11  and  C5_12 
REMARK    6  A    between atoms: C5_12  and  N4_13 
REMARK    7  A    between atoms: C6_19  and  N6_20 
REMARK    8  A    between atoms: N6_20  and  C7_22 
REMARK    9  A    between atoms: C7_22  and  C8_23 
REMARK   10  A    between atoms: C8_23  and  N7_24 
REMARK   11  A    between atoms: C8_23  and  C9_28 
REMARK   12  A    between atoms: C9_28  and  O1_29 
ROOT
HETATM    1  C1  UNL     1      67.286  50.083  63.587  1.00  0.00     0.705 A 
HETATM    2  N2  UNL     1      67.906  50.438  64.723  1.00  0.00    -0.022 N 
ATOM      3  H2  UNL     1      68.066  49.742  65.450  1.00  0.00     0.203 HD
HETATM    4  C2  UNL     1      68.318  51.701  64.907  1.00  0.00     0.707 A 
HETATM    5  N5  UNL     1      68.104  52.627  63.935  1.00  0.00    -0.022 N 
ATOM      6  H5  UNL     1      68.419  53.587  64.078  1.00  0.00     0.203 HD
HETATM    7  C6  UNL     1      67.484  52.298  62.786  1.00  0.00     0.707 A 
HETATM    8  N8  UNL     1      67.082  51.031  62.626  1.00  0.00    -0.022 N 
ATOM      9  H8  UNL     1      66.610  50.766  61.761  1.00  0.00     0.203 HD
ENDROOT
BRANCH   7  10
HETATM   10  N6  UNL     1      67.314  53.226  61.908  1.00  0.00    -0.223 N 
ATOM     11  H6  UNL     1      68.128  53.781  61.645  1.00  0.00     0.177 HD
BRANCH  10  12
HETATM   12  C7  UNL     1      66.073  53.536  61.276  1.00  0.00     0.173 C 
BRANCH  12  13
HETATM   13  C8  UNL     1      66.304  53.981  59.847  1.00  0.00     0.225 C 
BRANCH  13  14
HETATM   14  N7  UNL     1      65.783  55.334  59.745  1.00  0.00    -0.071 N 
ATOM     15  H73 UNL     1      64.796  55.369  59.489  1.00  0.00     0.274 HD
ATOM     16  H72 UNL     1      65.697  55.802  60.647  1.00  0.00     0.274 HD
ATOM     17  H71 UNL     1      66.388  55.829  59.089  1.00  0.00     0.274 HD
ENDBRANCH  13  14
BRANCH  13  18
HETATM   18  C9  UNL     1      67.792  53.939  59.561  1.00  0.00     0.198 C 
BRANCH  18  19
HETATM   19  O1  UNL     1      68.113  52.668  59.089  1.00  0.00    -0.399 OA
ATOM     20  H1  UNL     1      69.028  52.665  58.832  1.00  0.00     0.209 HD
ENDBRANCH  18  19
ENDBRANCH  13  18
ENDBRANCH  12  13
ENDBRANCH  10  12
ENDBRANCH   7  10
BRANCH   4  21
HETATM   21  N3  UNL     1      68.912  52.007  66.011  1.00  0.00    -0.225 N 
ATOM     22  H3  UNL     1      69.818  52.474  65.976  1.00  0.00     0.177 HD
BRANCH  21  23
HETATM   23  C3  UNL     1      68.325  51.705  67.290  1.00  0.00     0.139 C 
BRANCH  23  24
HETATM   24  C4  UNL     1      69.122  52.422  68.362  1.00  0.00     0.047 C 
BRANCH  24  25
HETATM   25  C5  UNL     1      70.218  51.480  68.821  1.00  0.00     0.231 C 
BRANCH  25  26
HETATM   26  N4  UNL     1      69.780  50.636  69.900  1.00  0.00    -0.079 N 
ATOM     27  H43 UNL     1      69.396  51.185  70.670  1.00  0.00     0.274 HD
ATOM     28  H42 UNL     1      68.943  50.111  69.645  1.00  0.00     0.274 HD
ATOM     29  H41 UNL     1      70.523  50.015  70.222  1.00  0.00     0.274 HD
ENDBRANCH  25  26
ENDBRANCH  24  25
ENDBRANCH  23  24
ENDBRANCH  21  23
ENDBRANCH   4  21
BRANCH   1  30
HETATM   30  N1  UNL     1      66.886  48.860  63.408  1.00  0.00    -0.234 N 
ATOM     31  H12 UNL     1      67.205  48.113  64.024  1.00  0.00     0.174 HD
ATOM     32  H11 UNL     1      66.248  48.630  62.647  1.00  0.00     0.174 HD
ENDBRANCH   1  30
TORSDOF 12
ENDMDL
MODEL 2
REMARK VINA RESULT: -7.296999372      2.418      6.773
REMARK  12 active torsions:
REMARK  status: ('A' for Active; 'I' for Inactive)
REMARK    1  A    between atoms: N1_1  and  C1_4 
REMARK    2  A    between atoms: C2_7  and  N3_8 
REMARK    3  A    between atoms: N3_8  and  C3_10 
REMARK    4  A    between atoms: C3_10  and  C4_11 
REMARK    5  A    between atoms: C4_11  and  C5_12 
REMARK    6  A    between atoms: C5_12  and  N4_13 
REMARK    7  A    between atoms: C6_19  and  N6_20 
REMARK    8  A    between atoms: N6_20  and  C7_22 
REMARK    9  A    between atoms: C7_22  and  C8_23 
REMARK   10  A    between atoms: C8_23  and  N7_24 
REMARK   11  A    between atoms: C8_23  and  C9_28 
REMARK   12  A    between atoms: C9_28  and  O1_29 
ROOT
HETATM    1  C1  UNL     1      67.308  50.241  63.596  1.00  0.00     0.705 A 
HETATM    2  N2  UNL     1      67.095  51.231  62.716  1.00  0.00    -0.022 N 
ATOM      3  H2  UNL     1      66.601  51.036  61.846  1.00  0.00     0.203 HD
HETATM    4  C2  UNL     1      67.525  52.474  62.974  1.00  0.00     0.707 A 
HETATM    5  N5  UNL     1      68.182  52.732  64.136  1.00  0.00    -0.022 N 
ATOM      6  H5  UNL     1      68.508  53.679  64.329  1.00  0.00     0.203 HD
HETATM    7  C6  UNL     1      68.411  51.757  65.035  1.00  0.00     0.707 A 
HETATM    8  N8  UNL     1      67.972  50.524  64.756  1.00  0.00    -0.022 N 
ATOM      9  H8  UNL     1      68.137  49.774  65.427  1.00  0.00     0.203 HD
ENDROOT
BRANCH   7  10
HETATM   10  N6  UNL     1      69.040  52.072  66.115  1.00  0.00    -0.223 N 
ATOM     11  H6  UNL     1      69.901  52.610  66.019  1.00  0.00     0.177 HD
BRANCH  10  12
HETATM   12  C7  UNL     1      68.623  51.724  67.435  1.00  0.00     0.173 C 
BRANCH  12  13
HETATM   13  C8  UNL     1      69.677  52.125  68.446  1.00  0.00     0.225 C 
BRANCH  13  14
HETATM   14  N7  UNL     1      69.818  51.007  69.363  1.00  0.00    -0.071 N 
ATOM     15  H73 UNL     1      69.439  51.195  70.290  1.00  0.00     0.274 HD
ATOM     16  H72 UNL     1      69.212  50.219  69.134  1.00  0.00     0.274 HD
ATOM     17  H71 UNL     1      70.809  50.763  69.374  1.00  0.00     0.274 HD
ENDBRANCH  13  14
BRANCH  13  18
HETATM   18  C9  UNL     1      70.973  52.402  67.709  1.00  0.00     0.198 C 
BRANCH  18  19
HETATM   19  O1  UNL     1      71.109  53.781  67.562  1.00  0.00    -0.399 OA
ATOM     20  H1  UNL     1      71.959  54.037  67.902  1.00  0.00     0.209 HD
ENDBRANCH  18  19
ENDBRANCH  13  18
ENDBRANCH  12  13
ENDBRANCH  10  12
ENDBRANCH   7  10
BRANCH   4  21
HETATM   21  N3  UNL     1      67.302  53.403  62.105  1.00  0.00    -0.225 N 
ATOM     22  H3  UNL     1      66.972  54.314  62.424  1.00  0.00     0.177 HD
BRANCH  21  23
HETATM   23  C3  UNL     1      67.507  53.182  60.698  1.00  0.00     0.139 C 
BRANCH  23  24
HETATM   24  C4  UNL     1      67.561  54.530  60.006  1.00  0.00     0.047 C 
BRANCH  24  25
HETATM   25  C5  UNL     1      68.997  55.013  60.061  1.00  0.00     0.231 C 
BRANCH  25  26
HETATM   26  N4  UNL     1      69.888  54.121  59.369  1.00  0.00    -0.079 N 
ATOM     27  H43 UNL     1      69.862  54.278  58.361  1.00  0.00     0.274 HD
ATOM     28  H42 UNL     1      70.864  54.361  59.543  1.00  0.00     0.274 HD
ATOM     29  H41 UNL     1      69.700  53.144  59.597  1.00  0.00     0.274 HD
ENDBRANCH  25  26
ENDBRANCH  24  25
ENDBRANCH  23  24
ENDBRANCH  21  23
ENDBRANCH   4  21
BRANCH   1  30
HETATM   30  N1  UNL     1      66.892  49.035  63.347  1.00  0.00    -0.234 N 
ATOM     31  H12 UNL     1      67.503  48.357  62.892  1.00  0.00     0.174 HD
ATOM     32  H11 UNL     1      65.947  48.751  63.602  1.00  0.00     0.174 HD
ENDBRANCH   1  30
TORSDOF 12
ENDMDL
MODEL 3
REMARK VINA RESULT: -7.247442844      0.988      1.151
REMARK  12 active torsions:
REMARK  status: ('A' for Active; 'I' for Inactive)
REMARK    1  A    between atoms: N1_1  and  C1_4 
REMARK    2  A    between atoms: C2_7  and  N3_8 
REMARK    3  A    between atoms: N3_8  and  C3_10 
REMARK    4  A    between atoms: C3_10  and  C4_11 
REMARK    5  A    between atoms: C4_11  and  C5_12 
REMARK    6  A    between atoms: C5_12  and  N4_13 
REMARK    7  A    between atoms: C6_19  and  N6_20 
REMARK    8  A    between atoms: N6_20  and  C7_22 
REMARK    9  A    between atoms: C7_22  and  C8_23 
REMARK   10  A    between atoms: C8_23  and  N7_24 
REMARK   11  A    between atoms: C8_23  and  C9_28 
REMARK   12  A    between atoms: C9_28  and  O1_29 
ROOT
HETATM    1  C1  UNL     1      67.311  49.967  63.630  1.00  0.00     0.705 A 
HETATM    2  N2  UNL     1      67.917  50.397  64.748  1.00  0.00    -0.022 N 
ATOM      3  H2  UNL     1      68.103  49.741  65.507  1.00  0.00     0.203 HD
HETATM    4  C2  UNL     1      68.281  51.681  64.873  1.00  0.00     0.707 A 
HETATM    5  N5  UNL     1      68.033  52.552  63.859  1.00  0.00    -0.022 N 
ATOM      6  H5  UNL     1      68.311  53.529  63.957  1.00  0.00     0.203 HD
HETATM    7  C6  UNL     1      67.426  52.148  62.727  1.00  0.00     0.707 A 
HETATM    8  N8  UNL     1      67.073  50.860  62.626  1.00  0.00    -0.022 N 
ATOM      9  H8  UNL     1      66.612  50.538  61.775  1.00  0.00     0.203 HD
ENDROOT
BRANCH   7  10
HETATM   10  N6  UNL     1      67.223  53.027  61.807  1.00  0.00    -0.223 N 
ATOM     11  H6  UNL     1      66.550  52.798  61.077  1.00  0.00     0.177 HD
BRANCH  10  12
HETATM   12  C7  UNL     1      67.868  54.298  61.734  1.00  0.00     0.173 C 
BRANCH  12  13
HETATM   13  C8  UNL     1      68.155  54.663  60.293  1.00  0.00     0.225 C 
BRANCH  13  14
HETATM   14  N7  UNL     1      69.588  54.510  60.105  1.00  0.00    -0.071 N 
ATOM     15  H73 UNL     1      70.089  55.398  60.080  1.00  0.00     0.274 HD
ATOM     16  H72 UNL     1      70.063  54.120  60.919  1.00  0.00     0.274 HD
ATOM     17  H71 UNL     1      69.713  53.953  59.260  1.00  0.00     0.274 HD
ENDBRANCH  13  14
BRANCH  13  18
HETATM   18  C9  UNL     1      67.377  53.725  59.392  1.00  0.00     0.198 C 
BRANCH  18  19
HETATM   19  O1  UNL     1      68.200  52.648  59.064  1.00  0.00    -0.399 OA
ATOM     20  H1  UNL     1      68.154  52.011  59.767  1.00  0.00     0.209 HD
ENDBRANCH  18  19
ENDBRANCH  13  18
ENDBRANCH  12  13
ENDBRANCH  10  12
ENDBRANCH   7  10
BRANCH   4  21
HETATM   21  N3  UNL     1      68.862  52.060  65.961  1.00  0.00    -0.225 N 
ATOM     22  H3  UNL     1      69.726  52.599  65.903  1.00  0.00     0.177 HD
BRANCH  21  23
HETATM   23  C3  UNL     1      68.318  51.741  67.255  1.00  0.00     0.139 C 
BRANCH  23  24
HETATM   24  C4  UNL     1      69.152  52.443  68.309  1.00  0.00     0.047 C 
BRANCH  24  25
HETATM   25  C5  UNL     1      70.227  51.473  68.760  1.00  0.00     0.231 C 
BRANCH  25  26
HETATM   26  N4  UNL     1      69.790  50.668  69.869  1.00  0.00    -0.079 N 
ATOM     27  H43 UNL     1      69.032  51.122  70.381  1.00  0.00     0.274 HD
ATOM     28  H42 UNL     1      69.293  49.836  69.552  1.00  0.00     0.274 HD
ATOM     29  H41 UNL     1      70.563  50.426  70.489  1.00  0.00     0.274 HD
ENDBRANCH  25  26
ENDBRANCH  24  25
ENDBRANCH  23  24
ENDBRANCH  21  23
ENDBRANCH   4  21
BRANCH   1  30
HETATM   30  N1  UNL     1      66.958  48.722  63.509  1.00  0.00    -0.234 N 
ATOM     31  H12 UNL     1      66.044  48.406  63.833  1.00  0.00     0.174 HD
ATOM     32  H11 UNL     1      67.591  48.043  63.088  1.00  0.00     0.174 HD
ENDBRANCH   1  30
TORSDOF 12
ENDMDL
MODEL 4
REMARK VINA RESULT: -7.106174993      1.144      1.247
REMARK  12 active torsions:
REMARK  status: ('A' for Active; 'I' for Inactive)
REMARK    1  A    between atoms: N1_1  and  C1_4 
REMARK    2  A    between atoms: C2_7  and  N3_8 
REMARK    3  A    between atoms: N3_8  and  C3_10 
REMARK    4  A    between atoms: C3_10  and  C4_11 
REMARK    5  A    between atoms: C4_11  and  C5_12 
REMARK    6  A    between atoms: C5_12  and  N4_13 
REMARK    7  A    between atoms: C6_19  and  N6_20 
REMARK    8  A    between atoms: N6_20  and  C7_22 
REMARK    9  A    between atoms: C7_22  and  C8_23 
REMARK   10  A    between atoms: C8_23  and  N7_24 
REMARK   11  A    between atoms: C8_23  and  C9_28 
REMARK   12  A    between atoms: C9_28  and  O1_29 
ROOT
HETATM    1  C1  UNL     1      67.295  49.846  63.630  1.00  0.00     0.705 A 
HETATM    2  N2  UNL     1      67.864  50.361  64.731  1.00  0.00    -0.022 N 
ATOM      3  H2  UNL     1      68.010  49.769  65.548  1.00  0.00     0.203 HD
HETATM    4  C2  UNL     1      68.244  51.646  64.763  1.00  0.00     0.707 A 
HETATM    5  N5  UNL     1      68.049  52.433  63.671  1.00  0.00    -0.022 N 
ATOM      6  H5  UNL     1      68.339  53.410  63.698  1.00  0.00     0.203 HD
HETATM    7  C6  UNL     1      67.480  51.943  62.554  1.00  0.00     0.707 A 
HETATM    8  N8  UNL     1      67.109  50.656  62.546  1.00  0.00    -0.022 N 
ATOM      9  H8  UNL     1      66.677  50.269  61.708  1.00  0.00     0.203 HD
ENDROOT
BRANCH   7  10
HETATM   10  N6  UNL     1      67.326  52.744  61.557  1.00  0.00    -0.223 N 
ATOM     11  H6  UNL     1      67.006  52.344  60.675  1.00  0.00     0.177 HD
BRANCH  10  12
HETATM   12  C7  UNL     1      67.569  54.150  61.593  1.00  0.00     0.173 C 
BRANCH  12  13
HETATM   13  C8  UNL     1      67.279  54.772  60.243  1.00  0.00     0.225 C 
BRANCH  13  14
HETATM   14  N7  UNL     1      67.704  53.808  59.243  1.00  0.00    -0.071 N 
ATOM     15  H73 UNL     1      68.513  54.115  58.703  1.00  0.00     0.274 HD
ATOM     16  H72 UNL     1      68.129  52.971  59.643  1.00  0.00     0.274 HD
ATOM     17  H71 UNL     1      66.886  53.608  58.666  1.00  0.00     0.274 HD
ENDBRANCH  13  14
BRANCH  13  18
HETATM   18  C9  UNL     1      65.791  55.048  60.147  1.00  0.00     0.198 C 
BRANCH  18  19
HETATM   19  O1  UNL     1      65.167  53.915  59.628  1.00  0.00    -0.399 OA
ATOM     20  H1  UNL     1      64.244  53.953  59.849  1.00  0.00     0.209 HD
ENDBRANCH  18  19
ENDBRANCH  13  18
ENDBRANCH  12  13
ENDBRANCH  10  12
ENDBRANCH   7  10
BRANCH   4  21
HETATM   21  N3  UNL     1      68.788  52.108  65.838  1.00  0.00    -0.225 N 
ATOM     22  H3  UNL     1      69.497  52.838  65.763  1.00  0.00     0.177 HD
BRANCH  21  23
HETATM   23  C3  UNL     1      68.419  51.616  67.140  1.00  0.00     0.139 C 
BRANCH  23  24
HETATM   24  C4  UNL     1      69.172  52.418  68.183  1.00  0.00     0.047 C 
BRANCH  24  25
HETATM   25  C5  UNL     1      70.250  51.520  68.758  1.00  0.00     0.231 C 
BRANCH  25  26
HETATM   26  N4  UNL     1      69.770  50.760  69.881  1.00  0.00    -0.079 N 
ATOM     27  H43 UNL     1      70.540  50.344  70.404  1.00  0.00     0.274 HD
ATOM     28  H42 UNL     1      69.393  51.369  70.607  1.00  0.00     0.274 HD
ATOM     29  H41 UNL     1      69.090  50.054  69.599  1.00  0.00     0.274 HD
ENDBRANCH  25  26
ENDBRANCH  24  25
ENDBRANCH  23  24
ENDBRANCH  21  23
ENDBRANCH   4  21
BRANCH   1  30
HETATM   30  N1  UNL     1      66.926  48.601  63.598  1.00  0.00    -0.234 N 
ATOM     31  H12 UNL     1      65.948  48.351  63.456  1.00  0.00     0.174 HD
ATOM     32  H11 UNL     1      67.611  47.855  63.717  1.00  0.00     0.174 HD
ENDBRANCH   1  30
TORSDOF 12
ENDMDL
MODEL 5
REMARK VINA RESULT: -7.011376867      2.850      6.966
REMARK  12 active torsions:
REMARK  status: ('A' for Active; 'I' for Inactive)
REMARK    1  A    between atoms: N1_1  and  C1_4 
REMARK    2  A    between atoms: C2_7  and  N3_8 
REMARK    3  A    between atoms: N3_8  and  C3_10 
REMARK    4  A    between atoms: C3_10  and  C4_11 
REMARK    5  A    between atoms: C4_11  and  C5_12 
REMARK    6  A    between atoms: C5_12  and  N4_13 
REMARK    7  A    between atoms: C6_19  and  N6_20 
REMARK    8  A    between atoms: N6_20  and  C7_22 
REMARK    9  A    between atoms: C7_22  and  C8_23 
REMARK   10  A    between atoms: C8_23  and  N7_24 
REMARK   11  A    between atoms: C8_23  and  C9_28 
REMARK   12  A    between atoms: C9_28  and  O1_29 
ROOT
HETATM    1  C1  UNL     1      67.237  50.088  63.809  1.00  0.00     0.705 A 
HETATM    2  N2  UNL     1      67.056  50.925  62.777  1.00  0.00    -0.022 N 
ATOM      3  H2  UNL     1      66.543  50.611  61.954  1.00  0.00     0.203 HD
HETATM    4  C2  UNL     1      67.545  52.173  62.819  1.00  0.00     0.707 A 
HETATM    5  N5  UNL     1      68.229  52.591  63.918  1.00  0.00    -0.022 N 
ATOM      6  H5  UNL     1      68.599  53.541  63.948  1.00  0.00     0.203 HD
HETATM    7  C6  UNL     1      68.425  51.771  64.968  1.00  0.00     0.707 A 
HETATM    8  N8  UNL     1      67.927  50.530  64.901  1.00  0.00    -0.022 N 
ATOM      9  H8  UNL     1      68.066  49.897  65.688  1.00  0.00     0.203 HD
ENDROOT
BRANCH   7  10
HETATM   10  N6  UNL     1      69.081  52.232  65.976  1.00  0.00    -0.223 N 
ATOM     11  H6  UNL     1      69.827  52.902  65.787  1.00  0.00     0.177 HD
BRANCH  10  12
HETATM   12  C7  UNL     1      68.844  51.878  67.338  1.00  0.00     0.173 C 
BRANCH  12  13
HETATM   13  C8  UNL     1      70.148  51.820  68.105  1.00  0.00     0.225 C 
BRANCH  13  14
HETATM   14  N7  UNL     1      70.902  53.004  67.729  1.00  0.00    -0.071 N 
ATOM     15  H73 UNL     1      71.724  52.796  67.161  1.00  0.00     0.274 HD
ATOM     16  H72 UNL     1      70.420  53.589  67.046  1.00  0.00     0.274 HD
ATOM     17  H71 UNL     1      71.124  53.494  68.595  1.00  0.00     0.274 HD
ENDBRANCH  13  14
BRANCH  13  18
HETATM   18  C9  UNL     1      69.838  51.811  69.589  1.00  0.00     0.198 C 
BRANCH  18  19
HETATM   19  O1  UNL     1      69.544  50.503  69.969  1.00  0.00    -0.399 OA
ATOM     20  H1  UNL     1      69.420  50.484  70.911  1.00  0.00     0.209 HD
ENDBRANCH  18  19
ENDBRANCH  13  18
ENDBRANCH  12  13
ENDBRANCH  10  12
ENDBRANCH   7  10
BRANCH   4  21
HETATM   21  N3  UNL     1      67.353  52.952  61.809  1.00  0.00    -0.225 N 
ATOM     22  H3  UNL     1      68.153  53.248  61.248  1.00  0.00     0.177 HD
BRANCH  21  23
HETATM   23  C3  UNL     1      66.037  53.414  61.454  1.00  0.00     0.139 C 
BRANCH  23  24
HETATM   24  C4  UNL     1      66.172  54.423  60.331  1.00  0.00     0.047 C 
BRANCH  24  25
HETATM   25  C5  UNL     1      67.622  54.423  59.891  1.00  0.00     0.231 C 
BRANCH  25  26
HETATM   26  N4  UNL     1      68.161  55.755  59.823  1.00  0.00    -0.079 N 
ATOM     27  H43 UNL     1      69.169  55.741  59.669  1.00  0.00     0.274 HD
ATOM     28  H42 UNL     1      67.874  56.229  58.967  1.00  0.00     0.274 HD
ATOM     29  H41 UNL     1      67.920  56.304  60.649  1.00  0.00     0.274 HD
ENDBRANCH  25  26
ENDBRANCH  24  25
ENDBRANCH  23  24
ENDBRANCH  21  23
ENDBRANCH   4  21
BRANCH   1  30
HETATM   30  N1  UNL     1      66.764  48.878  63.768  1.00  0.00    -0.234 N 
ATOM     31  H12 UNL     1      65.758  48.711  63.794  1.00  0.00     0.174 HD
ATOM     32  H11 UNL     1      67.393  48.078  63.710  1.00  0.00     0.174 HD
ENDBRANCH   1  30
TORSDOF 12
ENDMDL
