MODEL 1
REMARK VINA RESULT: -7.015143501      0.000      0.000
REMARK  9 active torsions:
REMARK  status: ('A' for Active; 'I' for Inactive)
REMARK    1  A    between atoms: S1_2  and  C2_4 
REMARK    2  A    between atoms: C3_7  and  N2_8 
REMARK    3  A    between atoms: C4_13  and  N4_14 
REMARK    4  A    between atoms: N4_14  and  C5_16 
REMARK    5  A    between atoms: C5_16  and  C6_17 
REMARK    6  A    between atoms: C6_17  and  N5_18 
REMARK    7  A    between atoms: N5_18  and  C7_21 
REMARK    8  A    between atoms: C7_21  and  C8_22 
REMARK    9  A    between atoms: C8_22  and  N6_23 
ROOT
HETATM    1  C2  UNL     1      67.546  52.160  62.363  1.00  0.00     0.203 A 
HETATM    2  N1  UNL     1      67.176  50.891  62.192  1.00  0.00    -0.167 N 
ATOM      3  H1  UNL     1      66.786  50.592  61.299  1.00  0.00     0.186 HD
HETATM    4  C3  UNL     1      67.316  50.000  63.199  1.00  0.00     0.692 A 
HETATM    5  N3  UNL     1      67.841  50.426  64.383  1.00  0.00    -0.023 N 
ATOM      6  H3  UNL     1      67.953  49.767  65.153  1.00  0.00     0.203 HD
HETATM    7  C4  UNL     1      68.206  51.696  64.541  1.00  0.00     0.694 A 
HETATM    8  N7  UNL     1      68.062  52.575  63.531  1.00  0.00    -0.167 N 
ATOM      9  H7  UNL     1      68.343  53.548  63.653  1.00  0.00     0.186 HD
ENDROOT
BRANCH   7  10
HETATM   10  N4  UNL     1      68.685  52.099  65.654  1.00  0.00    -0.224 N 
ATOM     11  H4  UNL     1      69.378  52.846  65.613  1.00  0.00     0.177 HD
BRANCH  10  12
HETATM   12  C5  UNL     1      68.343  51.603  66.957  1.00  0.00     0.165 C 
BRANCH  12  13
HETATM   13  C6  UNL     1      69.314  51.948  68.028  1.00  0.00     0.252 C 
BRANCH  13  14
HETATM   14  N5  UNL     1      70.593  52.363  67.570  1.00  0.00    -0.072 N 
ATOM     15  H52 UNL     1      71.220  51.563  67.490  1.00  0.00     0.277 HD
ATOM     16  H51 UNL     1      70.547  52.646  66.592  1.00  0.00     0.277 HD
BRANCH  14  17
HETATM   17  C7  UNL     1      71.196  53.397  68.365  1.00  0.00     0.259 C 
BRANCH  17  18
HETATM   18  C8  UNL     1      72.235  54.166  67.560  1.00  0.00     0.257 C 
BRANCH  18  19
HETATM   19  N6  UNL     1      73.195  53.238  66.963  1.00  0.00    -0.078 N 
ATOM     20  H63 UNL     1      73.566  52.580  67.648  1.00  0.00     0.274 HD
ATOM     21  H62 UNL     1      72.742  52.569  66.341  1.00  0.00     0.274 HD
ATOM     22  H61 UNL     1      73.936  53.756  66.491  1.00  0.00     0.274 HD
ENDBRANCH  18  19
ENDBRANCH  17  18
ENDBRANCH  14  17
ENDBRANCH  13  14
ENDBRANCH  12  13
ENDBRANCH  10  12
ENDBRANCH   7  10
BRANCH   4  23
HETATM   23  N2  UNL     1      66.970  48.765  63.069  1.00  0.00    -0.234 N 
ATOM     24  H22 UNL     1      67.343  48.220  62.291  1.00  0.00     0.174 HD
ATOM     25  H21 UNL     1      66.331  48.312  63.722  1.00  0.00     0.174 HD
ENDBRANCH   4  23
BRANCH   1  26
HETATM   26  S1  UNL     1      67.359  53.333  61.072  1.00  0.00     0.081 S 
HETATM   27  C1  UNL     1      65.674  53.886  61.004  1.00  0.00     0.136 C 
HETATM   28  O1  UNL     1      67.887  52.660  59.641  1.00  0.00    -0.250 OA
ENDBRANCH   1  26
TORSDOF 9
ENDMDL
MODEL 2
REMARK VINA RESULT: -6.744215329      2.637      3.935
REMARK  9 active torsions:
REMARK  status: ('A' for Active; 'I' for Inactive)
REMARK    1  A    between atoms: S1_2  and  C2_4 
REMARK    2  A    between atoms: C3_7  and  N2_8 
REMARK    3  A    between atoms: C4_13  and  N4_14 
REMARK    4  A    between atoms: N4_14  and  C5_16 
REMARK    5  A    between atoms: C5_16  and  C6_17 
REMARK    6  A    between atoms: C6_17  and  N5_18 
REMARK    7  A    between atoms: N5_18  and  C7_21 
REMARK    8  A    between atoms: C7_21  and  C8_22 
REMARK    9  A    between atoms: C8_22  and  N6_23 
ROOT
HETATM    1  C2  UNL     1      68.313  54.582  60.347  1.00  0.00     0.203 A 
HETATM    2  N1  UNL     1      67.266  54.420  59.540  1.00  0.00    -0.167 N 
ATOM      3  H1  UNL     1      67.299  54.779  58.586  1.00  0.00     0.186 HD
HETATM    4  C3  UNL     1      66.160  53.781  59.981  1.00  0.00     0.692 A 
HETATM    5  N3  UNL     1      66.141  53.310  61.260  1.00  0.00    -0.023 N 
ATOM      6  H3  UNL     1      65.314  52.826  61.609  1.00  0.00     0.203 HD
HETATM    7  C4  UNL     1      67.193  53.479  62.056  1.00  0.00     0.694 A 
HETATM    8  N7  UNL     1      68.290  54.117  61.607  1.00  0.00    -0.167 N 
ATOM      9  H7  UNL     1      69.097  54.246  62.218  1.00  0.00     0.186 HD
ENDROOT
BRANCH   7  10
HETATM   10  N4  UNL     1      67.172  53.050  63.259  1.00  0.00    -0.224 N 
ATOM     11  H4  UNL     1      67.186  53.752  63.998  1.00  0.00     0.177 HD
BRANCH  10  12
HETATM   12  C5  UNL     1      67.130  51.675  63.672  1.00  0.00     0.165 C 
BRANCH  12  13
HETATM   13  C6  UNL     1      68.310  51.224  64.453  1.00  0.00     0.252 C 
BRANCH  13  14
HETATM   14  N5  UNL     1      68.717  52.104  65.491  1.00  0.00    -0.072 N 
ATOM     15  H52 UNL     1      69.731  52.213  65.490  1.00  0.00     0.277 HD
ATOM     16  H51 UNL     1      68.439  53.062  65.277  1.00  0.00     0.277 HD
BRANCH  14  17
HETATM   17  C7  UNL     1      68.253  51.727  66.798  1.00  0.00     0.259 C 
BRANCH  17  18
HETATM   18  C8  UNL     1      69.274  52.100  67.865  1.00  0.00     0.257 C 
BRANCH  18  19
HETATM   19  N6  UNL     1      70.383  52.839  67.264  1.00  0.00    -0.078 N 
ATOM     20  H63 UNL     1      70.458  52.664  66.262  1.00  0.00     0.274 HD
ATOM     21  H62 UNL     1      70.199  53.841  67.228  1.00  0.00     0.274 HD
ATOM     22  H61 UNL     1      71.252  52.627  67.754  1.00  0.00     0.274 HD
ENDBRANCH  18  19
ENDBRANCH  17  18
ENDBRANCH  14  17
ENDBRANCH  13  14
ENDBRANCH  12  13
ENDBRANCH  10  12
ENDBRANCH   7  10
BRANCH   4  23
HETATM   23  N2  UNL     1      65.128  53.604  59.228  1.00  0.00    -0.234 N 
ATOM     24  H22 UNL     1      64.219  53.949  59.536  1.00  0.00     0.174 HD
ATOM     25  H21 UNL     1      65.192  53.128  58.328  1.00  0.00     0.174 HD
ENDBRANCH   4  23
BRANCH   1  26
HETATM   26  S1  UNL     1      69.752  55.421  59.796  1.00  0.00     0.081 S 
HETATM   27  C1  UNL     1      69.365  57.120  59.464  1.00  0.00     0.136 C 
HETATM   28  O1  UNL     1      70.379  54.620  58.475  1.00  0.00    -0.250 OA
ENDBRANCH   1  26
TORSDOF 9
ENDMDL
MODEL 3
REMARK VINA RESULT: -6.572356957      2.854      4.081
REMARK  9 active torsions:
REMARK  status: ('A' for Active; 'I' for Inactive)
REMARK    1  A    between atoms: S1_2  and  C2_4 
REMARK    2  A    between atoms: C3_7  and  N2_8 
REMARK    3  A    between atoms: C4_13  and  N4_14 
REMARK    4  A    between atoms: N4_14  and  C5_16 
REMARK    5  A    between atoms: C5_16  and  C6_17 
REMARK    6  A    between atoms: C6_17  and  N5_18 
REMARK    7  A    between atoms: N5_18  and  C7_21 
REMARK    8  A    between atoms: C7_21  and  C8_22 
REMARK    9  A    between atoms: C8_22  and  N6_23 
ROOT
HETATM    1  C2  UNL     1      68.233  54.905  60.128  1.00  0.00     0.203 A 
HETATM    2  N1  UNL     1      67.140  54.562  59.450  1.00  0.00    -0.167 N 
ATOM      3  H1  UNL     1      67.007  54.898  58.496  1.00  0.00     0.186 HD
HETATM    4  C3  UNL     1      66.205  53.770  60.022  1.00  0.00     0.692 A 
HETATM    5  N3  UNL     1      66.407  53.334  61.298  1.00  0.00    -0.023 N 
ATOM      6  H3  UNL     1      65.712  52.736  61.744  1.00  0.00     0.203 HD
HETATM    7  C4  UNL     1      67.503  53.686  61.964  1.00  0.00     0.694 A 
HETATM    8  N7  UNL     1      68.428  54.475  61.386  1.00  0.00    -0.167 N 
ATOM      9  H7  UNL     1      69.268  54.744  61.897  1.00  0.00     0.186 HD
ENDROOT
BRANCH   7  10
HETATM   10  N4  UNL     1      67.687  53.289  63.165  1.00  0.00    -0.224 N 
ATOM     11  H4  UNL     1      68.211  53.911  63.779  1.00  0.00     0.177 HD
BRANCH  10  12
HETATM   12  C5  UNL     1      67.227  52.053  63.732  1.00  0.00     0.165 C 
BRANCH  12  13
HETATM   13  C6  UNL     1      68.240  51.325  64.540  1.00  0.00     0.252 C 
BRANCH  13  14
HETATM   14  N5  UNL     1      68.845  52.087  65.575  1.00  0.00    -0.072 N 
ATOM     15  H52 UNL     1      69.860  52.003  65.534  1.00  0.00     0.277 HD
ATOM     16  H51 UNL     1      68.746  53.085  65.389  1.00  0.00     0.277 HD
BRANCH  14  17
HETATM   17  C7  UNL     1      68.367  51.772  66.894  1.00  0.00     0.259 C 
BRANCH  17  18
HETATM   18  C8  UNL     1      69.423  52.091  67.944  1.00  0.00     0.257 C 
BRANCH  18  19
HETATM   19  N6  UNL     1      70.594  52.696  67.312  1.00  0.00    -0.078 N 
ATOM     20  H63 UNL     1      70.715  52.378  66.351  1.00  0.00     0.274 HD
ATOM     21  H62 UNL     1      70.458  53.689  67.126  1.00  0.00     0.274 HD
ATOM     22  H61 UNL     1      71.426  52.524  67.878  1.00  0.00     0.274 HD
ENDBRANCH  18  19
ENDBRANCH  17  18
ENDBRANCH  14  17
ENDBRANCH  13  14
ENDBRANCH  12  13
ENDBRANCH  10  12
ENDBRANCH   7  10
BRANCH   4  23
HETATM   23  N2  UNL     1      65.135  53.415  59.395  1.00  0.00    -0.234 N 
ATOM     24  H22 UNL     1      64.378  54.089  59.277  1.00  0.00     0.174 HD
ATOM     25  H21 UNL     1      65.020  52.477  59.011  1.00  0.00     0.174 HD
ENDBRANCH   4  23
BRANCH   1  26
HETATM   26  S1  UNL     1      69.449  55.944  59.407  1.00  0.00     0.081 S 
HETATM   27  C1  UNL     1      71.069  55.340  59.809  1.00  0.00     0.136 C 
HETATM   28  O1  UNL     1      69.192  57.514  59.904  1.00  0.00    -0.250 OA
ENDBRANCH   1  26
TORSDOF 9
ENDMDL
MODEL 4
REMARK VINA RESULT: -6.464433812      3.529      6.096
REMARK  9 active torsions:
REMARK  status: ('A' for Active; 'I' for Inactive)
REMARK    1  A    between atoms: S1_2  and  C2_4 
REMARK    2  A    between atoms: C3_7  and  N2_8 
REMARK    3  A    between atoms: C4_13  and  N4_14 
REMARK    4  A    between atoms: N4_14  and  C5_16 
REMARK    5  A    between atoms: C5_16  and  C6_17 
REMARK    6  A    between atoms: C6_17  and  N5_18 
REMARK    7  A    between atoms: N5_18  and  C7_21 
REMARK    8  A    between atoms: C7_21  and  C8_22 
REMARK    9  A    between atoms: C8_22  and  N6_23 
ROOT
HETATM    1  C2  UNL     1      68.063  51.689  65.283  1.00  0.00     0.203 A 
HETATM    2  N1  UNL     1      67.934  50.411  64.932  1.00  0.00    -0.167 N 
ATOM      3  H1  UNL     1      67.972  49.682  65.645  1.00  0.00     0.186 HD
HETATM    4  C3  UNL     1      67.754  50.076  63.635  1.00  0.00     0.692 A 
HETATM    5  N3  UNL     1      67.708  51.069  62.702  1.00  0.00    -0.023 N 
ATOM      6  H3  UNL     1      67.573  50.834  61.719  1.00  0.00     0.203 HD
HETATM    7  C4  UNL     1      67.838  52.342  63.066  1.00  0.00     0.694 A 
HETATM    8  N7  UNL     1      68.017  52.665  64.361  1.00  0.00    -0.167 N 
ATOM      9  H7  UNL     1      68.116  53.641  64.639  1.00  0.00     0.186 HD
ENDROOT
BRANCH   7  10
HETATM   10  N4  UNL     1      67.808  53.273  62.191  1.00  0.00    -0.224 N 
ATOM     11  H4  UNL     1      68.495  54.019  62.290  1.00  0.00     0.177 HD
BRANCH  10  12
HETATM   12  C5  UNL     1      66.900  53.369  61.083  1.00  0.00     0.165 C 
BRANCH  12  13
HETATM   13  C6  UNL     1      67.524  53.795  59.803  1.00  0.00     0.252 C 
BRANCH  13  14
HETATM   14  N5  UNL     1      68.940  53.693  59.762  1.00  0.00    -0.072 N 
ATOM     15  H52 UNL     1      69.284  53.162  60.561  1.00  0.00     0.277 HD
ATOM     16  H51 UNL     1      69.232  53.076  59.005  1.00  0.00     0.277 HD
BRANCH  14  17
HETATM   17  C7  UNL     1      69.619  54.957  59.670  1.00  0.00     0.259 C 
BRANCH  17  18
HETATM   18  C8  UNL     1      68.627  56.111  59.725  1.00  0.00     0.257 C 
BRANCH  18  19
HETATM   19  N6  UNL     1      69.340  57.388  59.720  1.00  0.00    -0.078 N 
ATOM     20  H63 UNL     1      68.700  58.181  59.703  1.00  0.00     0.274 HD
ATOM     21  H62 UNL     1      69.789  57.577  60.616  1.00  0.00     0.274 HD
ATOM     22  H61 UNL     1      70.004  57.416  58.946  1.00  0.00     0.274 HD
ENDBRANCH  18  19
ENDBRANCH  17  18
ENDBRANCH  14  17
ENDBRANCH  13  14
ENDBRANCH  12  13
ENDBRANCH  10  12
ENDBRANCH   7  10
BRANCH   4  23
HETATM   23  N2  UNL     1      67.625  48.849  63.259  1.00  0.00    -0.234 N 
ATOM     24  H22 UNL     1      67.933  48.578  62.325  1.00  0.00     0.174 HD
ATOM     25  H21 UNL     1      67.221  48.138  63.868  1.00  0.00     0.174 HD
ENDBRANCH   4  23
BRANCH   1  26
HETATM   26  S1  UNL     1      68.310  52.141  66.960  1.00  0.00     0.081 S 
HETATM   27  C1  UNL     1      70.048  52.241  67.304  1.00  0.00     0.136 C 
HETATM   28  O1  UNL     1      67.508  51.058  67.942  1.00  0.00    -0.250 OA
ENDBRANCH   1  26
TORSDOF 9
ENDMDL
MODEL 5
REMARK VINA RESULT: -6.003226257      3.392      5.037
REMARK  9 active torsions:
REMARK  status: ('A' for Active; 'I' for Inactive)
REMARK    1  A    between atoms: S1_2  and  C2_4 
REMARK    2  A    between atoms: C3_7  and  N2_8 
REMARK    3  A    between atoms: C4_13  and  N4_14 
REMARK    4  A    between atoms: N4_14  and  C5_16 
REMARK    5  A    between atoms: C5_16  and  C6_17 
REMARK    6  A    between atoms: C6_17  and  N5_18 
REMARK    7  A    between atoms: N5_18  and  C7_21 
REMARK    8  A    between atoms: C7_21  and  C8_22 
REMARK    9  A    between atoms: C8_22  and  N6_23 
ROOT
HETATM    1  C2  UNL     1      68.250  54.541  60.320  1.00  0.00     0.203 A 
HETATM    2  N1  UNL     1      67.223  54.380  59.486  1.00  0.00    -0.167 N 
ATOM      3  H1  UNL     1      67.278  54.747  58.535  1.00  0.00     0.186 HD
HETATM    4  C3  UNL     1      66.109  53.734  59.895  1.00  0.00     0.692 A 
HETATM    5  N3  UNL     1      66.060  53.255  61.170  1.00  0.00    -0.023 N 
ATOM      6  H3  UNL     1      65.227  52.765  61.496  1.00  0.00     0.203 HD
HETATM    7  C4  UNL     1      67.092  53.422  61.993  1.00  0.00     0.694 A 
HETATM    8  N7  UNL     1      68.198  54.067  61.575  1.00  0.00    -0.167 N 
ATOM      9  H7  UNL     1      68.989  54.195  62.206  1.00  0.00     0.186 HD
ENDROOT
BRANCH   7  10
HETATM   10  N4  UNL     1      67.043  52.985  63.192  1.00  0.00    -0.224 N 
ATOM     11  H4  UNL     1      66.118  52.785  63.572  1.00  0.00     0.177 HD
BRANCH  10  12
HETATM   12  C5  UNL     1      68.164  52.747  64.057  1.00  0.00     0.165 C 
BRANCH  12  13
HETATM   13  C6  UNL     1      68.186  51.403  64.691  1.00  0.00     0.252 C 
BRANCH  13  14
HETATM   14  N5  UNL     1      67.103  50.554  64.339  1.00  0.00    -0.072 N 
ATOM     15  H52 UNL     1      66.449  50.470  65.117  1.00  0.00     0.277 HD
ATOM     16  H51 UNL     1      66.500  51.009  63.654  1.00  0.00     0.277 HD
BRANCH  14  17
HETATM   17  C7  UNL     1      67.501  49.254  63.874  1.00  0.00     0.259 C 
BRANCH  17  18
HETATM   18  C8  UNL     1      67.358  49.151  62.362  1.00  0.00     0.257 C 
BRANCH  18  19
HETATM   19  N6  UNL     1      68.451  49.863  61.703  1.00  0.00    -0.078 N 
ATOM     20  H63 UNL     1      68.167  50.247  60.802  1.00  0.00     0.274 HD
ATOM     21  H62 UNL     1      68.674  50.739  62.175  1.00  0.00     0.274 HD
ATOM     22  H61 UNL     1      69.266  49.256  61.620  1.00  0.00     0.274 HD
ENDBRANCH  18  19
ENDBRANCH  17  18
ENDBRANCH  14  17
ENDBRANCH  13  14
ENDBRANCH  12  13
ENDBRANCH  10  12
ENDBRANCH   7  10
BRANCH   4  23
HETATM   23  N2  UNL     1      65.097  53.559  59.116  1.00  0.00    -0.234 N 
ATOM     24  H22 UNL     1      64.288  53.038  59.455  1.00  0.00     0.174 HD
ATOM     25  H21 UNL     1      65.079  53.926  58.164  1.00  0.00     0.174 HD
ENDBRANCH   4  23
BRANCH   1  26
HETATM   26  S1  UNL     1      69.698  55.389  59.809  1.00  0.00     0.081 S 
HETATM   27  C1  UNL     1      69.316  57.092  59.491  1.00  0.00     0.136 C 
HETATM   28  O1  UNL     1      70.354  54.606  58.491  1.00  0.00    -0.250 OA
ENDBRANCH   1  26
TORSDOF 9
ENDMDL
