MODEL 1
REMARK VINA RESULT: -7.455158933      0.000      0.000
REMARK  2 active torsions:
REMARK  status: ('A' for Active; 'I' for Inactive)
REMARK    1  A    between atoms: C6_10  and  O1_11 
REMARK    2  A    between atoms: O1_11  and  C7_12 
ROOT
HETATM    1  C1  UNL     1      -6.562   4.514  14.896  1.00  0.00     0.030 C 
HETATM    2  C2  UNL     1      -5.914   3.531  14.291  1.00  0.00     0.027 A 
HETATM    3  C3  UNL     1      -5.249   3.726  13.008  1.00  0.00     0.064 A 
HETATM    4  N1  UNL     1      -5.301   4.897  12.457  1.00  0.00    -0.397 N 
ATOM      5  H11 UNL     1      -4.836   5.033  11.560  1.00  0.00     0.156 HD
ATOM      6  H12 UNL     1      -5.788   5.686  12.883  1.00  0.00     0.156 HD
HETATM    7  C4  UNL     1      -4.553   2.599  12.399  1.00  0.00     0.122 A 
HETATM    8  C5  UNL     1      -3.896   2.811  11.120  1.00  0.00     0.106 C 
HETATM    9  N2  UNL     1      -3.360   2.993  10.111  1.00  0.00    -0.191 NA
HETATM   10  C6  UNL     1      -4.487   1.395  12.943  1.00  0.00     0.168 A 
HETATM   11  N4  UNL     1      -5.129   1.182  14.195  1.00  0.00    -0.321 N 
ATOM     12  H4  UNL     1      -5.077   0.254  14.615  1.00  0.00     0.169 HD
HETATM   13  C9  UNL     1      -5.833   2.190  14.884  1.00  0.00     0.128 A 
HETATM   14  N5  UNL     1      -6.423   2.028  16.016  1.00  0.00    -0.279 N 
ATOM     15  H5  UNL     1      -6.916   2.801  16.463  1.00  0.00     0.179 HD
HETATM   16  C10 UNL     1      -6.371   0.770  16.614  1.00  0.00     0.183 C 
HETATM   17  N6  UNL     1      -6.331  -0.282  17.133  1.00  0.00    -0.172 NA
ENDROOT
BRANCH  10  18
HETATM   18  O1  UNL     1      -3.809   0.375  12.306  1.00  0.00    -0.320 OA
BRANCH  18  19
HETATM   19  C7  UNL     1      -4.521  -0.787  11.921  1.00  0.00     0.300 C 
HETATM   20  C8  UNL     1      -3.496  -1.828  11.684  1.00  0.00     0.085 C 
HETATM   21  N3  UNL     1      -2.690  -2.637  11.517  1.00  0.00    -0.195 NA
ENDBRANCH  18  19
ENDBRANCH  10  18
TORSDOF 2
ENDMDL
MODEL 2
REMARK VINA RESULT: -7.212781739      1.136      4.138
REMARK  2 active torsions:
REMARK  status: ('A' for Active; 'I' for Inactive)
REMARK    1  A    between atoms: C6_10  and  O1_11 
REMARK    2  A    between atoms: O1_11  and  C7_12 
ROOT
HETATM    1  C1  UNL     1      -6.079   5.160  13.885  1.00  0.00     0.030 C 
HETATM    2  C2  UNL     1      -5.642   3.931  13.659  1.00  0.00     0.027 A 
HETATM    3  C3  UNL     1      -5.813   2.864  14.638  1.00  0.00     0.064 A 
HETATM    4  N1  UNL     1      -6.409   3.139  15.753  1.00  0.00    -0.397 N 
ATOM      5  H11 UNL     1      -6.528   2.392  16.438  1.00  0.00     0.156 HD
ATOM      6  H12 UNL     1      -6.764   4.069  15.975  1.00  0.00     0.156 HD
HETATM    7  C4  UNL     1      -5.306   1.533  14.321  1.00  0.00     0.122 A 
HETATM    8  C5  UNL     1      -5.484   0.482  15.309  1.00  0.00     0.106 C 
HETATM    9  N2  UNL     1      -5.646  -0.354  16.092  1.00  0.00    -0.191 NA
HETATM   10  C6  UNL     1      -4.693   1.230  13.189  1.00  0.00     0.168 A 
HETATM   11  N4  UNL     1      -4.516   2.256  12.219  1.00  0.00    -0.321 N 
ATOM     12  H4  UNL     1      -4.045   2.021  11.346  1.00  0.00     0.169 HD
HETATM   13  C9  UNL     1      -4.960   3.581  12.406  1.00  0.00     0.128 A 
HETATM   14  N5  UNL     1      -4.815   4.529  11.549  1.00  0.00    -0.279 N 
ATOM     15  H5  UNL     1      -5.160   5.468  11.746  1.00  0.00     0.179 HD
HETATM   16  C10 UNL     1      -4.173   4.240  10.346  1.00  0.00     0.183 C 
HETATM   17  N6  UNL     1      -3.639   4.010   9.327  1.00  0.00    -0.172 NA
ENDROOT
BRANCH  10  18
HETATM   18  O1  UNL     1      -4.240  -0.055  12.961  1.00  0.00    -0.320 OA
BRANCH  18  19
HETATM   19  C7  UNL     1      -4.401  -0.619  11.672  1.00  0.00     0.300 C 
HETATM   20  C8  UNL     1      -3.433  -1.737  11.599  1.00  0.00     0.085 C 
HETATM   21  N3  UNL     1      -2.687  -2.618  11.558  1.00  0.00    -0.195 NA
ENDBRANCH  18  19
ENDBRANCH  10  18
TORSDOF 2
ENDMDL
MODEL 3
REMARK VINA RESULT: -7.203190165      1.075      1.098
REMARK  2 active torsions:
REMARK  status: ('A' for Active; 'I' for Inactive)
REMARK    1  A    between atoms: C6_10  and  O1_11 
REMARK    2  A    between atoms: O1_11  and  C7_12 
ROOT
HETATM    1  C1  UNL     1      -6.611   4.787  15.287  1.00  0.00     0.030 C 
HETATM    2  C2  UNL     1      -5.953   3.802  14.697  1.00  0.00     0.027 A 
HETATM    3  C3  UNL     1      -5.263   3.993  13.427  1.00  0.00     0.064 A 
HETATM    4  N1  UNL     1      -5.302   5.163  12.873  1.00  0.00    -0.397 N 
ATOM      5  H11 UNL     1      -4.819   5.296  11.985  1.00  0.00     0.156 HD
ATOM      6  H12 UNL     1      -5.794   5.954  13.288  1.00  0.00     0.156 HD
HETATM    7  C4  UNL     1      -4.559   2.862  12.834  1.00  0.00     0.122 A 
HETATM    8  C5  UNL     1      -3.876   3.070  11.568  1.00  0.00     0.106 C 
HETATM    9  N2  UNL     1      -3.320   3.248  10.569  1.00  0.00    -0.191 NA
HETATM   10  C6  UNL     1      -4.507   1.659  13.382  1.00  0.00     0.168 A 
HETATM   11  N4  UNL     1      -5.173   1.450  14.621  1.00  0.00    -0.321 N 
ATOM     12  H4  UNL     1      -5.131   0.523  15.044  1.00  0.00     0.169 HD
HETATM   13  C9  UNL     1      -5.888   2.462  15.294  1.00  0.00     0.128 A 
HETATM   14  N5  UNL     1      -6.500   2.304  16.414  1.00  0.00    -0.279 N 
ATOM     15  H5  UNL     1      -7.000   3.079  16.851  1.00  0.00     0.179 HD
HETATM   16  C10 UNL     1      -6.463   1.047  17.016  1.00  0.00     0.183 C 
HETATM   17  N6  UNL     1      -6.436  -0.004  17.537  1.00  0.00    -0.172 NA
ENDROOT
BRANCH  10  18
HETATM   18  O1  UNL     1      -3.818   0.636  12.759  1.00  0.00    -0.320 OA
BRANCH  18  19
HETATM   19  C7  UNL     1      -4.540  -0.485  12.284  1.00  0.00     0.300 C 
HETATM   20  C8  UNL     1      -4.563  -0.354  10.810  1.00  0.00     0.085 C 
HETATM   21  N3  UNL     1      -4.561  -0.251   9.659  1.00  0.00    -0.195 NA
ENDBRANCH  18  19
ENDBRANCH  10  18
TORSDOF 2
ENDMDL
MODEL 4
REMARK VINA RESULT: -7.177836447      1.428      1.516
REMARK  2 active torsions:
REMARK  status: ('A' for Active; 'I' for Inactive)
REMARK    1  A    between atoms: C6_10  and  O1_11 
REMARK    2  A    between atoms: O1_11  and  C7_12 
ROOT
HETATM    1  C1  UNL     1      -6.239   5.041  15.153  1.00  0.00     0.030 C 
HETATM    2  C2  UNL     1      -5.836   4.119  14.294  1.00  0.00     0.027 A 
HETATM    3  C3  UNL     1      -5.365   4.467  12.959  1.00  0.00     0.064 A 
HETATM    4  N1  UNL     1      -5.346   5.716  12.617  1.00  0.00    -0.397 N 
ATOM      5  H11 UNL     1      -5.016   5.959  11.684  1.00  0.00     0.156 HD
ATOM      6  H12 UNL     1      -5.645   6.464  13.243  1.00  0.00     0.156 HD
HETATM    7  C4  UNL     1      -4.937   3.398  12.064  1.00  0.00     0.122 A 
HETATM    8  C5  UNL     1      -4.470   3.763  10.737  1.00  0.00     0.106 C 
HETATM    9  N2  UNL     1      -4.084   4.064   9.689  1.00  0.00    -0.191 NA
HETATM   10  C6  UNL     1      -4.949   2.117  12.391  1.00  0.00     0.168 A 
HETATM   11  N4  UNL     1      -5.404   1.753  13.689  1.00  0.00    -0.321 N 
ATOM     12  H4  UNL     1      -5.412   0.765  13.942  1.00  0.00     0.169 HD
HETATM   13  C9  UNL     1      -5.845   2.692  14.644  1.00  0.00     0.128 A 
HETATM   14  N5  UNL     1      -6.262   2.395  15.824  1.00  0.00    -0.279 N 
ATOM     15  H5  UNL     1      -6.567   3.124  16.469  1.00  0.00     0.179 HD
HETATM   16  C10 UNL     1      -6.286   1.053  16.198  1.00  0.00     0.183 C 
HETATM   17  N6  UNL     1      -6.307  -0.073  16.529  1.00  0.00    -0.172 NA
ENDROOT
BRANCH  10  18
HETATM   18  O1  UNL     1      -4.527   1.160  11.489  1.00  0.00    -0.320 OA
BRANCH  18  19
HETATM   19  C7  UNL     1      -3.419   0.343  11.824  1.00  0.00     0.300 C 
HETATM   20  C8  UNL     1      -2.327   0.753  10.913  1.00  0.00     0.085 C 
HETATM   21  N3  UNL     1      -1.476   1.091  10.208  1.00  0.00    -0.195 NA
ENDBRANCH  18  19
ENDBRANCH  10  18
TORSDOF 2
ENDMDL
MODEL 5
REMARK VINA RESULT: -7.136084311      1.618      3.895
REMARK  2 active torsions:
REMARK  status: ('A' for Active; 'I' for Inactive)
REMARK    1  A    between atoms: C6_10  and  O1_11 
REMARK    2  A    between atoms: O1_11  and  C7_12 
ROOT
HETATM    1  C1  UNL     1      -6.035   2.006  16.479  1.00  0.00     0.030 C 
HETATM    2  C2  UNL     1      -5.782   1.961  15.180  1.00  0.00     0.027 A 
HETATM    3  C3  UNL     1      -5.195   0.783  14.553  1.00  0.00     0.064 A 
HETATM    4  N1  UNL     1      -4.919  -0.240  15.298  1.00  0.00    -0.397 N 
ATOM      5  H11 UNL     1      -4.508  -1.064  14.859  1.00  0.00     0.156 HD
ATOM      6  H12 UNL     1      -5.095  -0.255  16.302  1.00  0.00     0.156 HD
HETATM    7  C4  UNL     1      -4.943   0.804  13.117  1.00  0.00     0.122 A 
HETATM    8  C5  UNL     1      -4.358  -0.379  12.508  1.00  0.00     0.106 C 
HETATM    9  N2  UNL     1      -3.908  -1.331  12.029  1.00  0.00    -0.191 NA
HETATM   10  C6  UNL     1      -5.216   1.837  12.338  1.00  0.00     0.168 A 
HETATM   11  N4  UNL     1      -5.790   2.998  12.928  1.00  0.00    -0.321 N 
ATOM     12  H4  UNL     1      -6.002   3.794  12.327  1.00  0.00     0.169 HD
HETATM   13  C9  UNL     1      -6.080   3.101  14.304  1.00  0.00     0.128 A 
HETATM   14  N5  UNL     1      -6.597   4.135  14.867  1.00  0.00    -0.279 N 
ATOM     15  H5  UNL     1      -6.784   4.146  15.870  1.00  0.00     0.179 HD
HETATM   16  C10 UNL     1      -6.897   5.241  14.072  1.00  0.00     0.183 C 
HETATM   17  N6  UNL     1      -7.158   6.176  13.414  1.00  0.00    -0.172 NA
ENDROOT
BRANCH  10  18
HETATM   18  O1  UNL     1      -4.949   1.782  10.984  1.00  0.00    -0.320 OA
BRANCH  18  19
HETATM   19  C7  UNL     1      -4.067   2.736  10.420  1.00  0.00     0.300 C 
HETATM   20  C8  UNL     1      -2.751   2.489  11.053  1.00  0.00     0.085 C 
HETATM   21  N3  UNL     1      -1.725   2.278  11.540  1.00  0.00    -0.195 NA
ENDBRANCH  18  19
ENDBRANCH  10  18
TORSDOF 2
ENDMDL
