MODEL 1
REMARK VINA RESULT: -7.160604745      0.000      0.000
REMARK  4 active torsions:
REMARK  status: ('A' for Active; 'I' for Inactive)
REMARK    1  A    between atoms: C4_5  and  O2_6 
REMARK    2  A    between atoms: O2_6  and  C5_7 
REMARK    3  A    between atoms: C7_10  and  O4_11 
REMARK    4  A    between atoms: C9_14  and  O5_15 
ROOT
HETATM    1  C5  UNL     1      -5.562   0.434  15.168  1.00  0.00     0.293 C 
HETATM    2  O3  UNL     1      -5.977  -0.397  16.189  1.00  0.00    -0.356 OA
HETATM    3  C6  UNL     1      -6.629   0.245  17.216  1.00  0.00     0.202 C 
HETATM    4  C7  UNL     1      -5.919   1.455  17.738  1.00  0.00     0.144 C 
HETATM    5  C8  UNL     1      -5.433   2.374  16.633  1.00  0.00     0.070 C 
HETATM    6  C9  UNL     1      -4.616   1.526  15.685  1.00  0.00     0.176 C 
ENDROOT
BRANCH   1   7
HETATM    7  O2  UNL     1      -4.789  -0.336  14.290  1.00  0.00    -0.306 OA
BRANCH   7   8
HETATM    8  C4  UNL     1      -4.704   0.305  13.079  1.00  0.00     0.415 C 
HETATM    9  O1  UNL     1      -4.844  -0.638  12.069  1.00  0.00    -0.336 OA
HETATM   10  C3  UNL     1      -4.058  -0.202  10.997  1.00  0.00     0.205 C 
HETATM   11  C2  UNL     1      -3.503   1.132  11.490  1.00  0.00     0.146 C 
HETATM   12  C1  UNL     1      -2.164   1.428  10.886  1.00  0.00     0.042 C 
HETATM   13  O6  UNL     1      -3.445   0.899  12.865  1.00  0.00    -0.332 OA
ENDBRANCH   7   8
ENDBRANCH   1   7
BRANCH   6  14
HETATM   14  O5  UNL     1      -3.595   0.934  16.425  1.00  0.00    -0.391 OA
ATOM     15  H5  UNL     1      -2.763   1.313  16.168  1.00  0.00     0.210 HD
ENDBRANCH   6  14
BRANCH   4  16
HETATM   16  O4  UNL     1      -6.783   2.198  18.534  1.00  0.00    -0.393 OA
ATOM     17  H4  UNL     1      -6.391   3.041  18.731  1.00  0.00     0.210 HD
ENDBRANCH   4  16
TORSDOF 4
ENDMDL
MODEL 2
REMARK VINA RESULT: -7.128622880      1.558      2.144
REMARK  4 active torsions:
REMARK  status: ('A' for Active; 'I' for Inactive)
REMARK    1  A    between atoms: C4_5  and  O2_6 
REMARK    2  A    between atoms: O2_6  and  C5_7 
REMARK    3  A    between atoms: C7_10  and  O4_11 
REMARK    4  A    between atoms: C9_14  and  O5_15 
ROOT
HETATM    1  C5  UNL     1      -5.093   1.097  14.441  1.00  0.00     0.293 C 
HETATM    2  O3  UNL     1      -5.883   1.888  13.630  1.00  0.00    -0.356 OA
HETATM    3  C6  UNL     1      -6.192   3.119  14.162  1.00  0.00     0.202 C 
HETATM    4  C7  UNL     1      -6.707   3.074  15.566  1.00  0.00     0.144 C 
HETATM    5  C8  UNL     1      -5.868   2.192  16.472  1.00  0.00     0.070 C 
HETATM    6  C9  UNL     1      -5.763   0.844  15.798  1.00  0.00     0.176 C 
ENDROOT
BRANCH   1   7
HETATM    7  O2  UNL     1      -5.002  -0.162  13.835  1.00  0.00    -0.306 OA
BRANCH   7   8
HETATM    8  C4  UNL     1      -4.579  -0.012  12.538  1.00  0.00     0.415 C 
HETATM    9  O1  UNL     1      -4.236  -1.262  12.037  1.00  0.00    -0.336 OA
HETATM   10  C3  UNL     1      -3.186  -1.060  11.136  1.00  0.00     0.205 C 
HETATM   11  C2  UNL     1      -3.011   0.456  11.132  1.00  0.00     0.146 C 
HETATM   12  C1  UNL     1      -1.595   0.846  10.841  1.00  0.00     0.042 C 
HETATM   13  O6  UNL     1      -3.410   0.768  12.434  1.00  0.00    -0.332 OA
ENDBRANCH   7   8
ENDBRANCH   1   7
BRANCH   6  14
HETATM   14  O5  UNL     1      -7.059   0.378  15.589  1.00  0.00    -0.391 OA
ATOM     15  H5  UNL     1      -7.583   0.555  16.361  1.00  0.00     0.210 HD
ENDBRANCH   6  14
BRANCH   4  16
HETATM   16  O4  UNL     1      -6.689   4.352  16.112  1.00  0.00    -0.393 OA
ATOM     17  H4  UNL     1      -7.506   4.517  16.567  1.00  0.00     0.210 HD
ENDBRANCH   4  16
TORSDOF 4
ENDMDL
MODEL 3
REMARK VINA RESULT: -7.037870174      1.649      5.668
REMARK  4 active torsions:
REMARK  status: ('A' for Active; 'I' for Inactive)
REMARK    1  A    between atoms: C4_5  and  O2_6 
REMARK    2  A    between atoms: O2_6  and  C5_7 
REMARK    3  A    between atoms: C7_10  and  O4_11 
REMARK    4  A    between atoms: C9_14  and  O5_15 
ROOT
HETATM    1  C5  UNL     1      -4.825   1.294  13.521  1.00  0.00     0.293 C 
HETATM    2  O3  UNL     1      -5.011  -0.043  13.234  1.00  0.00    -0.356 OA
HETATM    3  C6  UNL     1      -4.045  -0.591  12.422  1.00  0.00     0.202 C 
HETATM    4  C7  UNL     1      -3.749   0.206  11.190  1.00  0.00     0.144 C 
HETATM    5  C8  UNL     1      -3.563   1.684  11.476  1.00  0.00     0.070 C 
HETATM    6  C9  UNL     1      -4.784   2.140  12.241  1.00  0.00     0.176 C 
ENDROOT
BRANCH   1   7
HETATM    7  O2  UNL     1      -5.959   1.734  14.216  1.00  0.00    -0.306 OA
BRANCH   7   8
HETATM    8  C4  UNL     1      -6.016   1.105  15.435  1.00  0.00     0.415 C 
HETATM    9  O1  UNL     1      -7.326   0.707  15.665  1.00  0.00    -0.336 OA
HETATM   10  C3  UNL     1      -7.535   0.786  17.045  1.00  0.00     0.205 C 
HETATM   11  C2  UNL     1      -6.173   1.217  17.583  1.00  0.00     0.146 C 
HETATM   12  C1  UNL     1      -6.306   2.020  18.841  1.00  0.00     0.042 C 
HETATM   13  O6  UNL     1      -5.691   1.962  16.505  1.00  0.00    -0.332 OA
ENDBRANCH   7   8
ENDBRANCH   1   7
BRANCH   6  14
HETATM   14  O5  UNL     1      -5.901   1.846  11.463  1.00  0.00    -0.391 OA
ATOM     15  H5  UNL     1      -6.686   1.999  11.974  1.00  0.00     0.210 HD
ENDBRANCH   6  14
BRANCH   4  16
HETATM   16  O4  UNL     1      -2.570  -0.248  10.611  1.00  0.00    -0.393 OA
ATOM     17  H4  UNL     1      -2.104   0.481  10.219  1.00  0.00     0.210 HD
ENDBRANCH   4  16
TORSDOF 4
ENDMDL
MODEL 4
REMARK VINA RESULT: -7.010755331      1.850      5.392
REMARK  4 active torsions:
REMARK  status: ('A' for Active; 'I' for Inactive)
REMARK    1  A    between atoms: C4_5  and  O2_6 
REMARK    2  A    between atoms: O2_6  and  C5_7 
REMARK    3  A    between atoms: C7_10  and  O4_11 
REMARK    4  A    between atoms: C9_14  and  O5_15 
ROOT
HETATM    1  C5  UNL     1      -4.880   1.419  13.675  1.00  0.00     0.293 C 
HETATM    2  O3  UNL     1      -4.434   2.725  13.708  1.00  0.00    -0.356 OA
HETATM    3  C6  UNL     1      -4.854   3.497  12.650  1.00  0.00     0.202 C 
HETATM    4  C7  UNL     1      -4.643   2.873  11.307  1.00  0.00     0.144 C 
HETATM    5  C8  UNL     1      -5.105   1.429  11.251  1.00  0.00     0.070 C 
HETATM    6  C9  UNL     1      -4.428   0.707  12.393  1.00  0.00     0.176 C 
ENDROOT
BRANCH   1   7
HETATM    7  O2  UNL     1      -4.247   0.733  14.719  1.00  0.00    -0.306 OA
BRANCH   7   8
HETATM    8  C4  UNL     1      -5.178   0.392  15.668  1.00  0.00     0.415 C 
HETATM    9  O1  UNL     1      -6.434   0.770  15.210  1.00  0.00    -0.336 OA
HETATM   10  C3  UNL     1      -7.183   1.126  16.336  1.00  0.00     0.205 C 
HETATM   11  C2  UNL     1      -6.229   0.849  17.495  1.00  0.00     0.146 C 
HETATM   12  C1  UNL     1      -6.492   1.760  18.655  1.00  0.00     0.042 C 
HETATM   13  O6  UNL     1      -4.997   1.085  16.881  1.00  0.00    -0.332 OA
ENDBRANCH   7   8
ENDBRANCH   1   7
BRANCH   6  14
HETATM   14  O5  UNL     1      -3.054   0.872  12.238  1.00  0.00    -0.391 OA
ATOM     15  H5  UNL     1      -2.889   1.414  11.475  1.00  0.00     0.210 HD
ENDBRANCH   6  14
BRANCH   4  16
HETATM   16  O4  UNL     1      -5.369   3.569  10.348  1.00  0.00    -0.393 OA
ATOM     17  H4  UNL     1      -5.240   3.169   9.496  1.00  0.00     0.210 HD
ENDBRANCH   4  16
TORSDOF 4
ENDMDL
MODEL 5
REMARK VINA RESULT: -6.772947517      1.046      1.046
REMARK  4 active torsions:
REMARK  status: ('A' for Active; 'I' for Inactive)
REMARK    1  A    between atoms: C4_5  and  O2_6 
REMARK    2  A    between atoms: O2_6  and  C5_7 
REMARK    3  A    between atoms: C7_10  and  O4_11 
REMARK    4  A    between atoms: C9_14  and  O5_15 
ROOT
HETATM    1  C5  UNL     1      -5.930   1.218  15.011  1.00  0.00     0.293 C 
HETATM    2  O3  UNL     1      -6.788   0.363  15.673  1.00  0.00    -0.356 OA
HETATM    3  C6  UNL     1      -7.232   0.830  16.888  1.00  0.00     0.202 C 
HETATM    4  C7  UNL     1      -6.149   1.337  17.789  1.00  0.00     0.144 C 
HETATM    5  C8  UNL     1      -5.179   2.262  17.079  1.00  0.00     0.070 C 
HETATM    6  C9  UNL     1      -4.685   1.525  15.856  1.00  0.00     0.176 C 
ENDROOT
BRANCH   1   7
HETATM    7  O2  UNL     1      -5.451   0.540  13.883  1.00  0.00    -0.306 OA
BRANCH   7   8
HETATM    8  C4  UNL     1      -4.798   1.427  13.064  1.00  0.00     0.415 C 
HETATM    9  O1  UNL     1      -5.471   1.483  11.850  1.00  0.00    -0.336 OA
HETATM   10  C3  UNL     1      -4.505   1.717  10.865  1.00  0.00     0.205 C 
HETATM   11  C2  UNL     1      -3.212   1.850  11.665  1.00  0.00     0.146 C 
HETATM   12  C1  UNL     1      -2.024   1.407  10.868  1.00  0.00     0.042 C 
HETATM   13  O6  UNL     1      -3.489   1.014  12.749  1.00  0.00    -0.332 OA
ENDBRANCH   7   8
ENDBRANCH   1   7
BRANCH   6  14
HETATM   14  O5  UNL     1      -4.119   0.328  16.287  1.00  0.00    -0.391 OA
ATOM     15  H5  UNL     1      -4.243  -0.336  15.619  1.00  0.00     0.210 HD
ENDBRANCH   6  14
BRANCH   4  16
HETATM   16  O4  UNL     1      -6.711   2.061  18.834  1.00  0.00    -0.393 OA
ATOM     17  H4  UNL     1      -6.152   2.799  19.048  1.00  0.00     0.210 HD
ENDBRANCH   4  16
TORSDOF 4
ENDMDL
