MODEL 1
REMARK VINA RESULT: -6.529497083      0.000      0.000
REMARK  4 active torsions:
REMARK  status: ('A' for Active; 'I' for Inactive)
REMARK    1  A    between atoms: O1_2  and  C2_3 
REMARK    2  A    between atoms: C7_11  and  C8_12 
REMARK    3  A    between atoms: C8_12  and  O5_13 
REMARK    4  A    between atoms: C9_15  and  O6_16 
ROOT
HETATM    1  C2  UNL     1      -4.627   0.867  14.159  1.00  0.00     0.291 C 
HETATM    2  O2  UNL     1      -5.544   1.751  13.606  1.00  0.00    -0.322 OA
HETATM    3  C3  UNL     1      -5.716   2.799  14.467  1.00  0.00     0.179 C 
HETATM    4  C4  UNL     1      -4.620   3.816  14.218  1.00  0.00     0.095 C 
HETATM    5  C5  UNL     1      -4.925   4.454  12.884  1.00  0.00     0.176 C 
HETATM    6  O3  UNL     1      -6.110   5.136  12.993  1.00  0.00    -0.367 OA
HETATM    7  C6  UNL     1      -6.897   4.744  14.049  1.00  0.00     0.341 C 
HETATM    8  O4  UNL     1      -6.953   3.368  14.219  1.00  0.00    -0.330 OA
HETATM    9  C7  UNL     1      -5.591   2.221  15.844  1.00  0.00     0.105 C 
HETATM   10  C9  UNL     1      -4.601   1.118  15.648  1.00  0.00     0.184 C 
ENDROOT
BRANCH   9  11
HETATM   11  C8  UNL     1      -6.919   1.708  16.371  1.00  0.00     0.176 C 
BRANCH  11  12
HETATM   12  O5  UNL     1      -7.350   0.677  15.573  1.00  0.00    -0.400 OA
ATOM     13  H5  UNL     1      -8.181   0.357  15.901  1.00  0.00     0.209 HD
ENDBRANCH  11  12
ENDBRANCH   9  11
BRANCH   1  14
HETATM   14  O1  UNL     1      -5.008  -0.405  13.829  1.00  0.00    -0.363 OA
HETATM   15  C1  UNL     1      -4.594  -0.676  12.529  1.00  0.00     0.204 C 
ENDBRANCH   1  14
BRANCH  10  16
HETATM   16  O6  UNL     1      -4.867  -0.012  16.395  1.00  0.00    -0.390 OA
ATOM     17  H6  UNL     1      -5.120   0.182  17.291  1.00  0.00     0.210 HD
ENDBRANCH  10  16
TORSDOF 4
ENDMDL
MODEL 2
REMARK VINA RESULT: -6.329575558      2.222      4.241
REMARK  4 active torsions:
REMARK  status: ('A' for Active; 'I' for Inactive)
REMARK    1  A    between atoms: O1_2  and  C2_3 
REMARK    2  A    between atoms: C7_11  and  C8_12 
REMARK    3  A    between atoms: C8_12  and  O5_13 
REMARK    4  A    between atoms: C9_15  and  O6_16 
ROOT
HETATM    1  C2  UNL     1      -4.163   1.157  11.653  1.00  0.00     0.291 C 
HETATM    2  O2  UNL     1      -3.562   1.340  12.891  1.00  0.00    -0.322 OA
HETATM    3  C3  UNL     1      -4.489   1.851  13.757  1.00  0.00     0.179 C 
HETATM    4  C4  UNL     1      -5.289   0.705  14.342  1.00  0.00     0.095 C 
HETATM    5  C5  UNL     1      -4.360  -0.031  15.278  1.00  0.00     0.176 C 
HETATM    6  O3  UNL     1      -4.026   0.813  16.306  1.00  0.00    -0.367 OA
HETATM    7  C6  UNL     1      -4.228   2.145  16.037  1.00  0.00     0.341 C 
HETATM    8  O4  UNL     1      -3.820   2.523  14.766  1.00  0.00    -0.330 OA
HETATM    9  C7  UNL     1      -5.371   2.740  12.933  1.00  0.00     0.105 C 
HETATM   10  C9  UNL     1      -5.377   2.055  11.604  1.00  0.00     0.184 C 
ENDROOT
BRANCH   9  11
HETATM   11  C8  UNL     1      -4.831   4.155  12.843  1.00  0.00     0.176 C 
BRANCH  11  12
HETATM   12  O5  UNL     1      -3.528   4.112  12.413  1.00  0.00    -0.400 OA
ATOM     13  H5  UNL     1      -3.515   3.982  11.472  1.00  0.00     0.209 HD
ENDBRANCH  11  12
ENDBRANCH   9  11
BRANCH   1  14
HETATM   14  O1  UNL     1      -3.240   1.438  10.684  1.00  0.00    -0.363 OA
HETATM   15  C1  UNL     1      -2.017   0.888  11.054  1.00  0.00     0.204 C 
ENDBRANCH   1  14
BRANCH  10  16
HETATM   16  O6  UNL     1      -5.370   2.921  10.529  1.00  0.00    -0.390 OA
ATOM     17  H6  UNL     1      -4.542   3.375  10.420  1.00  0.00     0.210 HD
ENDBRANCH  10  16
TORSDOF 4
ENDMDL
MODEL 3
REMARK VINA RESULT: -5.868432579      1.650      3.272
REMARK  4 active torsions:
REMARK  status: ('A' for Active; 'I' for Inactive)
REMARK    1  A    between atoms: O1_2  and  C2_3 
REMARK    2  A    between atoms: C7_11  and  C8_12 
REMARK    3  A    between atoms: C8_12  and  O5_13 
REMARK    4  A    between atoms: C9_15  and  O6_16 
ROOT
HETATM    1  C2  UNL     1      -6.283   2.038  16.970  1.00  0.00     0.291 C 
HETATM    2  O2  UNL     1      -5.314   2.783  16.312  1.00  0.00    -0.322 OA
HETATM    3  C3  UNL     1      -5.364   2.486  14.978  1.00  0.00     0.179 C 
HETATM    4  C4  UNL     1      -6.432   3.344  14.329  1.00  0.00     0.095 C 
HETATM    5  C5  UNL     1      -5.896   4.756  14.315  1.00  0.00     0.176 C 
HETATM    6  O3  UNL     1      -4.788   4.788  13.507  1.00  0.00    -0.367 OA
HETATM    7  C6  UNL     1      -4.211   3.560  13.284  1.00  0.00     0.341 C 
HETATM    8  O4  UNL     1      -4.129   2.770  14.421  1.00  0.00    -0.330 OA
HETATM    9  C7  UNL     1      -5.736   1.036  14.896  1.00  0.00     0.105 C 
HETATM   10  C9  UNL     1      -6.617   0.856  16.090  1.00  0.00     0.184 C 
ENDROOT
BRANCH   9  11
HETATM   11  C8  UNL     1      -4.518   0.131  14.944  1.00  0.00     0.176 C 
BRANCH  11  12
HETATM   12  O5  UNL     1      -3.801   0.404  16.083  1.00  0.00    -0.400 OA
ATOM     13  H5  UNL     1      -2.894   0.558  15.848  1.00  0.00     0.209 HD
ENDBRANCH  11  12
ENDBRANCH   9  11
BRANCH   1  14
HETATM   14  O1  UNL     1      -5.787   1.681  18.194  1.00  0.00    -0.363 OA
HETATM   15  C1  UNL     1      -6.603   2.220  19.184  1.00  0.00     0.204 C 
ENDBRANCH   1  14
BRANCH  10  16
HETATM   16  O6  UNL     1      -6.455  -0.359  16.727  1.00  0.00    -0.390 OA
ATOM     17  H6  UNL     1      -6.467  -1.098  16.130  1.00  0.00     0.210 HD
ENDBRANCH  10  16
TORSDOF 4
ENDMDL
MODEL 4
REMARK VINA RESULT: -5.866797958      2.420      4.269
REMARK  4 active torsions:
REMARK  status: ('A' for Active; 'I' for Inactive)
REMARK    1  A    between atoms: O1_2  and  C2_3 
REMARK    2  A    between atoms: C7_11  and  C8_12 
REMARK    3  A    between atoms: C8_12  and  O5_13 
REMARK    4  A    between atoms: C9_15  and  O6_16 
ROOT
HETATM    1  C2  UNL     1      -3.847  -0.473  11.946  1.00  0.00     0.291 C 
HETATM    2  O2  UNL     1      -3.367   0.491  12.821  1.00  0.00    -0.322 OA
HETATM    3  C3  UNL     1      -4.333   1.443  12.997  1.00  0.00     0.179 C 
HETATM    4  C4  UNL     1      -5.288   0.972  14.076  1.00  0.00     0.095 C 
HETATM    5  C5  UNL     1      -4.531   1.051  15.380  1.00  0.00     0.176 C 
HETATM    6  O3  UNL     1      -4.236   2.367  15.629  1.00  0.00    -0.367 OA
HETATM    7  C6  UNL     1      -4.291   3.181  14.523  1.00  0.00     0.341 C 
HETATM    8  O4  UNL     1      -3.719   2.620  13.391  1.00  0.00    -0.330 OA
HETATM    9  C7  UNL     1      -5.042   1.553  11.681  1.00  0.00     0.105 C 
HETATM   10  C9  UNL     1      -4.966   0.157  11.151  1.00  0.00     0.184 C 
ENDROOT
BRANCH   9  11
HETATM   11  C8  UNL     1      -4.374   2.552  10.754  1.00  0.00     0.176 C 
BRANCH  11  12
HETATM   12  O5  UNL     1      -3.060   2.194  10.580  1.00  0.00    -0.400 OA
ATOM     13  H5  UNL     1      -3.015   1.268  10.376  1.00  0.00     0.209 HD
ENDBRANCH  11  12
ENDBRANCH   9  11
BRANCH   1  14
HETATM   14  O1  UNL     1      -2.804  -0.903  11.171  1.00  0.00    -0.363 OA
HETATM   15  C1  UNL     1      -2.645  -2.273  11.350  1.00  0.00     0.204 C 
ENDBRANCH   1  14
BRANCH  10  16
HETATM   16  O6  UNL     1      -4.769   0.088   9.785  1.00  0.00    -0.390 OA
ATOM     17  H6  UNL     1      -4.410   0.887   9.418  1.00  0.00     0.210 HD
ENDBRANCH  10  16
TORSDOF 4
ENDMDL
MODEL 5
REMARK VINA RESULT: -5.818801258      2.071      3.819
REMARK  4 active torsions:
REMARK  status: ('A' for Active; 'I' for Inactive)
REMARK    1  A    between atoms: O1_2  and  C2_3 
REMARK    2  A    between atoms: C7_11  and  C8_12 
REMARK    3  A    between atoms: C8_12  and  O5_13 
REMARK    4  A    between atoms: C9_15  and  O6_16 
ROOT
HETATM    1  C2  UNL     1      -4.323   3.274  14.407  1.00  0.00     0.291 C 
HETATM    2  O2  UNL     1      -3.662   2.355  13.604  1.00  0.00    -0.322 OA
HETATM    3  C3  UNL     1      -4.548   1.385  13.226  1.00  0.00     0.179 C 
HETATM    4  C4  UNL     1      -5.307   1.869  12.007  1.00  0.00     0.095 C 
HETATM    5  C5  UNL     1      -4.325   1.858  10.860  1.00  0.00     0.176 C 
HETATM    6  O3  UNL     1      -3.948   0.559  10.628  1.00  0.00    -0.367 OA
HETATM    7  C6  UNL     1      -4.175  -0.295  11.680  1.00  0.00     0.341 C 
HETATM    8  O4  UNL     1      -3.835   0.240  12.914  1.00  0.00    -0.330 OA
HETATM    9  C7  UNL     1      -5.479   1.209  14.388  1.00  0.00     0.105 C 
HETATM   10  C9  UNL     1      -5.546   2.586  14.966  1.00  0.00     0.184 C 
ENDROOT
BRANCH   9  11
HETATM   11  C8  UNL     1      -4.958   0.195  15.389  1.00  0.00     0.176 C 
BRANCH  11  12
HETATM   12  O5  UNL     1      -3.788   0.663  15.935  1.00  0.00    -0.400 OA
ATOM     13  H5  UNL     1      -3.957   1.491  16.367  1.00  0.00     0.209 HD
ENDBRANCH  11  12
ENDBRANCH   9  11
BRANCH   1  14
HETATM   14  O1  UNL     1      -3.452   3.703  15.371  1.00  0.00    -0.363 OA
HETATM   15  C1  UNL     1      -2.550   4.594  14.799  1.00  0.00     0.204 C 
ENDBRANCH   1  14
BRANCH  10  16
HETATM   16  O6  UNL     1      -5.601   2.611  16.345  1.00  0.00    -0.390 OA
ATOM     17  H6  UNL     1      -5.715   3.486  16.700  1.00  0.00     0.210 HD
ENDBRANCH  10  16
TORSDOF 4
ENDMDL
