MODEL 1
REMARK VINA RESULT: -7.287027118      0.000      0.000
REMARK  4 active torsions:
REMARK  status: ('A' for Active; 'I' for Inactive)
REMARK    1  A    between atoms: C2_2  and  C3_3 
REMARK    2  A    between atoms: C3_3  and  O1_4 
REMARK    3  A    between atoms: C4_7  and  C5_8 
REMARK    4  A    between atoms: C10_16  and  O5_17 
ROOT
HETATM    1  C5  UNL     1      -5.300   2.474  12.933  1.00  0.00     0.108 C 
HETATM    2  C6  UNL     1      -4.308   3.586  12.928  1.00  0.00     0.182 C 
HETATM    3  O3  UNL     1      -3.851   3.091  11.686  1.00  0.00    -0.370 OA
HETATM    4  C7  UNL     1      -4.135   1.824  12.176  1.00  0.00     0.238 C 
HETATM    5  C8  UNL     1      -4.588   0.843  11.230  1.00  0.00     0.091 C 
HETATM    6  N1  UNL     1      -4.956   0.055  10.478  1.00  0.00    -0.195 NA
ENDROOT
BRANCH   1   7
HETATM    7  C4  UNL     1      -5.542   1.760  14.207  1.00  0.00     0.273 C 
HETATM    8  O2  UNL     1      -6.269   2.462  15.143  1.00  0.00    -0.322 OA
HETATM    9  C3  UNL     1      -6.701   1.563  16.109  1.00  0.00     0.192 C 
HETATM   10  C10 UNL     1      -5.609   0.695  16.640  1.00  0.00     0.204 C 
HETATM   11  C9  UNL     1      -4.507   0.420  15.670  1.00  0.00     0.208 C 
HETATM   12  O4  UNL     1      -4.293   1.472  14.800  1.00  0.00    -0.358 OA
BRANCH   9  13
HETATM   13  C2  UNL     1      -7.295   2.333  17.299  1.00  0.00     0.067 C 
HETATM   14  C1  UNL     1      -6.500   2.062  18.555  1.00  0.00     0.010 C 
ENDBRANCH   9  13
BRANCH   9  15
HETATM   15  O1  UNL     1      -7.662   0.747  15.528  1.00  0.00    -0.363 OA
ATOM     16  H1  UNL     1      -7.378   0.458  14.668  1.00  0.00     0.213 HD
ENDBRANCH   9  15
BRANCH  10  17
HETATM   17  O5  UNL     1      -6.152  -0.539  17.021  1.00  0.00    -0.388 OA
ATOM     18  H5  UNL     1      -5.801  -0.783  17.869  1.00  0.00     0.210 HD
ENDBRANCH  10  17
ENDBRANCH   1   7
TORSDOF 4
ENDMDL
MODEL 2
REMARK VINA RESULT: -7.260752727      2.161      2.467
REMARK  4 active torsions:
REMARK  status: ('A' for Active; 'I' for Inactive)
REMARK    1  A    between atoms: C2_2  and  C3_3 
REMARK    2  A    between atoms: C3_3  and  O1_4 
REMARK    3  A    between atoms: C4_7  and  C5_8 
REMARK    4  A    between atoms: C10_16  and  O5_17 
ROOT
HETATM    1  C5  UNL     1      -6.385   4.095  13.597  1.00  0.00     0.108 C 
HETATM    2  C6  UNL     1      -6.652   5.455  14.144  1.00  0.00     0.182 C 
HETATM    3  O3  UNL     1      -6.181   5.974  12.916  1.00  0.00    -0.370 OA
HETATM    4  C7  UNL     1      -5.289   4.911  12.899  1.00  0.00     0.238 C 
HETATM    5  C8  UNL     1      -4.947   4.364  11.616  1.00  0.00     0.091 C 
HETATM    6  N1  UNL     1      -4.672   3.920  10.592  1.00  0.00    -0.195 NA
ENDROOT
BRANCH   1   7
HETATM    7  C4  UNL     1      -5.777   3.088  14.497  1.00  0.00     0.273 C 
HETATM    8  O2  UNL     1      -6.642   2.513  15.400  1.00  0.00    -0.322 OA
HETATM    9  C3  UNL     1      -6.028   1.378  15.915  1.00  0.00     0.192 C 
HETATM   10  C10 UNL     1      -4.638   1.625  16.399  1.00  0.00     0.204 C 
HETATM   11  C9  UNL     1      -3.916   2.719  15.682  1.00  0.00     0.208 C 
HETATM   12  O4  UNL     1      -4.765   3.720  15.252  1.00  0.00    -0.358 OA
BRANCH   9  13
HETATM   13  C2  UNL     1      -6.841   0.847  17.106  1.00  0.00     0.067 C 
HETATM   14  C1  UNL     1      -6.669   1.746  18.307  1.00  0.00     0.010 C 
ENDBRANCH   9  13
BRANCH   9  15
HETATM   15  O1  UNL     1      -5.974   0.431  14.901  1.00  0.00    -0.363 OA
ATOM     16  H1  UNL     1      -5.746   0.839  14.074  1.00  0.00     0.213 HD
ENDBRANCH   9  15
BRANCH  10  17
HETATM   17  O5  UNL     1      -3.886   0.452  16.244  1.00  0.00    -0.388 OA
ATOM     18  H5  UNL     1      -2.981   0.635  16.464  1.00  0.00     0.210 HD
ENDBRANCH  10  17
ENDBRANCH   1   7
TORSDOF 4
ENDMDL
MODEL 3
REMARK VINA RESULT: -7.214204925      1.862      2.078
REMARK  4 active torsions:
REMARK  status: ('A' for Active; 'I' for Inactive)
REMARK    1  A    between atoms: C2_2  and  C3_3 
REMARK    2  A    between atoms: C3_3  and  O1_4 
REMARK    3  A    between atoms: C4_7  and  C5_8 
REMARK    4  A    between atoms: C10_16  and  O5_17 
ROOT
HETATM    1  C5  UNL     1      -6.307   4.061  14.053  1.00  0.00     0.108 C 
HETATM    2  C6  UNL     1      -5.987   5.329  14.766  1.00  0.00     0.182 C 
HETATM    3  O3  UNL     1      -5.418   5.792  13.558  1.00  0.00    -0.370 OA
HETATM    4  C7  UNL     1      -5.019   4.482  13.335  1.00  0.00     0.238 C 
HETATM    5  C8  UNL     1      -4.990   4.030  11.972  1.00  0.00     0.091 C 
HETATM    6  N1  UNL     1      -4.968   3.661  10.884  1.00  0.00    -0.195 NA
ENDROOT
BRANCH   1   7
HETATM    7  C4  UNL     1      -6.096   2.783  14.771  1.00  0.00     0.273 C 
HETATM    8  O2  UNL     1      -6.758   2.672  15.974  1.00  0.00    -0.322 OA
HETATM    9  C3  UNL     1      -6.747   1.333  16.344  1.00  0.00     0.192 C 
HETATM   10  C10 UNL     1      -5.392   0.712  16.279  1.00  0.00     0.204 C 
HETATM   11  C9  UNL     1      -4.486   1.307  15.250  1.00  0.00     0.208 C 
HETATM   12  O4  UNL     1      -4.719   2.654  15.055  1.00  0.00    -0.358 OA
BRANCH   9  13
HETATM   13  C2  UNL     1      -7.246   1.195  17.791  1.00  0.00     0.067 C 
HETATM   14  C1  UNL     1      -6.561   2.202  18.685  1.00  0.00     0.010 C 
ENDBRANCH   9  13
BRANCH   9  15
HETATM   15  O1  UNL     1      -7.583   0.647  15.473  1.00  0.00    -0.363 OA
ATOM     16  H1  UNL     1      -7.779   1.178  14.710  1.00  0.00     0.213 HD
ENDBRANCH   9  15
BRANCH  10  17
HETATM   17  O5  UNL     1      -5.529  -0.651  15.981  1.00  0.00    -0.388 OA
ATOM     18  H5  UNL     1      -4.667  -1.024  15.840  1.00  0.00     0.210 HD
ENDBRANCH  10  17
ENDBRANCH   1   7
TORSDOF 4
ENDMDL
MODEL 4
REMARK VINA RESULT: -7.121582086      2.337      5.121
REMARK  4 active torsions:
REMARK  status: ('A' for Active; 'I' for Inactive)
REMARK    1  A    between atoms: C2_2  and  C3_3 
REMARK    2  A    between atoms: C3_3  and  O1_4 
REMARK    3  A    between atoms: C4_7  and  C5_8 
REMARK    4  A    between atoms: C10_16  and  O5_17 
ROOT
HETATM    1  C5  UNL     1      -5.157   2.827  15.089  1.00  0.00     0.108 C 
HETATM    2  C6  UNL     1      -6.087   3.947  15.405  1.00  0.00     0.182 C 
HETATM    3  O3  UNL     1      -6.726   3.078  16.317  1.00  0.00    -0.370 OA
HETATM    4  C7  UNL     1      -6.441   2.056  15.422  1.00  0.00     0.238 C 
HETATM    5  C8  UNL     1      -6.162   0.761  15.975  1.00  0.00     0.091 C 
HETATM    6  N1  UNL     1      -5.935  -0.278  16.412  1.00  0.00    -0.195 NA
ENDROOT
BRANCH   1   7
HETATM    7  C4  UNL     1      -4.783   2.607  13.672  1.00  0.00     0.273 C 
HETATM    8  O2  UNL     1      -4.756   1.290  13.272  1.00  0.00    -0.322 OA
HETATM    9  C3  UNL     1      -4.737   1.266  11.884  1.00  0.00     0.192 C 
HETATM   10  C10 UNL     1      -3.696   2.157  11.291  1.00  0.00     0.204 C 
HETATM   11  C9  UNL     1      -3.363   3.357  12.116  1.00  0.00     0.208 C 
HETATM   12  O4  UNL     1      -3.482   3.117  13.471  1.00  0.00    -0.358 OA
BRANCH   9  13
HETATM   13  C2  UNL     1      -4.450  -0.162  11.396  1.00  0.00     0.067 C 
HETATM   14  C1  UNL     1      -2.976  -0.341  11.119  1.00  0.00     0.010 C 
ENDBRANCH   9  13
BRANCH   9  15
HETATM   15  O1  UNL     1      -5.980   1.694  11.437  1.00  0.00    -0.363 OA
ATOM     16  H1  UNL     1      -6.021   2.643  11.420  1.00  0.00     0.213 HD
ENDBRANCH   9  15
BRANCH  10  17
HETATM   17  O5  UNL     1      -4.143   2.614  10.044  1.00  0.00    -0.388 OA
ATOM     18  H5  UNL     1      -3.452   2.492   9.404  1.00  0.00     0.210 HD
ENDBRANCH  10  17
ENDBRANCH   1   7
TORSDOF 4
ENDMDL
MODEL 5
REMARK VINA RESULT: -7.082842390      1.920      2.723
REMARK  4 active torsions:
REMARK  status: ('A' for Active; 'I' for Inactive)
REMARK    1  A    between atoms: C2_2  and  C3_3 
REMARK    2  A    between atoms: C3_3  and  O1_4 
REMARK    3  A    between atoms: C4_7  and  C5_8 
REMARK    4  A    between atoms: C10_16  and  O5_17 
ROOT
HETATM    1  C5  UNL     1      -4.917   0.260  11.949  1.00  0.00     0.108 C 
HETATM    2  C6  UNL     1      -5.020   1.225  10.818  1.00  0.00     0.182 C 
HETATM    3  O3  UNL     1      -4.252   0.317  10.054  1.00  0.00    -0.370 OA
HETATM    4  C7  UNL     1      -3.584   0.013  11.232  1.00  0.00     0.238 C 
HETATM    5  C8  UNL     1      -3.127  -1.338  11.396  1.00  0.00     0.091 C 
HETATM    6  N1  UNL     1      -2.763  -2.420  11.534  1.00  0.00    -0.195 NA
ENDROOT
BRANCH   1   7
HETATM    7  C4  UNL     1      -4.675   0.799  13.307  1.00  0.00     0.273 C 
HETATM    8  O2  UNL     1      -5.544   0.353  14.277  1.00  0.00    -0.322 OA
HETATM    9  C3  UNL     1      -4.993   0.656  15.515  1.00  0.00     0.192 C 
HETATM   10  C10 UNL     1      -4.548   2.076  15.633  1.00  0.00     0.204 C 
HETATM   11  C9  UNL     1      -4.117   2.700  14.345  1.00  0.00     0.208 C 
HETATM   12  O4  UNL     1      -4.811   2.204  13.259  1.00  0.00    -0.358 OA
BRANCH   9  13
HETATM   13  C2  UNL     1      -6.034   0.409  16.617  1.00  0.00     0.067 C 
HETATM   14  C1  UNL     1      -7.259   1.263  16.389  1.00  0.00     0.010 C 
ENDBRANCH   9  13
BRANCH   9  15
HETATM   15  O1  UNL     1      -3.886  -0.163  15.698  1.00  0.00    -0.363 OA
ATOM     16  H1  UNL     1      -3.098   0.358  15.793  1.00  0.00     0.213 HD
ENDBRANCH   9  15
BRANCH  10  17
HETATM   17  O5  UNL     1      -3.462   2.142  16.516  1.00  0.00    -0.388 OA
ATOM     18  H5  UNL     1      -3.779   2.380  17.379  1.00  0.00     0.210 HD
ENDBRANCH  10  17
ENDBRANCH   1   7
TORSDOF 4
ENDMDL
