MODEL 1
REMARK VINA RESULT: -6.856293994      0.000      0.000
REMARK  3 active torsions:
REMARK  status: ('A' for Active; 'I' for Inactive)
REMARK    1  A    between atoms: C1_4  and  O1_5 
REMARK    2  A    between atoms: C1_4  and  C2_7 
REMARK    3  A    between atoms: C5_12  and  N3_13 
ROOT
HETATM    1  C2  UNL     1      -4.205   0.778  11.786  1.00  0.00     0.213 C 
HETATM    2  C3  UNL     1      -4.790   2.129  11.437  1.00  0.00     0.164 C 
HETATM    3  N2  UNL     1      -5.672   2.357  12.586  1.00  0.00    -0.163 NA
HETATM    4  O2  UNL     1      -5.619   3.609  13.020  1.00  0.00    -0.299 OA
HETATM    5  C4  UNL     1      -5.567   3.631  14.387  1.00  0.00     0.225 C 
HETATM    6  C5  UNL     1      -5.006   2.297  14.827  1.00  0.00     0.178 C 
HETATM    7  C9  UNL     1      -5.167   1.473  13.585  1.00  0.00     0.249 C 
HETATM    8  O3  UNL     1      -3.921   0.977  13.140  1.00  0.00    -0.352 OA
ENDROOT
BRANCH   1   9
HETATM    9  C1  UNL     1      -3.018   0.409  11.012  1.00  0.00     0.140 C 
HETATM   10  N1  UNL     1      -1.855   0.770  11.402  1.00  0.00    -0.381 N 
ATOM     11  H12 UNL     1      -1.028   0.513  10.864  1.00  0.00     0.158 HD
ATOM     12  H11 UNL     1      -1.798   1.316  12.262  1.00  0.00     0.158 HD
BRANCH   9  13
HETATM   13  O1  UNL     1      -3.094  -0.330   9.849  1.00  0.00    -0.348 OA
ATOM     14  H1  UNL     1      -3.717  -0.043   9.192  1.00  0.00     0.219 HD
ENDBRANCH   9  13
ENDBRANCH   1   9
BRANCH   6  15
HETATM   15  N3  UNL     1      -5.708   1.757  15.968  1.00  0.00    -0.293 N 
HETATM   16  C6  UNL     1      -6.716   2.273  16.688  1.00  0.00     0.112 A 
HETATM   17  C7  UNL     1      -7.069   1.406  17.685  1.00  0.00     0.037 A 
HETATM   18  C8  UNL     1      -6.224   0.318  17.547  1.00  0.00     0.108 A 
HETATM   19  N4  UNL     1      -5.433   0.583  16.506  1.00  0.00    -0.310 N 
ATOM     20  H4  UNL     1      -4.705  -0.045  16.167  1.00  0.00     0.186 HD
ENDBRANCH   6  15
TORSDOF 3
ENDMDL
MODEL 2
REMARK VINA RESULT: -6.787304155      2.013      5.500
REMARK  3 active torsions:
REMARK  status: ('A' for Active; 'I' for Inactive)
REMARK    1  A    between atoms: C1_4  and  O1_5 
REMARK    2  A    between atoms: C1_4  and  C2_7 
REMARK    3  A    between atoms: C5_12  and  N3_13 
ROOT
HETATM    1  C2  UNL     1      -5.590   1.185  16.089  1.00  0.00     0.213 C 
HETATM    2  C3  UNL     1      -5.961   2.567  15.597  1.00  0.00     0.164 C 
HETATM    3  N2  UNL     1      -5.064   2.703  14.444  1.00  0.00    -0.163 NA
HETATM    4  O2  UNL     1      -5.666   3.262  13.403  1.00  0.00    -0.299 OA
HETATM    5  C4  UNL     1      -5.334   2.596  12.255  1.00  0.00     0.225 C 
HETATM    6  C5  UNL     1      -4.928   1.197  12.660  1.00  0.00     0.178 C 
HETATM    7  C9  UNL     1      -4.702   1.358  14.133  1.00  0.00     0.249 C 
HETATM    8  O3  UNL     1      -5.542   0.497  14.874  1.00  0.00    -0.352 OA
ENDROOT
BRANCH   1   9
HETATM    9  C1  UNL     1      -6.545   0.596  17.030  1.00  0.00     0.140 C 
HETATM   10  N1  UNL     1      -7.663   1.172  17.261  1.00  0.00    -0.381 N 
ATOM     11  H12 UNL     1      -8.328   0.762  17.916  1.00  0.00     0.158 HD
ATOM     12  H11 UNL     1      -7.850   2.044  16.766  1.00  0.00     0.158 HD
BRANCH   9  13
HETATM   13  O1  UNL     1      -6.291  -0.583  17.700  1.00  0.00    -0.348 OA
ATOM     14  H1  UNL     1      -5.968  -1.315  17.186  1.00  0.00     0.219 HD
ENDBRANCH   9  13
ENDBRANCH   1   9
BRANCH   6  15
HETATM   15  N3  UNL     1      -3.758   0.737  11.948  1.00  0.00    -0.293 N 
HETATM   16  C6  UNL     1      -3.545  -0.408  11.282  1.00  0.00     0.112 A 
HETATM   17  C7  UNL     1      -2.281  -0.417  10.761  1.00  0.00     0.037 A 
HETATM   18  C8  UNL     1      -1.715   0.789  11.139  1.00  0.00     0.108 A 
HETATM   19  N4  UNL     1      -2.643   1.437  11.846  1.00  0.00    -0.310 N 
ATOM     20  H4  UNL     1      -2.508   2.360  12.258  1.00  0.00     0.186 HD
ENDBRANCH   6  15
TORSDOF 3
ENDMDL
MODEL 3
REMARK VINA RESULT: -6.699274363      2.230      3.175
REMARK  3 active torsions:
REMARK  status: ('A' for Active; 'I' for Inactive)
REMARK    1  A    between atoms: C1_4  and  O1_5 
REMARK    2  A    between atoms: C1_4  and  C2_7 
REMARK    3  A    between atoms: C5_12  and  N3_13 
ROOT
HETATM    1  C2  UNL     1      -3.877  -1.608  11.523  1.00  0.00     0.213 C 
HETATM    2  C3  UNL     1      -4.021  -0.827  10.235  1.00  0.00     0.164 C 
HETATM    3  N2  UNL     1      -4.853   0.296  10.682  1.00  0.00    -0.163 NA
HETATM    4  O2  UNL     1      -4.455   1.452  10.166  1.00  0.00    -0.299 OA
HETATM    5  C4  UNL     1      -4.465   2.424  11.129  1.00  0.00     0.225 C 
HETATM    6  C5  UNL     1      -4.343   1.723  12.464  1.00  0.00     0.178 C 
HETATM    7  C9  UNL     1      -4.678   0.309  12.098  1.00  0.00     0.249 C 
HETATM    8  O3  UNL     1      -3.613  -0.564  12.414  1.00  0.00    -0.352 OA
ENDROOT
BRANCH   1   9
HETATM    9  C1  UNL     1      -2.815  -2.616  11.509  1.00  0.00     0.140 C 
HETATM   10  N1  UNL     1      -1.589  -2.261  11.417  1.00  0.00    -0.381 N 
ATOM     11  H12 UNL     1      -0.850  -2.963  11.407  1.00  0.00     0.158 HD
ATOM     12  H11 UNL     1      -1.395  -1.262  11.356  1.00  0.00     0.158 HD
BRANCH   9  13
HETATM   13  O1  UNL     1      -3.078  -3.968  11.592  1.00  0.00    -0.348 OA
ATOM     14  H1  UNL     1      -3.883  -4.279  11.195  1.00  0.00     0.219 HD
ENDBRANCH   9  13
ENDBRANCH   1   9
BRANCH   6  15
HETATM   15  N3  UNL     1      -5.227   2.282  13.460  1.00  0.00    -0.293 N 
HETATM   16  C6  UNL     1      -5.533   1.841  14.690  1.00  0.00     0.112 A 
HETATM   17  C7  UNL     1      -6.423   2.694  15.283  1.00  0.00     0.037 A 
HETATM   18  C8  UNL     1      -6.656   3.693  14.354  1.00  0.00     0.108 A 
HETATM   19  N4  UNL     1      -5.915   3.394  13.284  1.00  0.00    -0.310 N 
ATOM     20  H4  UNL     1      -5.885   3.958  12.435  1.00  0.00     0.186 HD
ENDBRANCH   6  15
TORSDOF 3
ENDMDL
MODEL 4
REMARK VINA RESULT: -6.580902335      1.993      5.473
REMARK  3 active torsions:
REMARK  status: ('A' for Active; 'I' for Inactive)
REMARK    1  A    between atoms: C1_4  and  O1_5 
REMARK    2  A    between atoms: C1_4  and  C2_7 
REMARK    3  A    between atoms: C5_12  and  N3_13 
ROOT
HETATM    1  C2  UNL     1      -5.810   2.119  15.484  1.00  0.00     0.213 C 
HETATM    2  C3  UNL     1      -6.075   3.527  14.998  1.00  0.00     0.164 C 
HETATM    3  N2  UNL     1      -5.000   3.689  14.014  1.00  0.00    -0.163 NA
HETATM    4  O2  UNL     1      -5.414   4.302  12.914  1.00  0.00    -0.299 OA
HETATM    5  C4  UNL     1      -4.908   3.674  11.808  1.00  0.00     0.225 C 
HETATM    6  C5  UNL     1      -4.595   2.252  12.213  1.00  0.00     0.178 C 
HETATM    7  C9  UNL     1      -4.611   2.350  13.709  1.00  0.00     0.249 C 
HETATM    8  O3  UNL     1      -5.574   1.478  14.265  1.00  0.00    -0.352 OA
ENDROOT
BRANCH   1   9
HETATM    9  C1  UNL     1      -6.915   1.514  16.231  1.00  0.00     0.140 C 
HETATM   10  N1  UNL     1      -7.219   1.944  17.397  1.00  0.00    -0.381 N 
ATOM     11  H12 UNL     1      -7.989   1.522  17.916  1.00  0.00     0.158 HD
ATOM     12  H11 UNL     1      -6.664   2.713  17.770  1.00  0.00     0.158 HD
BRANCH   9  13
HETATM   13  O1  UNL     1      -7.667   0.472  15.725  1.00  0.00    -0.348 OA
ATOM     14  H1  UNL     1      -8.499   0.293  16.146  1.00  0.00     0.219 HD
ENDBRANCH   9  13
ENDBRANCH   1   9
BRANCH   6  15
HETATM   15  N3  UNL     1      -3.331   1.796  11.683  1.00  0.00    -0.293 N 
HETATM   16  C6  UNL     1      -3.010   0.636  11.088  1.00  0.00     0.112 A 
HETATM   17  C7  UNL     1      -1.686   0.639  10.746  1.00  0.00     0.037 A 
HETATM   18  C8  UNL     1      -1.197   1.866  11.161  1.00  0.00     0.108 A 
HETATM   19  N4  UNL     1      -2.224   2.514  11.713  1.00  0.00    -0.310 N 
ATOM     20  H4  UNL     1      -2.161   3.452  12.111  1.00  0.00     0.186 HD
ENDBRANCH   6  15
TORSDOF 3
ENDMDL
MODEL 5
REMARK VINA RESULT: -6.502090984      2.393      6.012
REMARK  3 active torsions:
REMARK  status: ('A' for Active; 'I' for Inactive)
REMARK    1  A    between atoms: C1_4  and  O1_5 
REMARK    2  A    between atoms: C1_4  and  C2_7 
REMARK    3  A    between atoms: C5_12  and  N3_13 
ROOT
HETATM    1  C2  UNL     1      -4.941   0.798  13.472  1.00  0.00     0.213 C 
HETATM    2  C3  UNL     1      -4.506  -0.437  12.715  1.00  0.00     0.164 C 
HETATM    3  N2  UNL     1      -3.949   0.163  11.498  1.00  0.00    -0.163 NA
HETATM    4  O2  UNL     1      -2.825  -0.428  11.116  1.00  0.00    -0.299 OA
HETATM    5  C4  UNL     1      -1.903   0.513  10.745  1.00  0.00     0.225 C 
HETATM    6  C5  UNL     1      -2.276   1.798  11.448  1.00  0.00     0.178 C 
HETATM    7  C9  UNL     1      -3.686   1.514  11.874  1.00  0.00     0.249 C 
HETATM    8  O3  UNL     1      -3.823   1.612  13.277  1.00  0.00    -0.352 OA
ENDROOT
BRANCH   1   9
HETATM    9  C1  UNL     1      -5.231   0.574  14.890  1.00  0.00     0.140 C 
HETATM   10  N1  UNL     1      -4.284   0.569  15.750  1.00  0.00    -0.381 N 
ATOM     11  H12 UNL     1      -4.486   0.412  16.737  1.00  0.00     0.158 HD
ATOM     12  H11 UNL     1      -3.338   0.726  15.404  1.00  0.00     0.158 HD
BRANCH   9  13
HETATM   13  O1  UNL     1      -6.511   0.360  15.358  1.00  0.00    -0.348 OA
ATOM     14  H1  UNL     1      -6.757  -0.535  15.560  1.00  0.00     0.219 HD
ENDBRANCH   9  13
ENDBRANCH   1   9
BRANCH   6  15
HETATM   15  N3  UNL     1      -2.160   2.950  10.585  1.00  0.00    -0.293 N 
HETATM   16  C6  UNL     1      -3.013   3.966  10.378  1.00  0.00     0.112 A 
HETATM   17  C7  UNL     1      -2.485   4.839   9.468  1.00  0.00     0.037 A 
HETATM   18  C8  UNL     1      -1.254   4.312   9.118  1.00  0.00     0.108 A 
HETATM   19  N4  UNL     1      -1.113   3.184   9.816  1.00  0.00    -0.310 N 
ATOM     20  H4  UNL     1      -0.296   2.576   9.762  1.00  0.00     0.186 HD
ENDBRANCH   6  15
TORSDOF 3
ENDMDL
