MODEL 1
REMARK VINA RESULT: -6.330310916      0.000      0.000
REMARK  3 active torsions:
REMARK  status: ('A' for Active; 'I' for Inactive)
REMARK    1  A    between atoms: C8_11  and  N2_12 
REMARK    2  A    between atoms: N2_12  and  C9_14 
REMARK    3  A    between atoms: C9_14  and  C10_15 
ROOT
HETATM    1  C1  UNL     1      63.495  86.260  14.855  1.00  0.00     0.019 C 
HETATM    2  C2  UNL     1      63.542  84.722  14.561  1.00  0.00    -0.002 C 
HETATM    3  C3  UNL     1      64.982  84.334  14.573  1.00  0.00     0.019 C 
HETATM    4  C4  UNL     1      63.054  84.629  13.121  1.00  0.00     0.012 C 
HETATM    5  C5  UNL     1      61.589  84.791  12.929  1.00  0.00     0.002 C 
HETATM    6  C6  UNL     1      60.940  83.422  12.873  1.00  0.00     0.027 C 
HETATM    7  C7  UNL     1      60.844  82.957  14.313  1.00  0.00     0.235 C 
HETATM    8  N1  UNL     1      62.155  82.774  14.845  1.00  0.00    -0.054 N 
ATOM      9  H11 UNL     1      62.811  82.448  14.135  1.00  0.00     0.279 HD
ATOM     10  H12 UNL     1      62.201  81.972  15.474  1.00  0.00     0.279 HD
HETATM   11  C8  UNL     1      62.637  84.041  15.515  1.00  0.00     0.287 C 
ENDROOT
BRANCH  11  12
HETATM   12  N2  UNL     1      63.085  83.667  16.788  1.00  0.00    -0.393 N 
ATOM     13  H2  UNL     1      63.291  84.376  17.491  1.00  0.00     0.155 HD
BRANCH  12  14
HETATM   14  C9  UNL     1      63.250  82.289  17.087  1.00  0.00     0.147 C 
BRANCH  14  15
HETATM   15  C10 UNL     1      62.412  81.995  18.363  1.00  0.00     0.241 C 
HETATM   16  F1  UNL     1      61.135  81.618  18.067  1.00  0.00    -0.254 F 
ENDBRANCH  14  15
ENDBRANCH  12  14
ENDBRANCH  11  12
TORSDOF 3
ENDMDL
MODEL 2
REMARK VINA RESULT: -5.043652532      2.254      3.988
REMARK  3 active torsions:
REMARK  status: ('A' for Active; 'I' for Inactive)
REMARK    1  A    between atoms: C8_11  and  N2_12 
REMARK    2  A    between atoms: N2_12  and  C9_14 
REMARK    3  A    between atoms: C9_14  and  C10_15 
ROOT
HETATM    1  C1  UNL     1      64.043  85.979  14.586  1.00  0.00     0.019 C 
HETATM    2  C2  UNL     1      62.913  85.404  15.508  1.00  0.00    -0.002 C 
HETATM    3  C3  UNL     1      62.266  86.577  16.163  1.00  0.00     0.019 C 
HETATM    4  C4  UNL     1      63.689  84.651  16.579  1.00  0.00     0.012 C 
HETATM    5  C5  UNL     1      64.249  83.338  16.162  1.00  0.00     0.002 C 
HETATM    6  C6  UNL     1      63.290  82.237  16.570  1.00  0.00     0.027 C 
HETATM    7  C7  UNL     1      62.183  82.255  15.535  1.00  0.00     0.235 C 
HETATM    8  N1  UNL     1      61.464  83.485  15.624  1.00  0.00    -0.054 N 
ATOM      9  H11 UNL     1      61.416  83.827  16.584  1.00  0.00     0.279 HD
ATOM     10  H12 UNL     1      60.466  83.354  15.459  1.00  0.00     0.279 HD
HETATM   11  C8  UNL     1      62.058  84.514  14.689  1.00  0.00     0.287 C 
ENDROOT
BRANCH  11  12
HETATM   12  N2  UNL     1      60.991  85.030  13.944  1.00  0.00    -0.393 N 
ATOM     13  H2  UNL     1      60.179  85.430  14.414  1.00  0.00     0.155 HD
BRANCH  12  14
HETATM   14  C9  UNL     1      61.052  84.989  12.526  1.00  0.00     0.147 C 
BRANCH  14  15
HETATM   15  C10 UNL     1      61.175  83.495  12.117  1.00  0.00     0.241 C 
HETATM   16  F1  UNL     1      62.474  83.087  12.034  1.00  0.00    -0.254 F 
ENDBRANCH  14  15
ENDBRANCH  12  14
ENDBRANCH  11  12
TORSDOF 3
ENDMDL
MODEL 3
REMARK VINA RESULT: -5.039859097      1.929      3.907
REMARK  3 active torsions:
REMARK  status: ('A' for Active; 'I' for Inactive)
REMARK    1  A    between atoms: C8_11  and  N2_12 
REMARK    2  A    between atoms: N2_12  and  C9_14 
REMARK    3  A    between atoms: C9_14  and  C10_15 
ROOT
HETATM    1  C1  UNL     1      65.215  84.448  14.672  1.00  0.00     0.019 C 
HETATM    2  C2  UNL     1      63.715  84.553  15.113  1.00  0.00    -0.002 C 
HETATM    3  C3  UNL     1      63.297  85.960  14.853  1.00  0.00     0.019 C 
HETATM    4  C4  UNL     1      63.783  84.366  16.622  1.00  0.00     0.012 C 
HETATM    5  C5  UNL     1      63.997  82.971  17.087  1.00  0.00     0.002 C 
HETATM    6  C6  UNL     1      62.656  82.345  17.417  1.00  0.00     0.027 C 
HETATM    7  C7  UNL     1      62.045  81.960  16.084  1.00  0.00     0.235 C 
HETATM    8  N1  UNL     1      61.779  83.137  15.321  1.00  0.00    -0.054 N 
ATOM      9  H11 UNL     1      61.514  83.922  15.916  1.00  0.00     0.279 HD
ATOM     10  H12 UNL     1      60.915  83.054  14.785  1.00  0.00     0.279 HD
HETATM   11  C8  UNL     1      62.958  83.473  14.437  1.00  0.00     0.287 C 
ENDROOT
BRANCH  11  12
HETATM   12  N2  UNL     1      62.444  83.655  13.148  1.00  0.00    -0.393 N 
ATOM     13  H2  UNL     1      63.072  83.819  12.361  1.00  0.00     0.155 HD
BRANCH  12  14
HETATM   14  C9  UNL     1      61.039  83.609  12.949  1.00  0.00     0.147 C 
BRANCH  14  15
HETATM   15  C10 UNL     1      60.548  85.077  12.816  1.00  0.00     0.241 C 
HETATM   16  F1  UNL     1      60.038  85.560  13.985  1.00  0.00    -0.254 F 
ENDBRANCH  14  15
ENDBRANCH  12  14
ENDBRANCH  11  12
TORSDOF 3
ENDMDL
MODEL 4
REMARK VINA RESULT: -5.026300896      2.445      4.180
REMARK  3 active torsions:
REMARK  status: ('A' for Active; 'I' for Inactive)
REMARK    1  A    between atoms: C8_11  and  N2_12 
REMARK    2  A    between atoms: N2_12  and  C9_14 
REMARK    3  A    between atoms: C9_14  and  C10_15 
ROOT
HETATM    1  C1  UNL     1      62.670  82.660  17.442  1.00  0.00     0.019 C 
HETATM    2  C2  UNL     1      63.337  83.569  16.353  1.00  0.00    -0.002 C 
HETATM    3  C3  UNL     1      64.625  82.912  15.986  1.00  0.00     0.019 C 
HETATM    4  C4  UNL     1      63.673  84.840  17.119  1.00  0.00     0.012 C 
HETATM    5  C5  UNL     1      62.523  85.738  17.406  1.00  0.00     0.002 C 
HETATM    6  C6  UNL     1      62.453  86.812  16.339  1.00  0.00     0.027 C 
HETATM    7  C7  UNL     1      61.818  86.149  15.133  1.00  0.00     0.235 C 
HETATM    8  N1  UNL     1      62.683  85.127  14.638  1.00  0.00    -0.054 N 
ATOM      9  H11 UNL     1      63.666  85.370  14.761  1.00  0.00     0.279 HD
ATOM     10  H12 UNL     1      62.665  85.076  13.619  1.00  0.00     0.279 HD
HETATM   11  C8  UNL     1      62.348  83.797  15.273  1.00  0.00     0.287 C 
ENDROOT
BRANCH  11  12
HETATM   12  N2  UNL     1      62.209  82.883  14.222  1.00  0.00    -0.393 N 
ATOM     13  H2  UNL     1      62.969  82.242  13.992  1.00  0.00     0.155 HD
BRANCH  12  14
HETATM   14  C9  UNL     1      60.999  82.858  13.480  1.00  0.00     0.147 C 
BRANCH  14  15
HETATM   15  C10 UNL     1      61.318  83.418  12.067  1.00  0.00     0.241 C 
HETATM   16  F1  UNL     1      61.064  84.755  11.970  1.00  0.00    -0.254 F 
ENDBRANCH  14  15
ENDBRANCH  12  14
ENDBRANCH  11  12
TORSDOF 3
ENDMDL
MODEL 5
REMARK VINA RESULT: -4.838668522      2.346      4.102
REMARK  3 active torsions:
REMARK  status: ('A' for Active; 'I' for Inactive)
REMARK    1  A    between atoms: C8_11  and  N2_12 
REMARK    2  A    between atoms: N2_12  and  C9_14 
REMARK    3  A    between atoms: C9_14  and  C10_15 
ROOT
HETATM    1  C1  UNL     1      64.101  86.051  14.988  1.00  0.00     0.019 C 
HETATM    2  C2  UNL     1      62.867  85.108  15.193  1.00  0.00    -0.002 C 
HETATM    3  C3  UNL     1      61.662  85.904  14.821  1.00  0.00     0.019 C 
HETATM    4  C4  UNL     1      62.833  84.904  16.702  1.00  0.00     0.012 C 
HETATM    5  C5  UNL     1      63.852  83.967  17.245  1.00  0.00     0.002 C 
HETATM    6  C6  UNL     1      63.233  82.590  17.391  1.00  0.00     0.027 C 
HETATM    7  C7  UNL     1      63.222  81.996  15.997  1.00  0.00     0.235 C 
HETATM    8  N1  UNL     1      62.351  82.756  15.160  1.00  0.00    -0.054 N 
ATOM      9  H11 UNL     1      61.554  83.126  15.678  1.00  0.00     0.279 HD
ATOM     10  H12 UNL     1      61.843  82.163  14.503  1.00  0.00     0.279 HD
HETATM   11  C8  UNL     1      63.118  83.850  14.452  1.00  0.00     0.287 C 
ENDROOT
BRANCH  11  12
HETATM   12  N2  UNL     1      62.796  83.741  13.094  1.00  0.00    -0.393 N 
ATOM     13  H2  UNL     1      63.278  84.314  12.402  1.00  0.00     0.155 HD
BRANCH  12  14
HETATM   14  C9  UNL     1      61.790  82.823  12.692  1.00  0.00     0.147 C 
BRANCH  14  15
HETATM   15  C10 UNL     1      60.577  83.660  12.200  1.00  0.00     0.241 C 
HETATM   16  F1  UNL     1      60.930  84.936  11.869  1.00  0.00    -0.254 F 
ENDBRANCH  14  15
ENDBRANCH  12  14
ENDBRANCH  11  12
TORSDOF 3
ENDMDL
