MODEL 1
REMARK VINA RESULT: -6.196439137      0.000      0.000
REMARK  3 active torsions:
REMARK  status: ('A' for Active; 'I' for Inactive)
REMARK    1  A    between atoms: C2_2  and  N1_3 
REMARK    2  A    between atoms: N1_3  and  C3_5 
REMARK    3  A    between atoms: C6_8  and  O1_9 
ROOT
HETATM    1  C3  UNL     1      62.525  85.014  14.593  1.00  0.00     0.111 C 
HETATM    2  C4  UNL     1      61.007  84.980  14.348  1.00  0.00     0.030 C 
HETATM    3  C5  UNL     1      60.854  85.195  12.862  1.00  0.00     0.034 C 
HETATM    4  C6  UNL     1      61.220  83.836  12.255  1.00  0.00     0.121 C 
HETATM    5  C7  UNL     1      62.626  83.497  12.579  1.00  0.00     0.071 C 
HETATM    6  C8  UNL     1      63.330  84.348  13.576  1.00  0.00     0.194 C 
HETATM    7  F1  UNL     1      64.091  85.269  12.823  1.00  0.00    -0.247 F 
ENDROOT
BRANCH   1   8
HETATM    8  N1  UNL     1      62.787  84.720  15.980  1.00  0.00    -0.406 N 
ATOM      9  H1  UNL     1      62.521  85.360  16.728  1.00  0.00     0.154 HD
BRANCH   8  10
HETATM   10  C2  UNL     1      63.446  83.467  16.247  1.00  0.00     0.022 A 
HETATM   11  C1  UNL     1      64.966  83.413  16.110  1.00  0.00     0.038 C 
HETATM   12  C9  UNL     1      62.753  82.155  16.112  1.00  0.00     0.032 A 
HETATM   13  C10 UNL     1      62.902  82.755  17.474  1.00  0.00     0.032 A 
ENDBRANCH   8  10
ENDBRANCH   1   8
BRANCH   4  14
HETATM   14  O1  UNL     1      60.339  82.917  12.858  1.00  0.00    -0.395 OA
ATOM     15  H1  UNL     1      60.873  82.156  13.055  1.00  0.00     0.210 HD
ENDBRANCH   4  14
TORSDOF 3
ENDMDL
MODEL 2
REMARK VINA RESULT: -6.180621338      1.037      1.571
REMARK  3 active torsions:
REMARK  status: ('A' for Active; 'I' for Inactive)
REMARK    1  A    between atoms: C2_2  and  N1_3 
REMARK    2  A    between atoms: N1_3  and  C3_5 
REMARK    3  A    between atoms: C6_8  and  O1_9 
ROOT
HETATM    1  C3  UNL     1      62.273  83.737  14.675  1.00  0.00     0.111 C 
HETATM    2  C4  UNL     1      60.768  83.977  14.465  1.00  0.00     0.030 C 
HETATM    3  C5  UNL     1      60.697  85.067  13.423  1.00  0.00     0.034 C 
HETATM    4  C6  UNL     1      61.006  84.341  12.109  1.00  0.00     0.121 C 
HETATM    5  C7  UNL     1      62.372  83.767  12.154  1.00  0.00     0.071 C 
HETATM    6  C8  UNL     1      63.081  83.774  13.462  1.00  0.00     0.194 C 
HETATM    7  F1  UNL     1      63.930  84.900  13.431  1.00  0.00    -0.247 F 
ENDROOT
BRANCH   1   8
HETATM    8  N1  UNL     1      62.453  82.636  15.589  1.00  0.00    -0.406 N 
ATOM      9  H1  UNL     1      62.206  81.680  15.338  1.00  0.00     0.154 HD
BRANCH   8  10
HETATM   10  C2  UNL     1      63.000  82.968  16.879  1.00  0.00     0.022 A 
HETATM   11  C1  UNL     1      62.565  82.132  18.081  1.00  0.00     0.038 C 
HETATM   12  C9  UNL     1      63.498  84.334  17.208  1.00  0.00     0.032 A 
HETATM   13  C10 UNL     1      64.488  83.276  16.836  1.00  0.00     0.032 A 
ENDBRANCH   8  10
ENDBRANCH   1   8
BRANCH   4  14
HETATM   14  O1  UNL     1      60.042  83.315  12.023  1.00  0.00    -0.395 OA
ATOM     15  H1  UNL     1      60.194  82.905  11.179  1.00  0.00     0.210 HD
ENDBRANCH   4  14
TORSDOF 3
ENDMDL
MODEL 3
REMARK VINA RESULT: -5.628781840      2.115      4.221
REMARK  3 active torsions:
REMARK  status: ('A' for Active; 'I' for Inactive)
REMARK    1  A    between atoms: C2_2  and  N1_3 
REMARK    2  A    between atoms: N1_3  and  C3_5 
REMARK    3  A    between atoms: C6_8  and  O1_9 
ROOT
HETATM    1  C3  UNL     1      63.500  84.980  14.570  1.00  0.00     0.111 C 
HETATM    2  C4  UNL     1      64.506  83.817  14.633  1.00  0.00     0.030 C 
HETATM    3  C5  UNL     1      65.004  83.821  16.058  1.00  0.00     0.034 C 
HETATM    4  C6  UNL     1      63.856  83.182  16.849  1.00  0.00     0.121 C 
HETATM    5  C7  UNL     1      62.634  84.013  16.734  1.00  0.00     0.071 C 
HETATM    6  C8  UNL     1      62.644  85.122  15.742  1.00  0.00     0.194 C 
HETATM    7  F1  UNL     1      62.950  86.288  16.476  1.00  0.00    -0.247 F 
ENDROOT
BRANCH   1   8
HETATM    8  N1  UNL     1      62.888  85.004  13.264  1.00  0.00    -0.406 N 
ATOM      9  H1  UNL     1      63.363  85.397  12.452  1.00  0.00     0.154 HD
BRANCH   8  10
HETATM   10  C2  UNL     1      61.566  84.440  13.175  1.00  0.00     0.022 A 
HETATM   11  C1  UNL     1      60.375  85.355  13.451  1.00  0.00     0.038 C 
HETATM   12  C9  UNL     1      61.302  82.986  13.370  1.00  0.00     0.032 A 
HETATM   13  C10 UNL     1      61.386  83.522  11.977  1.00  0.00     0.032 A 
ENDBRANCH   8  10
ENDBRANCH   1   8
BRANCH   4  14
HETATM   14  O1  UNL     1      63.655  81.922  16.248  1.00  0.00    -0.395 OA
ATOM     15  H1  UNL     1      62.723  81.884  16.064  1.00  0.00     0.210 HD
ENDBRANCH   4  14
TORSDOF 3
ENDMDL
MODEL 4
REMARK VINA RESULT: -5.413060028      2.597      4.568
REMARK  3 active torsions:
REMARK  status: ('A' for Active; 'I' for Inactive)
REMARK    1  A    between atoms: C2_2  and  N1_3 
REMARK    2  A    between atoms: N1_3  and  C3_5 
REMARK    3  A    between atoms: C6_8  and  O1_9 
ROOT
HETATM    1  C3  UNL     1      62.422  84.262  15.033  1.00  0.00     0.111 C 
HETATM    2  C4  UNL     1      63.484  85.031  15.838  1.00  0.00     0.030 C 
HETATM    3  C5  UNL     1      63.319  84.540  17.255  1.00  0.00     0.034 C 
HETATM    4  C6  UNL     1      63.985  83.160  17.246  1.00  0.00     0.121 C 
HETATM    5  C7  UNL     1      63.275  82.258  16.309  1.00  0.00     0.071 C 
HETATM    6  C8  UNL     1      62.256  82.862  15.408  1.00  0.00     0.194 C 
HETATM    7  F1  UNL     1      61.010  82.630  16.030  1.00  0.00    -0.247 F 
ENDROOT
BRANCH   1   8
HETATM    8  N1  UNL     1      62.560  84.588  13.635  1.00  0.00    -0.406 N 
ATOM      9  H1  UNL     1      63.453  84.874  13.233  1.00  0.00     0.154 HD
BRANCH   8  10
HETATM   10  C2  UNL     1      61.363  84.487  12.841  1.00  0.00     0.022 A 
HETATM   11  C1  UNL     1      60.600  85.771  12.527  1.00  0.00     0.038 C 
HETATM   12  C9  UNL     1      60.552  83.238  12.774  1.00  0.00     0.032 A 
HETATM   13  C10 UNL     1      61.507  83.538  11.662  1.00  0.00     0.032 A 
ENDBRANCH   8  10
ENDBRANCH   1   8
BRANCH   4  14
HETATM   14  O1  UNL     1      65.303  83.393  16.803  1.00  0.00    -0.395 OA
ATOM     15  H1  UNL     1      65.463  82.726  16.145  1.00  0.00     0.210 HD
ENDBRANCH   4  14
TORSDOF 3
ENDMDL
MODEL 5
REMARK VINA RESULT: -5.350826150      1.749      2.112
REMARK  3 active torsions:
REMARK  status: ('A' for Active; 'I' for Inactive)
REMARK    1  A    between atoms: C2_2  and  N1_3 
REMARK    2  A    between atoms: N1_3  and  C3_5 
REMARK    3  A    between atoms: C6_8  and  O1_9 
ROOT
HETATM    1  C3  UNL     1      61.529  84.372  14.913  1.00  0.00     0.111 C 
HETATM    2  C4  UNL     1      61.675  82.906  14.468  1.00  0.00     0.030 C 
HETATM    3  C5  UNL     1      60.536  82.684  13.503  1.00  0.00     0.034 C 
HETATM    4  C6  UNL     1      61.008  83.369  12.215  1.00  0.00     0.121 C 
HETATM    5  C7  UNL     1      61.201  84.820  12.451  1.00  0.00     0.071 C 
HETATM    6  C8  UNL     1      61.148  85.303  13.858  1.00  0.00     0.194 C 
HETATM    7  F1  UNL     1      59.840  85.800  14.043  1.00  0.00    -0.247 F 
ENDROOT
BRANCH   1   8
HETATM    8  N1  UNL     1      62.635  84.717  15.771  1.00  0.00    -0.406 N 
ATOM      9  H1  UNL     1      62.561  85.445  16.481  1.00  0.00     0.154 HD
BRANCH   8  10
HETATM   10  C2  UNL     1      63.851  83.974  15.565  1.00  0.00     0.022 A 
HETATM   11  C1  UNL     1      64.752  84.379  14.401  1.00  0.00     0.038 C 
HETATM   12  C9  UNL     1      64.016  82.568  16.031  1.00  0.00     0.032 A 
HETATM   13  C10 UNL     1      64.594  83.673  16.856  1.00  0.00     0.032 A 
ENDBRANCH   8  10
ENDBRANCH   1   8
BRANCH   4  14
HETATM   14  O1  UNL     1      62.236  82.753  11.902  1.00  0.00    -0.395 OA
ATOM     15  H1  UNL     1      62.654  82.597  12.741  1.00  0.00     0.210 HD
ENDBRANCH   4  14
TORSDOF 3
ENDMDL
