MODEL 1
REMARK VINA RESULT: -6.950582845      0.000      0.000
REMARK  2 active torsions:
REMARK  status: ('A' for Active; 'I' for Inactive)
REMARK    1  A    between atoms: N1_2  and  N2_3 
REMARK    2  A    between atoms: N2_3  and  C2_5 
ROOT
HETATM    1  C2  UNL     1      63.287  83.380  15.681  1.00  0.00     0.046 C 
HETATM    2  C3  UNL     1      62.902  84.645  16.403  1.00  0.00     0.036 C 
HETATM    3  C4  UNL     1      62.549  85.704  15.378  1.00  0.00    -0.009 C 
HETATM    4  C5  UNL     1      63.765  86.021  14.559  1.00  0.00     0.009 C 
HETATM    5  C6  UNL     1      64.214  84.765  13.835  1.00  0.00    -0.009 C 
HETATM    6  C7  UNL     1      63.097  84.369  12.916  1.00  0.00     0.048 C 
HETATM    7  C8  UNL     1      61.865  84.042  13.731  1.00  0.00     0.106 C 
HETATM    8  F1  UNL     1      60.892  83.572  12.882  1.00  0.00    -0.243 F 
HETATM    9  C9  UNL     1      61.392  85.211  14.553  1.00  0.00     0.048 C 
HETATM   10  C10 UNL     1      62.217  82.945  14.688  1.00  0.00     0.075 C 
HETATM   11  C11 UNL     1      64.529  83.712  14.866  1.00  0.00     0.036 C 
ENDROOT
BRANCH   1  12
HETATM   12  N2  UNL     1      63.494  82.262  16.532  1.00  0.00    -0.330 N 
ATOM     13  H2  UNL     1      63.658  81.329  16.154  1.00  0.00     0.176 HD
BRANCH  12  14
HETATM   14  N1  UNL     1      63.465  82.491  17.873  1.00  0.00    -0.150 NA
HETATM   15  C1  UNL     1      62.222  81.937  18.399  1.00  0.00     0.158 C 
ENDBRANCH  12  14
ENDBRANCH   1  12
TORSDOF 2
ENDMDL
MODEL 2
REMARK VINA RESULT: -6.923622590      1.154      2.154
REMARK  2 active torsions:
REMARK  status: ('A' for Active; 'I' for Inactive)
REMARK    1  A    between atoms: N1_2  and  N2_3 
REMARK    2  A    between atoms: N2_3  and  C2_5 
ROOT
HETATM    1  C2  UNL     1      62.951  83.358  15.558  1.00  0.00     0.046 C 
HETATM    2  C3  UNL     1      61.621  83.072  14.911  1.00  0.00     0.036 C 
HETATM    3  C4  UNL     1      61.313  84.173  13.917  1.00  0.00    -0.009 C 
HETATM    4  C5  UNL     1      61.171  85.473  14.652  1.00  0.00     0.009 C 
HETATM    5  C6  UNL     1      62.479  85.791  15.351  1.00  0.00    -0.009 C 
HETATM    6  C7  UNL     1      63.518  85.948  14.281  1.00  0.00     0.048 C 
HETATM    7  C8  UNL     1      63.676  84.642  13.535  1.00  0.00     0.106 C 
HETATM    8  F1  UNL     1      64.710  84.772  12.640  1.00  0.00    -0.243 F 
HETATM    9  C9  UNL     1      62.397  84.199  12.875  1.00  0.00     0.048 C 
HETATM   10  C10 UNL     1      64.048  83.581  14.526  1.00  0.00     0.075 C 
HETATM   11  C11 UNL     1      62.787  84.671  16.311  1.00  0.00     0.036 C 
ENDROOT
BRANCH   1  12
HETATM   12  N2  UNL     1      63.426  82.319  16.401  1.00  0.00    -0.330 N 
ATOM     13  H2  UNL     1      63.688  81.407  16.026  1.00  0.00     0.176 HD
BRANCH  12  14
HETATM   14  N1  UNL     1      63.516  82.593  17.731  1.00  0.00    -0.150 NA
HETATM   15  C1  UNL     1      62.393  81.947  18.402  1.00  0.00     0.158 C 
ENDBRANCH  12  14
ENDBRANCH   1  12
TORSDOF 2
ENDMDL
MODEL 3
REMARK VINA RESULT: -6.890519813      1.333      2.379
REMARK  2 active torsions:
REMARK  status: ('A' for Active; 'I' for Inactive)
REMARK    1  A    between atoms: N1_2  and  N2_3 
REMARK    2  A    between atoms: N2_3  and  C2_5 
ROOT
HETATM    1  C2  UNL     1      63.474  83.671  15.930  1.00  0.00     0.046 C 
HETATM    2  C3  UNL     1      64.630  83.899  14.992  1.00  0.00     0.036 C 
HETATM    3  C4  UNL     1      64.189  84.844  13.893  1.00  0.00    -0.009 C 
HETATM    4  C5  UNL     1      63.099  84.193  13.093  1.00  0.00     0.009 C 
HETATM    5  C6  UNL     1      61.919  83.910  14.004  1.00  0.00    -0.009 C 
HETATM    6  C7  UNL     1      61.429  85.236  14.506  1.00  0.00     0.048 C 
HETATM    7  C8  UNL     1      62.517  85.901  15.319  1.00  0.00     0.106 C 
HETATM    8  F1  UNL     1      62.011  87.056  15.864  1.00  0.00    -0.243 F 
HETATM    9  C9  UNL     1      63.767  86.146  14.516  1.00  0.00     0.048 C 
HETATM   10  C10 UNL     1      62.889  84.981  16.441  1.00  0.00     0.075 C 
HETATM   11  C11 UNL     1      62.384  82.997  15.109  1.00  0.00     0.036 C 
ENDROOT
BRANCH   1  12
HETATM   12  N2  UNL     1      63.803  82.922  17.091  1.00  0.00    -0.330 N 
ATOM     13  H2  UNL     1      64.564  83.205  17.709  1.00  0.00     0.176 HD
BRANCH  12  14
HETATM   14  N1  UNL     1      63.060  81.810  17.341  1.00  0.00    -0.150 NA
HETATM   15  C1  UNL     1      62.262  82.060  18.537  1.00  0.00     0.158 C 
ENDBRANCH  12  14
ENDBRANCH   1  12
TORSDOF 2
ENDMDL
MODEL 4
REMARK VINA RESULT: -6.276639531      2.345      3.587
REMARK  2 active torsions:
REMARK  status: ('A' for Active; 'I' for Inactive)
REMARK    1  A    between atoms: N1_2  and  N2_3 
REMARK    2  A    between atoms: N2_3  and  C2_5 
ROOT
HETATM    1  C2  UNL     1      62.033  83.782  14.549  1.00  0.00     0.046 C 
HETATM    2  C3  UNL     1      62.444  82.934  15.725  1.00  0.00     0.036 C 
HETATM    3  C4  UNL     1      63.558  83.640  16.471  1.00  0.00    -0.009 C 
HETATM    4  C5  UNL     1      64.755  83.755  15.575  1.00  0.00     0.009 C 
HETATM    5  C6  UNL     1      64.382  84.575  14.354  1.00  0.00    -0.009 C 
HETATM    6  C7  UNL     1      64.008  85.942  14.846  1.00  0.00     0.048 C 
HETATM    7  C8  UNL     1      62.798  85.842  15.748  1.00  0.00     0.106 C 
HETATM    8  F1  UNL     1      62.404  87.111  16.093  1.00  0.00    -0.243 F 
HETATM    9  C9  UNL     1      63.048  84.972  16.951  1.00  0.00     0.048 C 
HETATM   10  C10 UNL     1      61.688  85.205  14.968  1.00  0.00     0.075 C 
HETATM   11  C11 UNL     1      63.252  83.877  13.643  1.00  0.00     0.036 C 
ENDROOT
BRANCH   1  12
HETATM   12  N2  UNL     1      60.892  83.302  13.854  1.00  0.00    -0.330 N 
ATOM     13  H2  UNL     1      60.402  82.459  14.153  1.00  0.00     0.176 HD
BRANCH  12  14
HETATM   14  N1  UNL     1      60.480  84.017  12.772  1.00  0.00    -0.150 NA
HETATM   15  C1  UNL     1      61.165  83.490  11.596  1.00  0.00     0.158 C 
ENDBRANCH  12  14
ENDBRANCH   1  12
TORSDOF 2
ENDMDL
MODEL 5
REMARK VINA RESULT: -6.091625067      1.064      1.509
REMARK  2 active torsions:
REMARK  status: ('A' for Active; 'I' for Inactive)
REMARK    1  A    between atoms: N1_2  and  N2_3 
REMARK    2  A    between atoms: N2_3  and  C2_5 
ROOT
HETATM    1  C2  UNL     1      62.780  83.201  15.284  1.00  0.00     0.046 C 
HETATM    2  C3  UNL     1      63.872  84.202  15.559  1.00  0.00     0.036 C 
HETATM    3  C4  UNL     1      63.697  85.384  14.628  1.00  0.00    -0.009 C 
HETATM    4  C5  UNL     1      63.873  84.925  13.211  1.00  0.00     0.009 C 
HETATM    5  C6  UNL     1      62.814  83.886  12.893  1.00  0.00    -0.009 C 
HETATM    6  C7  UNL     1      61.483  84.566  13.023  1.00  0.00     0.048 C 
HETATM    7  C8  UNL     1      61.291  85.031  14.450  1.00  0.00     0.106 C 
HETATM    8  F1  UNL     1      60.024  85.546  14.574  1.00  0.00    -0.243 F 
HETATM    9  C9  UNL     1      62.352  86.006  14.885  1.00  0.00     0.048 C 
HETATM   10  C10 UNL     1      61.397  83.836  15.347  1.00  0.00     0.075 C 
HETATM   11  C11 UNL     1      62.980  82.733  13.849  1.00  0.00     0.036 C 
ENDROOT
BRANCH   1  12
HETATM   12  N2  UNL     1      62.742  82.113  16.196  1.00  0.00    -0.330 N 
ATOM     13  H2  UNL     1      62.277  81.236  15.959  1.00  0.00     0.176 HD
BRANCH  12  14
HETATM   14  N1  UNL     1      63.353  82.291  17.399  1.00  0.00    -0.150 NA
HETATM   15  C1  UNL     1      62.356  82.089  18.445  1.00  0.00     0.158 C 
ENDBRANCH  12  14
ENDBRANCH   1  12
TORSDOF 2
ENDMDL
