MODEL 1
REMARK VINA RESULT: -5.556151959      0.000      0.000
REMARK  4 active torsions:
REMARK  status: ('A' for Active; 'I' for Inactive)
REMARK    1  A    between atoms: C2_2  and  N1_4 
REMARK    2  A    between atoms: C2_2  and  C4_8 
REMARK    3  A    between atoms: C9_13  and  C10_14 
REMARK    4  A    between atoms: C10_14  and  N2_15 
ROOT
HETATM    1  C4  UNL     1      62.492  84.679  14.775  1.00  0.00     0.026 C 
HETATM    2  C5  UNL     1      61.722  85.949  15.080  1.00  0.00     0.007 C 
HETATM    3  C6  UNL     1      62.406  86.873  16.037  1.00  0.00     0.000 C 
HETATM    4  C7  UNL     1      62.556  86.086  17.347  1.00  0.00     0.000 C 
HETATM    5  C8  UNL     1      63.415  84.923  17.017  1.00  0.00     0.007 C 
HETATM    6  C9  UNL     1      62.780  83.962  16.015  1.00  0.00     0.017 C 
ENDROOT
BRANCH   1   7
HETATM    7  C2  UNL     1      61.642  84.013  13.749  1.00  0.00     0.120 C 
HETATM    8  C1  UNL     1      60.707  82.982  14.364  1.00  0.00     0.046 C 
HETATM    9  C3  UNL     1      62.310  83.374  12.609  1.00  0.00     0.046 C 
BRANCH   7  10
HETATM   10  N1  UNL     1      60.755  85.059  13.203  1.00  0.00    -0.071 N 
ATOM     11  H13 UNL     1      59.956  85.275  13.799  1.00  0.00     0.275 HD
ATOM     12  H12 UNL     1      61.165  85.993  13.213  1.00  0.00     0.275 HD
ATOM     13  H11 UNL     1      60.499  84.732  12.271  1.00  0.00     0.275 HD
ENDBRANCH   7  10
ENDBRANCH   1   7
BRANCH   6  14
HETATM   14  C10 UNL     1      63.774  82.836  15.935  1.00  0.00     0.234 C 
BRANCH  14  15
HETATM   15  N2  UNL     1      65.097  83.462  16.120  1.00  0.00    -0.079 N 
ATOM     16  H23 UNL     1      65.644  83.524  15.261  1.00  0.00     0.274 HD
ATOM     17  H22 UNL     1      65.053  84.464  16.307  1.00  0.00     0.274 HD
ATOM     18  H21 UNL     1      65.553  82.925  16.858  1.00  0.00     0.274 HD
ENDBRANCH  14  15
ENDBRANCH   6  14
TORSDOF 4
ENDMDL
MODEL 2
REMARK VINA RESULT: -5.493920831      0.835      1.188
REMARK  4 active torsions:
REMARK  status: ('A' for Active; 'I' for Inactive)
REMARK    1  A    between atoms: C2_2  and  N1_4 
REMARK    2  A    between atoms: C2_2  and  C4_8 
REMARK    3  A    between atoms: C9_13  and  C10_14 
REMARK    4  A    between atoms: C10_14  and  N2_15 
ROOT
HETATM    1  C4  UNL     1      62.506  84.687  14.799  1.00  0.00     0.026 C 
HETATM    2  C5  UNL     1      61.749  85.967  15.094  1.00  0.00     0.007 C 
HETATM    3  C6  UNL     1      62.430  86.879  16.064  1.00  0.00     0.000 C 
HETATM    4  C7  UNL     1      62.549  86.087  17.375  1.00  0.00     0.000 C 
HETATM    5  C8  UNL     1      63.397  84.913  17.055  1.00  0.00     0.007 C 
HETATM    6  C9  UNL     1      62.765  83.963  16.041  1.00  0.00     0.017 C 
ENDROOT
BRANCH   1   7
HETATM    7  C2  UNL     1      61.664  84.034  13.758  1.00  0.00     0.120 C 
HETATM    8  C1  UNL     1      60.788  85.036  13.021  1.00  0.00     0.046 C 
HETATM    9  C3  UNL     1      60.804  82.917  14.167  1.00  0.00     0.046 C 
BRANCH   7  10
HETATM   10  N1  UNL     1      62.596  83.514  12.738  1.00  0.00    -0.071 N 
ATOM     11  H13 UNL     1      62.146  83.267  11.856  1.00  0.00     0.275 HD
ATOM     12  H12 UNL     1      63.224  84.220  12.355  1.00  0.00     0.275 HD
ATOM     13  H11 UNL     1      63.077  82.735  13.189  1.00  0.00     0.275 HD
ENDBRANCH   7  10
ENDBRANCH   1   7
BRANCH   6  14
HETATM   14  C10 UNL     1      63.745  82.823  15.975  1.00  0.00     0.234 C 
BRANCH  14  15
HETATM   15  N2  UNL     1      65.081  83.447  16.020  1.00  0.00    -0.079 N 
ATOM     16  H23 UNL     1      65.271  84.066  15.232  1.00  0.00     0.274 HD
ATOM     17  H22 UNL     1      65.180  84.151  16.753  1.00  0.00     0.274 HD
ATOM     18  H21 UNL     1      65.741  82.674  16.102  1.00  0.00     0.274 HD
ENDBRANCH  14  15
ENDBRANCH   6  14
TORSDOF 4
ENDMDL
MODEL 3
REMARK VINA RESULT: -5.493498009      1.677      3.871
REMARK  4 active torsions:
REMARK  status: ('A' for Active; 'I' for Inactive)
REMARK    1  A    between atoms: C2_2  and  N1_4 
REMARK    2  A    between atoms: C2_2  and  C4_8 
REMARK    3  A    between atoms: C9_13  and  C10_14 
REMARK    4  A    between atoms: C10_14  and  N2_15 
ROOT
HETATM    1  C4  UNL     1      62.914  83.548  15.096  1.00  0.00     0.026 C 
HETATM    2  C5  UNL     1      61.525  82.956  15.222  1.00  0.00     0.007 C 
HETATM    3  C6  UNL     1      60.800  82.793  13.924  1.00  0.00     0.000 C 
HETATM    4  C7  UNL     1      60.661  84.206  13.339  1.00  0.00     0.000 C 
HETATM    5  C8  UNL     1      62.047  84.687  13.124  1.00  0.00     0.007 C 
HETATM    6  C9  UNL     1      62.846  84.840  14.417  1.00  0.00     0.017 C 
ENDROOT
BRANCH   1   7
HETATM    7  C2  UNL     1      63.423  83.507  16.495  1.00  0.00     0.120 C 
HETATM    8  C1  UNL     1      62.891  82.305  17.261  1.00  0.00     0.046 C 
HETATM    9  C3  UNL     1      63.218  84.691  17.339  1.00  0.00     0.046 C 
BRANCH   7  10
HETATM   10  N1  UNL     1      64.880  83.288  16.400  1.00  0.00    -0.071 N 
ATOM     11  H13 UNL     1      65.374  83.411  17.284  1.00  0.00     0.275 HD
ATOM     12  H12 UNL     1      65.142  82.314  16.253  1.00  0.00     0.275 HD
ATOM     13  H11 UNL     1      65.195  83.916  15.660  1.00  0.00     0.275 HD
ENDBRANCH   7  10
ENDBRANCH   1   7
BRANCH   6  14
HETATM   14  C10 UNL     1      64.147  85.436  13.953  1.00  0.00     0.234 C 
BRANCH  14  15
HETATM   15  N2  UNL     1      64.680  84.492  12.952  1.00  0.00    -0.079 N 
ATOM     16  H23 UNL     1      63.987  84.186  12.268  1.00  0.00     0.274 HD
ATOM     17  H22 UNL     1      65.324  84.921  12.287  1.00  0.00     0.274 HD
ATOM     18  H21 UNL     1      65.091  83.728  13.488  1.00  0.00     0.274 HD
ENDBRANCH  14  15
ENDBRANCH   6  14
TORSDOF 4
ENDMDL
MODEL 4
REMARK VINA RESULT: -5.387219098      1.819      2.847
REMARK  4 active torsions:
REMARK  status: ('A' for Active; 'I' for Inactive)
REMARK    1  A    between atoms: C2_2  and  N1_4 
REMARK    2  A    between atoms: C2_2  and  C4_8 
REMARK    3  A    between atoms: C9_13  and  C10_14 
REMARK    4  A    between atoms: C10_14  and  N2_15 
ROOT
HETATM    1  C4  UNL     1      62.110  84.018  14.982  1.00  0.00     0.026 C 
HETATM    2  C5  UNL     1      62.304  82.569  15.381  1.00  0.00     0.007 C 
HETATM    3  C6  UNL     1      62.875  82.374  16.750  1.00  0.00     0.000 C 
HETATM    4  C7  UNL     1      64.255  83.048  16.730  1.00  0.00     0.000 C 
HETATM    5  C8  UNL     1      63.994  84.482  16.455  1.00  0.00     0.007 C 
HETATM    6  C9  UNL     1      63.378  84.736  15.082  1.00  0.00     0.017 C 
ENDROOT
BRANCH   1   7
HETATM    7  C2  UNL     1      61.456  83.911  13.647  1.00  0.00     0.120 C 
HETATM    8  C1  UNL     1      62.454  83.582  12.548  1.00  0.00     0.046 C 
HETATM    9  C3  UNL     1      60.648  85.045  13.182  1.00  0.00     0.046 C 
BRANCH   7  10
HETATM   10  N1  UNL     1      60.561  82.740  13.718  1.00  0.00    -0.071 N 
ATOM     11  H13 UNL     1      59.826  82.739  13.010  1.00  0.00     0.275 HD
ATOM     12  H12 UNL     1      61.001  81.866  13.432  1.00  0.00     0.275 HD
ATOM     13  H11 UNL     1      60.210  82.730  14.676  1.00  0.00     0.275 HD
ENDBRANCH   7  10
ENDBRANCH   1   7
BRANCH   6  14
HETATM   14  C10 UNL     1      63.319  86.238  15.000  1.00  0.00     0.234 C 
BRANCH  14  15
HETATM   15  N2  UNL     1      62.363  86.654  16.044  1.00  0.00    -0.079 N 
ATOM     16  H23 UNL     1      61.687  85.930  16.292  1.00  0.00     0.274 HD
ATOM     17  H22 UNL     1      62.783  86.750  16.969  1.00  0.00     0.274 HD
ATOM     18  H21 UNL     1      61.935  87.512  15.696  1.00  0.00     0.274 HD
ENDBRANCH  14  15
ENDBRANCH   6  14
TORSDOF 4
ENDMDL
MODEL 5
REMARK VINA RESULT: -5.338587665      2.034      2.530
REMARK  4 active torsions:
REMARK  status: ('A' for Active; 'I' for Inactive)
REMARK    1  A    between atoms: C2_2  and  N1_4 
REMARK    2  A    between atoms: C2_2  and  C4_8 
REMARK    3  A    between atoms: C9_13  and  C10_14 
REMARK    4  A    between atoms: C10_14  and  N2_15 
ROOT
HETATM    1  C4  UNL     1      62.598  83.354  14.118  1.00  0.00     0.026 C 
HETATM    2  C5  UNL     1      63.104  84.534  13.313  1.00  0.00     0.007 C 
HETATM    3  C6  UNL     1      64.594  84.626  13.218  1.00  0.00     0.000 C 
HETATM    4  C7  UNL     1      65.098  84.787  14.659  1.00  0.00     0.000 C 
HETATM    5  C8  UNL     1      64.680  83.553  15.368  1.00  0.00     0.007 C 
HETATM    6  C9  UNL     1      63.165  83.390  15.464  1.00  0.00     0.017 C 
ENDROOT
BRANCH   1   7
HETATM    7  C2  UNL     1      61.120  83.457  13.967  1.00  0.00     0.120 C 
HETATM    8  C1  UNL     1      60.616  84.869  14.221  1.00  0.00     0.046 C 
HETATM    9  C3  UNL     1      60.281  82.544  14.754  1.00  0.00     0.046 C 
BRANCH   7  10
HETATM   10  N1  UNL     1      60.830  83.194  12.544  1.00  0.00    -0.071 N 
ATOM     11  H13 UNL     1      61.420  82.472  12.129  1.00  0.00     0.275 HD
ATOM     12  H12 UNL     1      59.939  82.725  12.384  1.00  0.00     0.275 HD
ATOM     13  H11 UNL     1      60.905  84.103  12.085  1.00  0.00     0.275 HD
ENDBRANCH   7  10
ENDBRANCH   1   7
BRANCH   6  14
HETATM   14  C10 UNL     1      63.002  82.153  16.306  1.00  0.00     0.234 C 
BRANCH  14  15
HETATM   15  N2  UNL     1      62.731  82.638  17.673  1.00  0.00    -0.079 N 
ATOM     16  H23 UNL     1      62.134  83.465  17.704  1.00  0.00     0.274 HD
ATOM     17  H22 UNL     1      62.118  82.026  18.211  1.00  0.00     0.274 HD
ATOM     18  H21 UNL     1      63.647  82.779  18.099  1.00  0.00     0.274 HD
ENDBRANCH  14  15
ENDBRANCH   6  14
TORSDOF 4
ENDMDL
