MODEL 1
REMARK VINA RESULT: -7.658231497      0.000      0.000
REMARK  13 active torsions:
REMARK  status: ('A' for Active; 'I' for Inactive)
REMARK    1  A    between atoms: C2_2  and  C3_3 
REMARK    2  A    between atoms: C3_3  and  C4_4 
REMARK    3  A    between atoms: C4_4  and  C5_5 
REMARK    4  A    between atoms: C5_5  and  C6_6 
REMARK    5  A    between atoms: C6_6  and  C7_7 
REMARK    6  A    between atoms: C8_8  and  C9_9 
REMARK    7  A    between atoms: C10_10  and  C11_11 
REMARK    8  A    between atoms: C11_11  and  N1_12 
REMARK    9  A    between atoms: C13_14  and  O1_15 
REMARK   10  A    between atoms: N3_19  and  C14_20 
REMARK   11  A    between atoms: C14_20  and  C15_21 
REMARK   12  A    between atoms: C15_21  and  O2_22 
REMARK   13  A    between atoms: O2_22  and  O3_24 
ROOT
HETATM    1  N1  UNL     1      28.564  19.259  11.995  1.00  0.00    -0.279 N 
HETATM    2  C12 UNL     1      29.542  18.428  11.520  1.00  0.00     0.169 A 
HETATM    3  C13 UNL     1      29.429  17.202  12.118  1.00  0.00     0.173 A 
HETATM    4  N2  UNL     1      28.385  17.308  12.944  1.00  0.00    -0.262 N 
ATOM      5  H2  UNL     1      28.029  16.564  13.545  1.00  0.00     0.191 HD
HETATM    6  N3  UNL     1      27.872  18.560  12.857  1.00  0.00    -0.230 N 
ENDROOT
BRANCH   1   7
HETATM    7  C11 UNL     1      28.440  20.638  11.575  1.00  0.00     0.178 C 
BRANCH   7   8
HETATM    8  C10 UNL     1      29.774  21.183  11.243  1.00  0.00     0.004 C 
HETATM    9  C9  UNL     1      30.001  21.856  10.146  1.00  0.00     0.062 C 
BRANCH   9  10
HETATM   10  C8  UNL     1      31.272  22.409   9.773  1.00  0.00    -0.079 C 
HETATM   11  C7  UNL     1      32.352  22.863   9.474  1.00  0.00    -0.102 C 
BRANCH  11  12
HETATM   12  C6  UNL     1      33.667  23.409   9.135  1.00  0.00     0.094 C 
BRANCH  12  13
HETATM   13  C5  UNL     1      34.784  22.488   9.614  1.00  0.00     0.012 C 
BRANCH  13  14
HETATM   14  C4  UNL     1      34.590  21.096   9.093  1.00  0.00     0.005 C 
BRANCH  14  15
HETATM   15  C3  UNL     1      35.052  20.966   7.665  1.00  0.00     0.026 C 
BRANCH  15  16
HETATM   16  C2  UNL     1      33.882  20.401   6.895  1.00  0.00    -0.037 C 
HETATM   17  C1  UNL     1      33.121  21.235   6.191  1.00  0.00     0.007 C 
ENDBRANCH  15  16
ENDBRANCH  14  15
ENDBRANCH  13  14
ENDBRANCH  12  13
ENDBRANCH  11  12
ENDBRANCH   9  10
ENDBRANCH   7   8
ENDBRANCH   1   7
BRANCH   6  18
HETATM   18  C14 UNL     1      26.725  18.906  13.630  1.00  0.00     0.170 C 
BRANCH  18  19
HETATM   19  C15 UNL     1      26.955  18.982  15.095  1.00  0.00     0.025 C 
BRANCH  19  20
HETATM   20  O2  UNL     1      27.885  18.136  15.642  1.00  0.00     0.000 OA
HETATM   21  C16 UNL     1      28.167  18.555  16.990  1.00  0.00     0.000 C 
BRANCH  20  22
HETATM   22  O3  UNL     1      27.352  16.901  15.785  1.00  0.00    -0.253 OA
ATOM     23  H3  UNL     1      28.036  16.245  15.711  1.00  0.00     0.253 HD
ENDBRANCH  20  22
ENDBRANCH  19  20
ENDBRANCH  18  19
ENDBRANCH   6  18
BRANCH   3  24
HETATM   24  O1  UNL     1      30.194  16.066  11.945  1.00  0.00    -0.344 OA
ATOM     25  H1  UNL     1      30.001  15.276  11.453  1.00  0.00     0.219 HD
ENDBRANCH   3  24
TORSDOF 13
ENDMDL
MODEL 2
REMARK VINA RESULT: -7.619378565      3.504      4.476
REMARK  13 active torsions:
REMARK  status: ('A' for Active; 'I' for Inactive)
REMARK    1  A    between atoms: C2_2  and  C3_3 
REMARK    2  A    between atoms: C3_3  and  C4_4 
REMARK    3  A    between atoms: C4_4  and  C5_5 
REMARK    4  A    between atoms: C5_5  and  C6_6 
REMARK    5  A    between atoms: C6_6  and  C7_7 
REMARK    6  A    between atoms: C8_8  and  C9_9 
REMARK    7  A    between atoms: C10_10  and  C11_11 
REMARK    8  A    between atoms: C11_11  and  N1_12 
REMARK    9  A    between atoms: C13_14  and  O1_15 
REMARK   10  A    between atoms: N3_19  and  C14_20 
REMARK   11  A    between atoms: C14_20  and  C15_21 
REMARK   12  A    between atoms: C15_21  and  O2_22 
REMARK   13  A    between atoms: O2_22  and  O3_24 
ROOT
HETATM    1  N1  UNL     1      30.122  22.802  14.858  1.00  0.00    -0.279 N 
HETATM    2  C12 UNL     1      30.955  23.752  15.385  1.00  0.00     0.169 A 
HETATM    3  C13 UNL     1      31.679  23.205  16.411  1.00  0.00     0.173 A 
HETATM    4  N2  UNL     1      31.274  21.935  16.489  1.00  0.00    -0.262 N 
ATOM      5  H2  UNL     1      31.620  21.245  17.156  1.00  0.00     0.191 HD
HETATM    6  N3  UNL     1      30.331  21.706  15.541  1.00  0.00    -0.230 N 
ENDROOT
BRANCH   1   7
HETATM    7  C11 UNL     1      29.205  23.083  13.776  1.00  0.00     0.178 C 
BRANCH   7   8
HETATM    8  C10 UNL     1      29.726  22.512  12.515  1.00  0.00     0.004 C 
HETATM    9  C9  UNL     1      30.209  23.258  11.556  1.00  0.00     0.062 C 
BRANCH   9  10
HETATM   10  C8  UNL     1      30.727  22.760  10.314  1.00  0.00    -0.079 C 
HETATM   11  C7  UNL     1      31.175  22.325   9.278  1.00  0.00    -0.102 C 
BRANCH  11  12
HETATM   12  C6  UNL     1      31.736  21.790   8.037  1.00  0.00     0.094 C 
BRANCH  12  13
HETATM   13  C5  UNL     1      33.138  21.235   8.262  1.00  0.00     0.012 C 
BRANCH  13  14
HETATM   14  C4  UNL     1      34.122  22.342   8.487  1.00  0.00     0.005 C 
BRANCH  14  15
HETATM   15  C3  UNL     1      35.090  22.010   9.593  1.00  0.00     0.026 C 
BRANCH  15  16
HETATM   16  C2  UNL     1      35.289  23.286  10.375  1.00  0.00    -0.037 C 
HETATM   17  C1  UNL     1      34.220  24.019  10.678  1.00  0.00     0.007 C 
ENDBRANCH  15  16
ENDBRANCH  14  15
ENDBRANCH  13  14
ENDBRANCH  12  13
ENDBRANCH  11  12
ENDBRANCH   9  10
ENDBRANCH   7   8
ENDBRANCH   1   7
BRANCH   6  18
HETATM   18  C14 UNL     1      29.767  20.405  15.410  1.00  0.00     0.170 C 
BRANCH  18  19
HETATM   19  C15 UNL     1      29.072  19.897  16.620  1.00  0.00     0.025 C 
BRANCH  19  20
HETATM   20  O2  UNL     1      29.711  20.024  17.826  1.00  0.00     0.000 OA
HETATM   21  C16 UNL     1      28.885  19.456  18.859  1.00  0.00     0.000 C 
BRANCH  20  22
HETATM   22  O3  UNL     1      30.826  19.258  17.836  1.00  0.00    -0.253 OA
ATOM     23  H3  UNL     1      31.297  19.386  18.652  1.00  0.00     0.253 HD
ENDBRANCH  20  22
ENDBRANCH  19  20
ENDBRANCH  18  19
ENDBRANCH   6  18
BRANCH   3  24
HETATM   24  O1  UNL     1      32.632  23.788  17.221  1.00  0.00    -0.344 OA
ATOM     25  H1  UNL     1      32.730  23.746  18.166  1.00  0.00     0.219 HD
ENDBRANCH   3  24
TORSDOF 13
ENDMDL
MODEL 3
REMARK VINA RESULT: -7.580274890      2.563      2.972
REMARK  13 active torsions:
REMARK  status: ('A' for Active; 'I' for Inactive)
REMARK    1  A    between atoms: C2_2  and  C3_3 
REMARK    2  A    between atoms: C3_3  and  C4_4 
REMARK    3  A    between atoms: C4_4  and  C5_5 
REMARK    4  A    between atoms: C5_5  and  C6_6 
REMARK    5  A    between atoms: C6_6  and  C7_7 
REMARK    6  A    between atoms: C8_8  and  C9_9 
REMARK    7  A    between atoms: C10_10  and  C11_11 
REMARK    8  A    between atoms: C11_11  and  N1_12 
REMARK    9  A    between atoms: C13_14  and  O1_15 
REMARK   10  A    between atoms: N3_19  and  C14_20 
REMARK   11  A    between atoms: C14_20  and  C15_21 
REMARK   12  A    between atoms: C15_21  and  O2_22 
REMARK   13  A    between atoms: O2_22  and  O3_24 
ROOT
HETATM    1  N1  UNL     1      28.426  20.046  12.068  1.00  0.00    -0.279 N 
HETATM    2  C12 UNL     1      28.578  18.688  11.991  1.00  0.00     0.169 A 
HETATM    3  C13 UNL     1      28.475  18.146  13.245  1.00  0.00     0.173 A 
HETATM    4  N2  UNL     1      28.261  19.182  14.060  1.00  0.00    -0.262 N 
ATOM      5  H2  UNL     1      28.138  19.122  15.071  1.00  0.00     0.191 HD
HETATM    6  N3  UNL     1      28.233  20.325  13.332  1.00  0.00    -0.230 N 
ENDROOT
BRANCH   1   7
HETATM    7  C11 UNL     1      28.514  20.907  10.910  1.00  0.00     0.178 C 
BRANCH   7   8
HETATM    8  C10 UNL     1      29.926  21.271  10.662  1.00  0.00     0.004 C 
HETATM    9  C9  UNL     1      30.266  22.340   9.990  1.00  0.00     0.062 C 
BRANCH   9  10
HETATM   10  C8  UNL     1      31.617  22.743   9.720  1.00  0.00    -0.079 C 
HETATM   11  C7  UNL     1      32.753  23.073   9.474  1.00  0.00    -0.102 C 
BRANCH  11  12
HETATM   12  C6  UNL     1      34.131  23.454   9.160  1.00  0.00     0.094 C 
BRANCH  12  13
HETATM   13  C5  UNL     1      35.111  22.360   9.572  1.00  0.00     0.012 C 
BRANCH  13  14
HETATM   14  C4  UNL     1      34.652  21.019   9.086  1.00  0.00     0.005 C 
BRANCH  14  15
HETATM   15  C3  UNL     1      35.005  20.801   7.637  1.00  0.00     0.026 C 
BRANCH  15  16
HETATM   16  C2  UNL     1      33.718  20.425   6.944  1.00  0.00    -0.037 C 
HETATM   17  C1  UNL     1      33.123  21.331   6.171  1.00  0.00     0.007 C 
ENDBRANCH  15  16
ENDBRANCH  14  15
ENDBRANCH  13  14
ENDBRANCH  12  13
ENDBRANCH  11  12
ENDBRANCH   9  10
ENDBRANCH   7   8
ENDBRANCH   1   7
BRANCH   6  18
HETATM   18  C14 UNL     1      27.988  21.569  13.983  1.00  0.00     0.170 C 
BRANCH  18  19
HETATM   19  C15 UNL     1      29.160  22.476  14.067  1.00  0.00     0.025 C 
BRANCH  19  20
HETATM   20  O2  UNL     1      28.935  23.825  13.962  1.00  0.00     0.000 OA
HETATM   21  C16 UNL     1      29.700  24.510  14.971  1.00  0.00     0.000 C 
BRANCH  20  22
HETATM   22  O3  UNL     1      29.443  24.284  12.794  1.00  0.00    -0.253 OA
ATOM     23  H3  UNL     1      29.249  25.210  12.701  1.00  0.00     0.253 HD
ENDBRANCH  20  22
ENDBRANCH  19  20
ENDBRANCH  18  19
ENDBRANCH   6  18
BRANCH   3  24
HETATM   24  O1  UNL     1      28.563  16.827  13.641  1.00  0.00    -0.344 OA
ATOM     25  H1  UNL     1      28.146  16.386  14.372  1.00  0.00     0.219 HD
ENDBRANCH   3  24
TORSDOF 13
ENDMDL
MODEL 4
REMARK VINA RESULT: -7.537293323      3.053      4.202
REMARK  13 active torsions:
REMARK  status: ('A' for Active; 'I' for Inactive)
REMARK    1  A    between atoms: C2_2  and  C3_3 
REMARK    2  A    between atoms: C3_3  and  C4_4 
REMARK    3  A    between atoms: C4_4  and  C5_5 
REMARK    4  A    between atoms: C5_5  and  C6_6 
REMARK    5  A    between atoms: C6_6  and  C7_7 
REMARK    6  A    between atoms: C8_8  and  C9_9 
REMARK    7  A    between atoms: C10_10  and  C11_11 
REMARK    8  A    between atoms: C11_11  and  N1_12 
REMARK    9  A    between atoms: C13_14  and  O1_15 
REMARK   10  A    between atoms: N3_19  and  C14_20 
REMARK   11  A    between atoms: C14_20  and  C15_21 
REMARK   12  A    between atoms: C15_21  and  O2_22 
REMARK   13  A    between atoms: O2_22  and  O3_24 
ROOT
HETATM    1  N1  UNL     1      30.225  22.958  13.953  1.00  0.00    -0.279 N 
HETATM    2  C12 UNL     1      30.624  23.813  14.944  1.00  0.00     0.169 A 
HETATM    3  C13 UNL     1      31.083  23.091  16.013  1.00  0.00     0.173 A 
HETATM    4  N2  UNL     1      30.957  21.811  15.653  1.00  0.00    -0.262 N 
ATOM      5  H2  UNL     1      31.211  21.008  16.229  1.00  0.00     0.191 HD
HETATM    6  N3  UNL     1      30.436  21.747  14.403  1.00  0.00    -0.230 N 
ENDROOT
BRANCH   1   7
HETATM    7  C11 UNL     1      29.662  23.419  12.704  1.00  0.00     0.178 C 
BRANCH   7   8
HETATM    8  C10 UNL     1      30.626  23.196  11.605  1.00  0.00     0.004 C 
HETATM    9  C9  UNL     1      30.295  22.589  10.495  1.00  0.00     0.062 C 
BRANCH   9  10
HETATM   10  C8  UNL     1      31.187  22.345   9.398  1.00  0.00    -0.079 C 
HETATM   11  C7  UNL     1      31.954  22.150   8.483  1.00  0.00    -0.102 C 
BRANCH  11  12
HETATM   12  C6  UNL     1      32.895  21.934   7.384  1.00  0.00     0.094 C 
BRANCH  12  13
HETATM   13  C5  UNL     1      33.990  20.950   7.784  1.00  0.00     0.012 C 
BRANCH  13  14
HETATM   14  C4  UNL     1      34.578  21.315   9.113  1.00  0.00     0.005 C 
BRANCH  14  15
HETATM   15  C3  UNL     1      35.638  22.379   8.979  1.00  0.00     0.026 C 
BRANCH  15  16
HETATM   16  C2  UNL     1      35.583  23.188  10.252  1.00  0.00    -0.037 C 
HETATM   17  C1  UNL     1      34.462  23.846  10.539  1.00  0.00     0.007 C 
ENDBRANCH  15  16
ENDBRANCH  14  15
ENDBRANCH  13  14
ENDBRANCH  12  13
ENDBRANCH  11  12
ENDBRANCH   9  10
ENDBRANCH   7   8
ENDBRANCH   1   7
BRANCH   6  18
HETATM   18  C14 UNL     1      30.235  20.477  13.788  1.00  0.00     0.170 C 
BRANCH  18  19
HETATM   19  C15 UNL     1      28.846  19.956  13.862  1.00  0.00     0.025 C 
BRANCH  19  20
HETATM   20  O2  UNL     1      27.993  20.536  14.766  1.00  0.00     0.000 OA
HETATM   21  C16 UNL     1      26.834  21.030  14.069  1.00  0.00     0.000 C 
BRANCH  20  22
HETATM   22  O3  UNL     1      27.499  19.592  15.600  1.00  0.00    -0.253 OA
ATOM     23  H3  UNL     1      27.199  18.843  15.096  1.00  0.00     0.253 HD
ENDBRANCH  20  22
ENDBRANCH  19  20
ENDBRANCH  18  19
ENDBRANCH   6  18
BRANCH   3  24
HETATM   24  O1  UNL     1      31.580  23.533  17.222  1.00  0.00    -0.344 OA
ATOM     25  H1  UNL     1      31.122  23.921  17.959  1.00  0.00     0.219 HD
ENDBRANCH   3  24
TORSDOF 13
ENDMDL
MODEL 5
REMARK VINA RESULT: -7.529493119      3.648      4.623
REMARK  13 active torsions:
REMARK  status: ('A' for Active; 'I' for Inactive)
REMARK    1  A    between atoms: C2_2  and  C3_3 
REMARK    2  A    between atoms: C3_3  and  C4_4 
REMARK    3  A    between atoms: C4_4  and  C5_5 
REMARK    4  A    between atoms: C5_5  and  C6_6 
REMARK    5  A    between atoms: C6_6  and  C7_7 
REMARK    6  A    between atoms: C8_8  and  C9_9 
REMARK    7  A    between atoms: C10_10  and  C11_11 
REMARK    8  A    between atoms: C11_11  and  N1_12 
REMARK    9  A    between atoms: C13_14  and  O1_15 
REMARK   10  A    between atoms: N3_19  and  C14_20 
REMARK   11  A    between atoms: C14_20  and  C15_21 
REMARK   12  A    between atoms: C15_21  and  O2_22 
REMARK   13  A    between atoms: O2_22  and  O3_24 
ROOT
HETATM    1  N1  UNL     1      30.062  22.578  13.449  1.00  0.00    -0.279 N 
HETATM    2  C12 UNL     1      29.296  21.456  13.611  1.00  0.00     0.169 A 
HETATM    3  C13 UNL     1      29.769  20.731  14.673  1.00  0.00     0.173 A 
HETATM    4  N2  UNL     1      30.811  21.425  15.137  1.00  0.00    -0.262 N 
ATOM      5  H2  UNL     1      31.391  21.157  15.932  1.00  0.00     0.191 HD
HETATM    6  N3  UNL     1      30.975  22.541  14.385  1.00  0.00    -0.230 N 
ENDROOT
BRANCH   1   7
HETATM    7  C11 UNL     1      29.832  23.533  12.387  1.00  0.00     0.178 C 
BRANCH   7   8
HETATM    8  C10 UNL     1      30.649  23.177  11.206  1.00  0.00     0.004 C 
HETATM    9  C9  UNL     1      30.162  22.508  10.194  1.00  0.00     0.062 C 
BRANCH   9  10
HETATM   10  C8  UNL     1      30.906  22.136   9.025  1.00  0.00    -0.079 C 
HETATM   11  C7  UNL     1      31.529  21.843   8.031  1.00  0.00    -0.102 C 
BRANCH  11  12
HETATM   12  C6  UNL     1      32.271  21.504   6.816  1.00  0.00     0.094 C 
BRANCH  12  13
HETATM   13  C5  UNL     1      33.380  20.500   7.111  1.00  0.00     0.012 C 
BRANCH  13  14
HETATM   14  C4  UNL     1      34.591  21.187   7.665  1.00  0.00     0.005 C 
BRANCH  14  15
HETATM   15  C3  UNL     1      34.666  21.059   9.165  1.00  0.00     0.026 C 
BRANCH  15  16
HETATM   16  C2  UNL     1      35.206  22.375   9.672  1.00  0.00    -0.037 C 
HETATM   17  C1  UNL     1      34.347  23.358   9.930  1.00  0.00     0.007 C 
ENDBRANCH  15  16
ENDBRANCH  14  15
ENDBRANCH  13  14
ENDBRANCH  12  13
ENDBRANCH  11  12
ENDBRANCH   9  10
ENDBRANCH   7   8
ENDBRANCH   1   7
BRANCH   6  18
HETATM   18  C14 UNL     1      32.014  23.461  14.710  1.00  0.00     0.170 C 
BRANCH  18  19
HETATM   19  C15 UNL     1      32.812  23.108  15.911  1.00  0.00     0.025 C 
BRANCH  19  20
HETATM   20  O2  UNL     1      32.154  23.011  17.111  1.00  0.00     0.000 OA
HETATM   21  C16 UNL     1      33.080  23.286  18.178  1.00  0.00     0.000 C 
BRANCH  20  22
HETATM   22  O3  UNL     1      31.234  23.999  17.209  1.00  0.00    -0.253 OA
ATOM     23  H3  UNL     1      30.930  24.066  18.107  1.00  0.00     0.253 HD
ENDBRANCH  20  22
ENDBRANCH  19  20
ENDBRANCH  18  19
ENDBRANCH   6  18
BRANCH   3  24
HETATM   24  O1  UNL     1      29.309  19.539  15.196  1.00  0.00    -0.344 OA
ATOM     25  H1  UNL     1      29.552  18.647  14.974  1.00  0.00     0.219 HD
ENDBRANCH   3  24
TORSDOF 13
ENDMDL
