MODEL 1
REMARK VINA RESULT: -6.782367721      0.000      0.000
REMARK  8 active torsions:
REMARK  status: ('A' for Active; 'I' for Inactive)
REMARK    1  A    between atoms: C2_2  and  C3_3 
REMARK    2  A    between atoms: C3_3  and  N1_4 
REMARK    3  A    between atoms: N1_4  and  C4_5 
REMARK    4  A    between atoms: N1_4  and  C7_8 
REMARK    5  A    between atoms: C4_5  and  C5_6 
REMARK    6  A    between atoms: C7_8  and  C8_9 
REMARK    7  A    between atoms: C8_9  and  N2_10 
REMARK    8  A    between atoms: N3_13  and  S1_14 
ROOT
HETATM    1  N2  UNL     1      29.451  18.919  12.790  1.00  0.00    -0.342 N 
HETATM    2  C9  UNL     1      30.290  19.717  13.573  1.00  0.00     0.113 C 
HETATM    3  C10 UNL     1      29.570  20.999  13.880  1.00  0.00     0.126 C 
HETATM    4  N3  UNL     1      29.173  21.663  12.717  1.00  0.00    -0.260 N 
HETATM    5  C12 UNL     1      28.787  20.925  11.593  1.00  0.00     0.126 C 
HETATM    6  C13 UNL     1      29.028  19.463  11.595  1.00  0.00     0.113 C 
ENDROOT
BRANCH   1   7
HETATM    7  C8  UNL     1      29.050  17.646  13.220  1.00  0.00     0.099 C 
BRANCH   7   8
HETATM    8  C7  UNL     1      27.544  17.646  13.375  1.00  0.00     0.318 C 
BRANCH   8   9
HETATM    9  N1  UNL     1      27.057  18.353  14.556  1.00  0.00     0.099 N 
BRANCH   9  10
HETATM   10  C3  UNL     1      25.605  18.488  14.462  1.00  0.00     0.299 C 
BRANCH  10  11
HETATM   11  C2  UNL     1      25.140  19.812  14.019  1.00  0.00    -0.007 C 
HETATM   12  C1  UNL     1      25.843  20.892  13.804  1.00  0.00     0.008 C 
ENDBRANCH  10  11
ENDBRANCH   9  10
BRANCH   9  13
HETATM   13  C4  UNL     1      27.379  17.573  15.746  1.00  0.00     0.299 C 
BRANCH  13  14
HETATM   14  C5  UNL     1      27.851  18.339  16.904  1.00  0.00    -0.007 C 
HETATM   15  C6  UNL     1      28.725  19.304  16.969  1.00  0.00     0.008 C 
ENDBRANCH  13  14
ENDBRANCH   9  13
ENDBRANCH   8   9
ENDBRANCH   7   8
ENDBRANCH   1   7
BRANCH   4  16
HETATM   16  S1  UNL     1      30.112  23.049  12.434  1.00  0.00     0.232 S 
HETATM   17  C11 UNL     1      30.846  23.171  10.855  1.00  0.00     0.186 C 
HETATM   18  O1  UNL     1      29.285  24.278  12.734  1.00  0.00    -0.206 OA
HETATM   19  O2  UNL     1      31.246  23.049  13.452  1.00  0.00    -0.206 OA
ENDBRANCH   4  16
TORSDOF 8
ENDMDL
MODEL 2
REMARK VINA RESULT: -6.615403126      1.329      1.785
REMARK  8 active torsions:
REMARK  status: ('A' for Active; 'I' for Inactive)
REMARK    1  A    between atoms: C2_2  and  C3_3 
REMARK    2  A    between atoms: C3_3  and  N1_4 
REMARK    3  A    between atoms: N1_4  and  C4_5 
REMARK    4  A    between atoms: N1_4  and  C7_8 
REMARK    5  A    between atoms: C4_5  and  C5_6 
REMARK    6  A    between atoms: C7_8  and  C8_9 
REMARK    7  A    between atoms: C8_9  and  N2_10 
REMARK    8  A    between atoms: N3_13  and  S1_14 
ROOT
HETATM    1  N2  UNL     1      29.134  19.567  12.426  1.00  0.00    -0.342 N 
HETATM    2  C9  UNL     1      30.353  19.548  13.110  1.00  0.00     0.113 C 
HETATM    3  C10 UNL     1      30.178  20.287  14.406  1.00  0.00     0.126 C 
HETATM    4  N3  UNL     1      29.727  21.593  14.202  1.00  0.00    -0.260 N 
HETATM    5  C12 UNL     1      28.853  21.870  13.145  1.00  0.00     0.126 C 
HETATM    6  C13 UNL     1      28.613  20.812  12.136  1.00  0.00     0.113 C 
ENDROOT
BRANCH   1   7
HETATM    7  C8  UNL     1      28.476  18.378  12.080  1.00  0.00     0.099 C 
BRANCH   7   8
HETATM    8  C7  UNL     1      28.273  17.560  13.338  1.00  0.00     0.318 C 
BRANCH   8   9
HETATM    9  N1  UNL     1      27.416  18.189  14.338  1.00  0.00     0.099 N 
BRANCH   9  10
HETATM   10  C3  UNL     1      26.028  18.117  13.885  1.00  0.00     0.299 C 
BRANCH  10  11
HETATM   11  C2  UNL     1      25.225  19.314  14.178  1.00  0.00    -0.007 C 
HETATM   12  C1  UNL     1      25.454  20.554  13.833  1.00  0.00     0.008 C 
ENDBRANCH  10  11
ENDBRANCH   9  10
BRANCH   9  13
HETATM   13  C4  UNL     1      27.537  17.462  15.596  1.00  0.00     0.299 C 
BRANCH  13  14
HETATM   14  C5  UNL     1      27.603  18.286  16.807  1.00  0.00    -0.007 C 
HETATM   15  C6  UNL     1      28.576  19.024  17.264  1.00  0.00     0.008 C 
ENDBRANCH  13  14
ENDBRANCH   9  13
ENDBRANCH   8   9
ENDBRANCH   7   8
ENDBRANCH   1   7
BRANCH   4  16
HETATM   16  S1  UNL     1      30.949  22.733  14.500  1.00  0.00     0.232 S 
HETATM   17  C11 UNL     1      30.477  24.147  15.406  1.00  0.00     0.186 C 
HETATM   18  O1  UNL     1      32.120  22.042  15.161  1.00  0.00    -0.206 OA
HETATM   19  O2  UNL     1      31.458  23.221  13.149  1.00  0.00    -0.206 OA
ENDBRANCH   4  16
TORSDOF 8
ENDMDL
MODEL 3
REMARK VINA RESULT: -6.614350150      4.148      5.869
REMARK  8 active torsions:
REMARK  status: ('A' for Active; 'I' for Inactive)
REMARK    1  A    between atoms: C2_2  and  C3_3 
REMARK    2  A    between atoms: C3_3  and  N1_4 
REMARK    3  A    between atoms: N1_4  and  C4_5 
REMARK    4  A    between atoms: N1_4  and  C7_8 
REMARK    5  A    between atoms: C4_5  and  C5_6 
REMARK    6  A    between atoms: C7_8  and  C8_9 
REMARK    7  A    between atoms: C8_9  and  N2_10 
REMARK    8  A    between atoms: N3_13  and  S1_14 
ROOT
HETATM    1  N2  UNL     1      31.669  22.884   9.840  1.00  0.00    -0.342 N 
HETATM    2  C9  UNL     1      31.053  22.088   8.871  1.00  0.00     0.113 C 
HETATM    3  C10 UNL     1      31.927  20.893   8.619  1.00  0.00     0.126 C 
HETATM    4  N3  UNL     1      33.217  21.264   8.231  1.00  0.00    -0.260 N 
HETATM    5  C12 UNL     1      33.795  22.423   8.761  1.00  0.00     0.126 C 
HETATM    6  C13 UNL     1      32.936  23.342   9.543  1.00  0.00     0.113 C 
ENDROOT
BRANCH   1   7
HETATM    7  C8  UNL     1      31.031  23.175  11.055  1.00  0.00     0.099 C 
BRANCH   7   8
HETATM    8  C7  UNL     1      29.771  22.340  11.145  1.00  0.00     0.318 C 
BRANCH   8   9
HETATM    9  N1  UNL     1      29.783  21.339  12.208  1.00  0.00     0.099 N 
BRANCH   9  10
HETATM   10  C3  UNL     1      28.775  21.694  13.205  1.00  0.00     0.299 C 
BRANCH  10  11
HETATM   11  C2  UNL     1      27.526  20.922  13.115  1.00  0.00    -0.007 C 
HETATM   12  C1  UNL     1      26.500  20.936  13.925  1.00  0.00     0.008 C 
ENDBRANCH  10  11
ENDBRANCH   9  10
BRANCH   9  13
HETATM   13  C4  UNL     1      29.445  20.038  11.642  1.00  0.00     0.299 C 
BRANCH  13  14
HETATM   14  C5  UNL     1      30.498  19.021  11.704  1.00  0.00    -0.007 C 
HETATM   15  C6  UNL     1      30.422  17.728  11.552  1.00  0.00     0.008 C 
ENDBRANCH  13  14
ENDBRANCH   9  13
ENDBRANCH   8   9
ENDBRANCH   7   8
ENDBRANCH   1   7
BRANCH   4  16
HETATM   16  S1  UNL     1      33.488  20.962   6.582  1.00  0.00     0.232 S 
HETATM   17  C11 UNL     1      34.509  22.106   5.749  1.00  0.00     0.186 C 
HETATM   18  O1  UNL     1      34.016  19.556   6.416  1.00  0.00    -0.206 OA
HETATM   19  O2  UNL     1      32.133  20.986   5.884  1.00  0.00    -0.206 OA
ENDBRANCH   4  16
TORSDOF 8
ENDMDL
MODEL 4
REMARK VINA RESULT: -6.550806672      0.343      2.144
REMARK  8 active torsions:
REMARK  status: ('A' for Active; 'I' for Inactive)
REMARK    1  A    between atoms: C2_2  and  C3_3 
REMARK    2  A    between atoms: C3_3  and  N1_4 
REMARK    3  A    between atoms: N1_4  and  C4_5 
REMARK    4  A    between atoms: N1_4  and  C7_8 
REMARK    5  A    between atoms: C4_5  and  C5_6 
REMARK    6  A    between atoms: C7_8  and  C8_9 
REMARK    7  A    between atoms: C8_9  and  N2_10 
REMARK    8  A    between atoms: N3_13  and  S1_14 
ROOT
HETATM    1  N2  UNL     1      29.247  19.011  12.938  1.00  0.00    -0.342 N 
HETATM    2  C9  UNL     1      30.047  19.819  13.751  1.00  0.00     0.113 C 
HETATM    3  C10 UNL     1      29.350  21.136  13.937  1.00  0.00     0.126 C 
HETATM    4  N3  UNL     1      29.073  21.755  12.716  1.00  0.00    -0.260 N 
HETATM    5  C12 UNL     1      28.754  20.976  11.598  1.00  0.00     0.126 C 
HETATM    6  C13 UNL     1      28.943  19.509  11.687  1.00  0.00     0.113 C 
ENDROOT
BRANCH   1   7
HETATM    7  C8  UNL     1      28.768  17.773  13.390  1.00  0.00     0.099 C 
BRANCH   7   8
HETATM    8  C7  UNL     1      27.255  17.797  13.335  1.00  0.00     0.318 C 
BRANCH   8   9
HETATM    9  N1  UNL     1      26.598  17.543  14.614  1.00  0.00     0.099 N 
BRANCH   9  10
HETATM   10  C3  UNL     1      27.614  17.479  15.663  1.00  0.00     0.299 C 
BRANCH  10  11
HETATM   11  C2  UNL     1      27.657  18.656  16.546  1.00  0.00    -0.007 C 
HETATM   12  C1  UNL     1      28.688  19.180  17.154  1.00  0.00     0.008 C 
ENDBRANCH  10  11
ENDBRANCH   9  10
BRANCH   9  13
HETATM   13  C4  UNL     1      25.686  18.641  14.909  1.00  0.00     0.299 C 
BRANCH  13  14
HETATM   14  C5  UNL     1      25.477  19.607  13.826  1.00  0.00    -0.007 C 
HETATM   15  C6  UNL     1      25.709  20.889  13.793  1.00  0.00     0.008 C 
ENDBRANCH  13  14
ENDBRANCH   9  13
ENDBRANCH   8   9
ENDBRANCH   7   8
ENDBRANCH   1   7
BRANCH   4  16
HETATM   16  S1  UNL     1      30.080  23.096  12.449  1.00  0.00     0.232 S 
HETATM   17  C11 UNL     1      30.843  23.184  10.883  1.00  0.00     0.186 C 
HETATM   18  O1  UNL     1      29.306  24.362  12.737  1.00  0.00    -0.206 OA
HETATM   19  O2  UNL     1      31.196  23.042  13.485  1.00  0.00    -0.206 OA
ENDBRANCH   4  16
TORSDOF 8
ENDMDL
MODEL 5
REMARK VINA RESULT: -6.534815514      2.488      4.374
REMARK  8 active torsions:
REMARK  status: ('A' for Active; 'I' for Inactive)
REMARK    1  A    between atoms: C2_2  and  C3_3 
REMARK    2  A    between atoms: C3_3  and  N1_4 
REMARK    3  A    between atoms: N1_4  and  C4_5 
REMARK    4  A    between atoms: N1_4  and  C7_8 
REMARK    5  A    between atoms: C4_5  and  C5_6 
REMARK    6  A    between atoms: C7_8  and  C8_9 
REMARK    7  A    between atoms: C8_9  and  N2_10 
REMARK    8  A    between atoms: N3_13  and  S1_14 
ROOT
HETATM    1  N2  UNL     1      28.250  21.328  14.352  1.00  0.00    -0.342 N 
HETATM    2  C9  UNL     1      28.777  22.613  14.198  1.00  0.00     0.113 C 
HETATM    3  C10 UNL     1      30.269  22.497  14.066  1.00  0.00     0.126 C 
HETATM    4  N3  UNL     1      30.838  21.838  15.159  1.00  0.00    -0.260 N 
HETATM    5  C12 UNL     1      30.135  20.807  15.792  1.00  0.00     0.126 C 
HETATM    6  C13 UNL     1      28.714  20.599  15.428  1.00  0.00     0.113 C 
ENDROOT
BRANCH   1   7
HETATM    7  C8  UNL     1      27.317  20.811  13.441  1.00  0.00     0.099 C 
BRANCH   7   8
HETATM    8  C7  UNL     1      27.768  19.427  13.027  1.00  0.00     0.318 C 
BRANCH   8   9
HETATM    9  N1  UNL     1      28.546  19.388  11.792  1.00  0.00     0.099 N 
BRANCH   9  10
HETATM   10  C3  UNL     1      28.385  20.660  11.091  1.00  0.00     0.299 C 
BRANCH  10  11
HETATM   11  C2  UNL     1      29.644  21.274  10.639  1.00  0.00    -0.007 C 
HETATM   12  C1  UNL     1      29.842  22.070   9.621  1.00  0.00     0.008 C 
ENDBRANCH  10  11
ENDBRANCH   9  10
BRANCH   9  13
HETATM   13  C4  UNL     1      29.955  19.208  12.121  1.00  0.00     0.299 C 
BRANCH  13  14
HETATM   14  C5  UNL     1      30.539  17.917  11.746  1.00  0.00    -0.007 C 
HETATM   15  C6  UNL     1      29.987  16.883  11.176  1.00  0.00     0.008 C 
ENDBRANCH  13  14
ENDBRANCH   9  13
ENDBRANCH   8   9
ENDBRANCH   7   8
ENDBRANCH   1   7
BRANCH   4  16
HETATM   16  S1  UNL     1      31.690  22.909  16.163  1.00  0.00     0.232 S 
HETATM   17  C11 UNL     1      33.232  23.463  15.563  1.00  0.00     0.186 C 
HETATM   18  O1  UNL     1      30.799  24.082  16.507  1.00  0.00    -0.206 OA
HETATM   19  O2  UNL     1      31.959  22.188  17.478  1.00  0.00    -0.206 OA
ENDBRANCH   4  16
TORSDOF 8
ENDMDL
