MODEL 1
REMARK VINA RESULT: -7.520142252      0.000      0.000
REMARK  8 active torsions:
REMARK  status: ('A' for Active; 'I' for Inactive)
REMARK    1  A    between atoms: C2_2  and  C3_3 
REMARK    2  A    between atoms: C3_3  and  N1_4 
REMARK    3  A    between atoms: N1_4  and  C4_5 
REMARK    4  A    between atoms: N1_4  and  C6_7 
REMARK    5  A    between atoms: C6_7  and  C7_8 
REMARK    6  A    between atoms: C7_8  and  C8_9 
REMARK    7  A    between atoms: C8_9  and  N2_10 
REMARK    8  A    between atoms: N3_13  and  N4_14 
ROOT
HETATM    1  N2  UNL     1      29.341  21.966  12.130  1.00  0.00    -0.331 N 
HETATM    2  C9  UNL     1      28.922  20.818  11.390  1.00  0.00     0.149 C 
HETATM    3  C10 UNL     1      27.590  20.456  11.982  1.00  0.00     0.174 C 
HETATM    4  N3  UNL     1      27.734  20.881  13.380  1.00  0.00    -0.239 N 
HETATM    5  C15 UNL     1      28.554  22.031  13.307  1.00  0.00     0.339 C 
HETATM    6  O2  UNL     1      28.537  22.937  14.186  1.00  0.00    -0.245 OA
ENDROOT
BRANCH   1   7
HETATM    7  C8  UNL     1      30.403  22.908  11.734  1.00  0.00     0.133 C 
BRANCH   7   8
HETATM    8  C7  UNL     1      30.764  22.742  10.310  1.00  0.00     0.065 C 
BRANCH   8   9
HETATM    9  C6  UNL     1      32.108  23.130   9.828  1.00  0.00     0.065 C 
BRANCH   9  10
HETATM   10  N1  UNL     1      32.700  22.440   8.782  1.00  0.00    -0.370 N 
BRANCH  10  11
HETATM   11  C3  UNL     1      32.293  21.171   8.355  1.00  0.00     0.089 C 
BRANCH  11  12
HETATM   12  C2  UNL     1      32.404  20.951   6.894  1.00  0.00     0.007 C 
HETATM   13  C1  UNL     1      31.802  21.575   5.970  1.00  0.00     0.012 C 
ENDBRANCH  11  12
ENDBRANCH  10  11
BRANCH  10  14
HETATM   14  C4  UNL     1      34.080  22.764   8.569  1.00  0.00     0.123 C 
HETATM   15  C5  UNL     1      34.955  21.996   9.495  1.00  0.00     0.027 C 
ENDBRANCH  10  14
ENDBRANCH   9  10
ENDBRANCH   8   9
ENDBRANCH   7   8
ENDBRANCH   1   7
BRANCH   4  16
HETATM   16  N4  UNL     1      27.159  20.231  14.405  1.00  0.00    -0.297 N 
HETATM   17  C11 UNL     1      27.954  19.684  15.430  1.00  0.00     0.109 C 
HETATM   18  C12 UNL     1      27.674  18.224  15.737  1.00  0.00     0.213 C 
HETATM   19  O1  UNL     1      26.328  17.945  15.847  1.00  0.00    -0.384 OA
HETATM   20  C13 UNL     1      25.762  18.219  14.587  1.00  0.00     0.189 C 
HETATM   21  C14 UNL     1      25.858  19.742  14.372  1.00  0.00     0.174 C 
ENDBRANCH   4  16
TORSDOF 8
ENDMDL
MODEL 2
REMARK VINA RESULT: -7.512604447      0.432      1.946
REMARK  8 active torsions:
REMARK  status: ('A' for Active; 'I' for Inactive)
REMARK    1  A    between atoms: C2_2  and  C3_3 
REMARK    2  A    between atoms: C3_3  and  N1_4 
REMARK    3  A    between atoms: N1_4  and  C4_5 
REMARK    4  A    between atoms: N1_4  and  C6_7 
REMARK    5  A    between atoms: C6_7  and  C7_8 
REMARK    6  A    between atoms: C7_8  and  C8_9 
REMARK    7  A    between atoms: C8_9  and  N2_10 
REMARK    8  A    between atoms: N3_13  and  N4_14 
ROOT
HETATM    1  N2  UNL     1      29.287  21.920  12.176  1.00  0.00    -0.331 N 
HETATM    2  C9  UNL     1      28.875  20.753  11.463  1.00  0.00     0.149 C 
HETATM    3  C10 UNL     1      27.553  20.387  12.075  1.00  0.00     0.174 C 
HETATM    4  N3  UNL     1      27.705  20.841  13.462  1.00  0.00    -0.239 N 
HETATM    5  C15 UNL     1      28.510  21.999  13.359  1.00  0.00     0.339 C 
HETATM    6  O2  UNL     1      28.490  22.922  14.220  1.00  0.00    -0.245 OA
ENDROOT
BRANCH   1   7
HETATM    7  C8  UNL     1      30.334  22.866  11.751  1.00  0.00     0.133 C 
BRANCH   7   8
HETATM    8  C7  UNL     1      30.635  22.723  10.311  1.00  0.00     0.065 C 
BRANCH   8   9
HETATM    9  C6  UNL     1      31.977  23.066   9.788  1.00  0.00     0.065 C 
BRANCH   9  10
HETATM   10  N1  UNL     1      32.789  22.080   9.250  1.00  0.00    -0.370 N 
BRANCH  10  11
HETATM   11  C3  UNL     1      34.058  22.321   8.714  1.00  0.00     0.089 C 
BRANCH  11  12
HETATM   12  C2  UNL     1      35.167  22.220   9.691  1.00  0.00     0.007 C 
HETATM   13  C1  UNL     1      35.618  23.132  10.446  1.00  0.00     0.012 C 
ENDBRANCH  11  12
ENDBRANCH  10  11
BRANCH  10  14
HETATM   14  C4  UNL     1      32.075  20.963   8.706  1.00  0.00     0.123 C 
HETATM   15  C5  UNL     1      32.385  20.788   7.262  1.00  0.00     0.027 C 
ENDBRANCH  10  14
ENDBRANCH   9  10
ENDBRANCH   8   9
ENDBRANCH   7   8
ENDBRANCH   1   7
BRANCH   4  16
HETATM   16  N4  UNL     1      27.147  20.205  14.506  1.00  0.00    -0.297 N 
HETATM   17  C11 UNL     1      27.958  19.690  15.535  1.00  0.00     0.109 C 
HETATM   18  C12 UNL     1      27.699  18.233  15.875  1.00  0.00     0.213 C 
HETATM   19  O1  UNL     1      26.359  17.940  16.002  1.00  0.00    -0.384 OA
HETATM   20  C13 UNL     1      25.778  18.180  14.742  1.00  0.00     0.189 C 
HETATM   21  C14 UNL     1      25.853  19.699  14.495  1.00  0.00     0.174 C 
ENDBRANCH   4  16
TORSDOF 8
ENDMDL
MODEL 3
REMARK VINA RESULT: -7.511437943      1.352      2.578
REMARK  8 active torsions:
REMARK  status: ('A' for Active; 'I' for Inactive)
REMARK    1  A    between atoms: C2_2  and  C3_3 
REMARK    2  A    between atoms: C3_3  and  N1_4 
REMARK    3  A    between atoms: N1_4  and  C4_5 
REMARK    4  A    between atoms: N1_4  and  C6_7 
REMARK    5  A    between atoms: C6_7  and  C7_8 
REMARK    6  A    between atoms: C7_8  and  C8_9 
REMARK    7  A    between atoms: C8_9  and  N2_10 
REMARK    8  A    between atoms: N3_13  and  N4_14 
ROOT
HETATM    1  N2  UNL     1      29.775  22.095  11.276  1.00  0.00    -0.331 N 
HETATM    2  C9  UNL     1      29.857  23.190  12.189  1.00  0.00     0.149 C 
HETATM    3  C10 UNL     1      29.650  22.568  13.540  1.00  0.00     0.174 C 
HETATM    4  N3  UNL     1      28.760  21.439  13.241  1.00  0.00    -0.239 N 
HETATM    5  C15 UNL     1      29.170  21.009  11.957  1.00  0.00     0.339 C 
HETATM    6  O2  UNL     1      28.996  19.829  11.546  1.00  0.00    -0.245 OA
ENDROOT
BRANCH   1   7
HETATM    7  C8  UNL     1      30.238  22.101   9.876  1.00  0.00     0.133 C 
BRANCH   7   8
HETATM    8  C7  UNL     1      31.557  22.756   9.751  1.00  0.00     0.065 C 
BRANCH   8   9
HETATM    9  C6  UNL     1      32.406  22.510   8.563  1.00  0.00     0.065 C 
BRANCH   9  10
HETATM   10  N1  UNL     1      33.150  21.345   8.467  1.00  0.00    -0.370 N 
BRANCH  10  11
HETATM   11  C3  UNL     1      34.345  21.123   9.160  1.00  0.00     0.089 C 
BRANCH  11  12
HETATM   12  C2  UNL     1      35.231  22.307   9.251  1.00  0.00     0.007 C 
HETATM   13  C1  UNL     1      35.608  22.913  10.299  1.00  0.00     0.012 C 
ENDBRANCH  11  12
ENDBRANCH  10  11
BRANCH  10  14
HETATM   14  C4  UNL     1      33.009  20.658   7.218  1.00  0.00     0.123 C 
HETATM   15  C5  UNL     1      32.140  21.424   6.285  1.00  0.00     0.027 C 
ENDBRANCH  10  14
ENDBRANCH   9  10
ENDBRANCH   8   9
ENDBRANCH   7   8
ENDBRANCH   1   7
BRANCH   4  16
HETATM   16  N4  UNL     1      27.811  21.011  14.089  1.00  0.00    -0.297 N 
HETATM   17  C11 UNL     1      28.157  20.203  15.187  1.00  0.00     0.109 C 
HETATM   18  C12 UNL     1      27.345  18.926  15.315  1.00  0.00     0.213 C 
HETATM   19  O1  UNL     1      25.991  19.131  15.161  1.00  0.00    -0.384 OA
HETATM   20  C13 UNL     1      25.809  19.609  13.849  1.00  0.00     0.189 C 
HETATM   21  C14 UNL     1      26.454  21.006  13.785  1.00  0.00     0.174 C 
ENDBRANCH   4  16
TORSDOF 8
ENDMDL
MODEL 4
REMARK VINA RESULT: -7.449340023      3.112      5.578
REMARK  8 active torsions:
REMARK  status: ('A' for Active; 'I' for Inactive)
REMARK    1  A    between atoms: C2_2  and  C3_3 
REMARK    2  A    between atoms: C3_3  and  N1_4 
REMARK    3  A    between atoms: N1_4  and  C4_5 
REMARK    4  A    between atoms: N1_4  and  C6_7 
REMARK    5  A    between atoms: C6_7  and  C7_8 
REMARK    6  A    between atoms: C7_8  and  C8_9 
REMARK    7  A    between atoms: C8_9  and  N2_10 
REMARK    8  A    between atoms: N3_13  and  N4_14 
ROOT
HETATM    1  N2  UNL     1      28.904  20.579  14.460  1.00  0.00    -0.331 N 
HETATM    2  C9  UNL     1      28.068  21.737  14.432  1.00  0.00     0.149 C 
HETATM    3  C10 UNL     1      29.003  22.866  14.106  1.00  0.00     0.174 C 
HETATM    4  N3  UNL     1      30.264  22.424  14.716  1.00  0.00    -0.239 N 
HETATM    5  C15 UNL     1      30.247  21.019  14.559  1.00  0.00     0.339 C 
HETATM    6  O2  UNL     1      31.301  20.325  14.519  1.00  0.00    -0.245 OA
ENDROOT
BRANCH   1   7
HETATM    7  C8  UNL     1      28.443  19.180  14.399  1.00  0.00     0.133 C 
BRANCH   7   8
HETATM    8  C7  UNL     1      27.678  18.921  13.161  1.00  0.00     0.065 C 
BRANCH   8   9
HETATM    9  C6  UNL     1      28.375  18.806  11.859  1.00  0.00     0.065 C 
BRANCH   9  10
HETATM   10  N1  UNL     1      29.328  19.744  11.494  1.00  0.00    -0.370 N 
BRANCH  10  11
HETATM   11  C3  UNL     1      29.027  20.962  10.875  1.00  0.00     0.089 C 
BRANCH  11  12
HETATM   12  C2  UNL     1      30.210  21.717  10.400  1.00  0.00     0.007 C 
HETATM   13  C1  UNL     1      30.538  22.905  10.695  1.00  0.00     0.012 C 
ENDBRANCH  11  12
ENDBRANCH  10  11
BRANCH  10  14
HETATM   14  C4  UNL     1      30.617  19.189  11.202  1.00  0.00     0.123 C 
HETATM   15  C5  UNL     1      30.667  17.746  11.557  1.00  0.00     0.027 C 
ENDBRANCH  10  14
ENDBRANCH   9  10
ENDBRANCH   8   9
ENDBRANCH   7   8
ENDBRANCH   1   7
BRANCH   4  16
HETATM   16  N4  UNL     1      31.149  23.273  15.263  1.00  0.00    -0.297 N 
HETATM   17  C11 UNL     1      32.311  23.635  14.556  1.00  0.00     0.109 C 
HETATM   18  C12 UNL     1      33.604  23.465  15.333  1.00  0.00     0.213 C 
HETATM   19  O1  UNL     1      33.534  23.969  16.613  1.00  0.00    -0.384 OA
HETATM   20  C13 UNL     1      32.546  23.220  17.282  1.00  0.00     0.189 C 
HETATM   21  C14 UNL     1      31.197  23.563  16.622  1.00  0.00     0.174 C 
ENDBRANCH   4  16
TORSDOF 8
ENDMDL
MODEL 5
REMARK VINA RESULT: -7.336835418      1.599      2.072
REMARK  8 active torsions:
REMARK  status: ('A' for Active; 'I' for Inactive)
REMARK    1  A    between atoms: C2_2  and  C3_3 
REMARK    2  A    between atoms: C3_3  and  N1_4 
REMARK    3  A    between atoms: N1_4  and  C4_5 
REMARK    4  A    between atoms: N1_4  and  C6_7 
REMARK    5  A    between atoms: C6_7  and  C7_8 
REMARK    6  A    between atoms: C7_8  and  C8_9 
REMARK    7  A    between atoms: C8_9  and  N2_10 
REMARK    8  A    between atoms: N3_13  and  N4_14 
ROOT
HETATM    1  N2  UNL     1      29.762  22.100  11.351  1.00  0.00    -0.331 N 
HETATM    2  C9  UNL     1      29.843  23.176  12.287  1.00  0.00     0.149 C 
HETATM    3  C10 UNL     1      29.622  22.528  13.624  1.00  0.00     0.174 C 
HETATM    4  N3  UNL     1      28.728  21.411  13.295  1.00  0.00    -0.239 N 
HETATM    5  C15 UNL     1      29.146  21.005  12.006  1.00  0.00     0.339 C 
HETATM    6  O2  UNL     1      28.968  19.833  11.570  1.00  0.00    -0.245 OA
ENDROOT
BRANCH   1   7
HETATM    7  C8  UNL     1      30.236  22.131   9.956  1.00  0.00     0.133 C 
BRANCH   7   8
HETATM    8  C7  UNL     1      31.508  22.875   9.839  1.00  0.00     0.065 C 
BRANCH   8   9
HETATM    9  C6  UNL     1      32.498  22.506   8.801  1.00  0.00     0.065 C 
BRANCH   9  10
HETATM   10  N1  UNL     1      33.841  22.397   9.126  1.00  0.00    -0.370 N 
BRANCH  10  11
HETATM   11  C3  UNL     1      34.544  21.188   9.144  1.00  0.00     0.089 C 
BRANCH  11  12
HETATM   12  C2  UNL     1      34.894  20.661   7.805  1.00  0.00     0.007 C 
HETATM   13  C1  UNL     1      35.618  21.210   6.922  1.00  0.00     0.012 C 
ENDBRANCH  11  12
ENDBRANCH  10  11
BRANCH  10  14
HETATM   14  C4  UNL     1      34.315  23.416  10.016  1.00  0.00     0.123 C 
HETATM   15  C5  UNL     1      35.733  23.173  10.394  1.00  0.00     0.027 C 
ENDBRANCH  10  14
ENDBRANCH   9  10
ENDBRANCH   8   9
ENDBRANCH   7   8
ENDBRANCH   1   7
BRANCH   4  16
HETATM   16  N4  UNL     1      27.770  20.972  14.127  1.00  0.00    -0.297 N 
HETATM   17  C11 UNL     1      28.102  20.136  15.209  1.00  0.00     0.109 C 
HETATM   18  C12 UNL     1      27.280  18.863  15.302  1.00  0.00     0.213 C 
HETATM   19  O1  UNL     1      25.929  19.082  15.144  1.00  0.00    -0.384 OA
HETATM   20  C13 UNL     1      25.759  19.591  13.842  1.00  0.00     0.189 C 
HETATM   21  C14 UNL     1      26.415  20.985  13.814  1.00  0.00     0.174 C 
ENDBRANCH   4  16
TORSDOF 8
ENDMDL
