MODEL 1
REMARK VINA RESULT: -8.000146192      0.000      0.000
REMARK  9 active torsions:
REMARK  status: ('A' for Active; 'I' for Inactive)
REMARK    1  A    between atoms: C2_3  and  C3_4 
REMARK    2  A    between atoms: N2_7  and  C6_8 
REMARK    3  A    between atoms: C6_8  and  C7_9 
REMARK    4  A    between atoms: C7_9  and  C8_10 
REMARK    5  A    between atoms: C8_10  and  C9_11 
REMARK    6  A    between atoms: C9_11  and  N3_12 
REMARK    7  A    between atoms: N4_15  and  C12_16 
REMARK    8  A    between atoms: C12_16  and  C13_17 
REMARK    9  A    between atoms: C13_17  and  O1_18 
ROOT
HETATM    1  N1  UNL     1      33.954  19.715   6.454  1.00  0.00    -0.197 NA
HETATM    2  C1  UNL     1      33.888  20.846   6.743  1.00  0.00     0.063 C 
HETATM    3  C2  UNL     1      33.790  22.254   7.120  1.00  0.00     0.163 C 
ENDROOT
BRANCH   3   4
HETATM    4  C3  UNL     1      32.853  22.464   8.252  1.00  0.00    -0.027 A 
HETATM    5  C4  UNL     1      31.584  21.907   8.225  1.00  0.00     0.028 A 
HETATM    6  C5  UNL     1      30.696  22.100   9.288  1.00  0.00     0.110 A 
HETATM    7  N2  UNL     1      31.077  22.833  10.350  1.00  0.00    -0.304 N 
HETATM    8  N5  UNL     1      32.281  23.355  10.363  1.00  0.00    -0.310 N 
HETATM    9  C15 UNL     1      33.172  23.203   9.373  1.00  0.00     0.115 A 
ATOM     10  H5  UNL     1      32.556  23.909  11.175  1.00  0.00     0.186 HD
BRANCH   7  11
HETATM   11  C6  UNL     1      30.198  23.050  11.469  1.00  0.00     0.148 C 
BRANCH  11  12
HETATM   12  C7  UNL     1      29.497  21.817  11.923  1.00  0.00     0.023 C 
BRANCH  12  13
HETATM   13  C8  UNL     1      29.757  21.510  13.358  1.00  0.00     0.022 C 
BRANCH  13  14
HETATM   14  C9  UNL     1      28.646  21.939  14.277  1.00  0.00     0.129 C 
BRANCH  14  15
HETATM   15  N3  UNL     1      27.587  20.970  14.379  1.00  0.00    -0.352 N 
HETATM   16  C10 UNL     1      26.395  21.009  13.719  1.00  0.00     0.109 A 
HETATM   17  C11 UNL     1      25.683  19.891  14.101  1.00  0.00     0.109 A 
HETATM   18  N4  UNL     1      26.458  19.212  14.973  1.00  0.00    -0.350 N 
HETATM   19  C14 UNL     1      27.620  19.869  15.143  1.00  0.00     0.185 A 
BRANCH  18  20
HETATM   20  C12 UNL     1      26.068  17.977  15.605  1.00  0.00     0.155 C 
BRANCH  20  21
HETATM   21  C13 UNL     1      27.149  17.598  16.598  1.00  0.00     0.184 C 
BRANCH  21  22
HETATM   22  O1  UNL     1      26.746  16.434  17.246  1.00  0.00    -0.399 OA
ATOM     23  H1  UNL     1      27.027  16.492  18.152  1.00  0.00     0.209 HD
ENDBRANCH  21  22
ENDBRANCH  20  21
ENDBRANCH  18  20
ENDBRANCH  14  15
ENDBRANCH  13  14
ENDBRANCH  12  13
ENDBRANCH  11  12
ENDBRANCH   7  11
ENDBRANCH   3   4
TORSDOF 9
ENDMDL
MODEL 2
REMARK VINA RESULT: -7.918067883      3.284      5.218
REMARK  9 active torsions:
REMARK  status: ('A' for Active; 'I' for Inactive)
REMARK    1  A    between atoms: C2_3  and  C3_4 
REMARK    2  A    between atoms: N2_7  and  C6_8 
REMARK    3  A    between atoms: C6_8  and  C7_9 
REMARK    4  A    between atoms: C7_9  and  C8_10 
REMARK    5  A    between atoms: C8_10  and  C9_11 
REMARK    6  A    between atoms: C9_11  and  N3_12 
REMARK    7  A    between atoms: N4_15  and  C12_16 
REMARK    8  A    between atoms: C12_16  and  C13_17 
REMARK    9  A    between atoms: C13_17  and  O1_18 
ROOT
HETATM    1  N1  UNL     1      32.056  23.273  10.534  1.00  0.00    -0.197 NA
HETATM    2  C1  UNL     1      31.056  22.766  10.200  1.00  0.00     0.063 C 
HETATM    3  C2  UNL     1      29.811  22.115   9.800  1.00  0.00     0.163 C 
ENDROOT
BRANCH   3   4
HETATM    4  C3  UNL     1      29.507  20.929  10.639  1.00  0.00    -0.027 A 
HETATM    5  C4  UNL     1      28.196  20.613  10.959  1.00  0.00     0.028 A 
HETATM    6  C5  UNL     1      27.903  19.497  11.750  1.00  0.00     0.110 A 
HETATM    7  N2  UNL     1      28.902  18.720  12.204  1.00  0.00    -0.304 N 
HETATM    8  N5  UNL     1      30.140  19.030  11.894  1.00  0.00    -0.310 N 
HETATM    9  C15 UNL     1      30.479  20.087  11.141  1.00  0.00     0.115 A 
ATOM     10  H5  UNL     1      30.887  18.433  12.247  1.00  0.00     0.186 HD
BRANCH   7  11
HETATM   11  C6  UNL     1      28.645  17.559  13.014  1.00  0.00     0.148 C 
BRANCH  11  12
HETATM   12  C7  UNL     1      27.434  17.688  13.873  1.00  0.00     0.023 C 
BRANCH  12  13
HETATM   13  C8  UNL     1      27.763  18.126  15.258  1.00  0.00     0.022 C 
BRANCH  13  14
HETATM   14  C9  UNL     1      27.450  19.572  15.523  1.00  0.00     0.129 C 
BRANCH  14  15
HETATM   15  N3  UNL     1      28.509  20.464  15.131  1.00  0.00    -0.352 N 
HETATM   16  C10 UNL     1      29.838  20.295  15.384  1.00  0.00     0.109 A 
HETATM   17  C11 UNL     1      30.496  21.373  14.831  1.00  0.00     0.109 A 
HETATM   18  N4  UNL     1      29.556  22.157  14.263  1.00  0.00    -0.350 N 
HETATM   19  C14 UNL     1      28.344  21.604  14.445  1.00  0.00     0.185 A 
BRANCH  18  20
HETATM   20  C12 UNL     1      29.843  23.392  13.576  1.00  0.00     0.155 C 
BRANCH  20  21
HETATM   21  C13 UNL     1      29.466  24.537  14.493  1.00  0.00     0.184 C 
BRANCH  21  22
HETATM   22  O1  UNL     1      29.055  25.604  13.699  1.00  0.00    -0.399 OA
ATOM     23  H1  UNL     1      28.542  26.191  14.242  1.00  0.00     0.209 HD
ENDBRANCH  21  22
ENDBRANCH  20  21
ENDBRANCH  18  20
ENDBRANCH  14  15
ENDBRANCH  13  14
ENDBRANCH  12  13
ENDBRANCH  11  12
ENDBRANCH   7  11
ENDBRANCH   3   4
TORSDOF 9
ENDMDL
MODEL 3
REMARK VINA RESULT: -7.886064449      3.306      4.550
REMARK  9 active torsions:
REMARK  status: ('A' for Active; 'I' for Inactive)
REMARK    1  A    between atoms: C2_3  and  C3_4 
REMARK    2  A    between atoms: N2_7  and  C6_8 
REMARK    3  A    between atoms: C6_8  and  C7_9 
REMARK    4  A    between atoms: C7_9  and  C8_10 
REMARK    5  A    between atoms: C8_10  and  C9_11 
REMARK    6  A    between atoms: C9_11  and  N3_12 
REMARK    7  A    between atoms: N4_15  and  C12_16 
REMARK    8  A    between atoms: C12_16  and  C13_17 
REMARK    9  A    between atoms: C13_17  and  O1_18 
ROOT
HETATM    1  N1  UNL     1      33.264  20.206   6.582  1.00  0.00    -0.197 NA
HETATM    2  C1  UNL     1      32.800  21.049   7.247  1.00  0.00     0.063 C 
HETATM    3  C2  UNL     1      32.207  22.085   8.089  1.00  0.00     0.163 C 
ENDROOT
BRANCH   3   4
HETATM    4  C3  UNL     1      31.372  21.511   9.173  1.00  0.00    -0.027 A 
HETATM    5  C4  UNL     1      30.223  22.164   9.594  1.00  0.00     0.028 A 
HETATM    6  C5  UNL     1      29.431  21.629  10.615  1.00  0.00     0.110 A 
HETATM    7  N2  UNL     1      29.785  20.468  11.195  1.00  0.00    -0.304 N 
HETATM    8  N5  UNL     1      30.875  19.861  10.788  1.00  0.00    -0.310 N 
HETATM    9  C15 UNL     1      31.671  20.327   9.815  1.00  0.00     0.115 A 
ATOM     10  H5  UNL     1      31.132  18.982  11.238  1.00  0.00     0.186 HD
BRANCH   7  11
HETATM   11  C6  UNL     1      28.995  19.879  12.244  1.00  0.00     0.148 C 
BRANCH  11  12
HETATM   12  C7  UNL     1      27.646  20.494  12.391  1.00  0.00     0.023 C 
BRANCH  12  13
HETATM   13  C8  UNL     1      27.469  21.169  13.708  1.00  0.00     0.022 C 
BRANCH  13  14
HETATM   14  C9  UNL     1      28.571  20.874  14.688  1.00  0.00     0.129 C 
BRANCH  14  15
HETATM   15  N3  UNL     1      29.554  21.922  14.770  1.00  0.00    -0.352 N 
HETATM   16  C10 UNL     1      29.369  23.227  14.421  1.00  0.00     0.109 A 
HETATM   17  C11 UNL     1      30.558  23.883  14.661  1.00  0.00     0.109 A 
HETATM   18  N4  UNL     1      31.422  22.965  15.144  1.00  0.00    -0.350 N 
HETATM   19  C14 UNL     1      30.811  21.769  15.211  1.00  0.00     0.185 A 
BRANCH  18  20
HETATM   20  C12 UNL     1      32.782  23.257  15.520  1.00  0.00     0.155 C 
BRANCH  20  21
HETATM   21  C13 UNL     1      32.853  23.287  17.034  1.00  0.00     0.184 C 
BRANCH  21  22
HETATM   22  O1  UNL     1      33.632  24.380  17.404  1.00  0.00    -0.399 OA
ATOM     23  H1  UNL     1      33.063  25.018  17.819  1.00  0.00     0.209 HD
ENDBRANCH  21  22
ENDBRANCH  20  21
ENDBRANCH  18  20
ENDBRANCH  14  15
ENDBRANCH  13  14
ENDBRANCH  12  13
ENDBRANCH  11  12
ENDBRANCH   7  11
ENDBRANCH   3   4
TORSDOF 9
ENDMDL
MODEL 4
REMARK VINA RESULT: -7.875548252      2.074      2.853
REMARK  9 active torsions:
REMARK  status: ('A' for Active; 'I' for Inactive)
REMARK    1  A    between atoms: C2_3  and  C3_4 
REMARK    2  A    between atoms: N2_7  and  C6_8 
REMARK    3  A    between atoms: C6_8  and  C7_9 
REMARK    4  A    between atoms: C7_9  and  C8_10 
REMARK    5  A    between atoms: C8_10  and  C9_11 
REMARK    6  A    between atoms: C9_11  and  N3_12 
REMARK    7  A    between atoms: N4_15  and  C12_16 
REMARK    8  A    between atoms: C12_16  and  C13_17 
REMARK    9  A    between atoms: C13_17  and  O1_18 
ROOT
HETATM    1  N1  UNL     1      33.793  20.061   6.448  1.00  0.00    -0.197 NA
HETATM    2  C1  UNL     1      33.250  20.944   6.989  1.00  0.00     0.063 C 
HETATM    3  C2  UNL     1      32.559  22.031   7.678  1.00  0.00     0.163 C 
ENDROOT
BRANCH   3   4
HETATM    4  C3  UNL     1      31.710  21.535   8.791  1.00  0.00    -0.027 A 
HETATM    5  C4  UNL     1      30.583  22.240   9.182  1.00  0.00     0.028 A 
HETATM    6  C5  UNL     1      29.779  21.779  10.229  1.00  0.00     0.110 A 
HETATM    7  N2  UNL     1      30.101  20.638  10.864  1.00  0.00    -0.304 N 
HETATM    8  N5  UNL     1      31.171  19.979  10.484  1.00  0.00    -0.310 N 
HETATM    9  C15 UNL     1      31.977  20.374   9.488  1.00  0.00     0.115 A 
ATOM     10  H5  UNL     1      31.403  19.116  10.975  1.00  0.00     0.186 HD
BRANCH   7  11
HETATM   11  C6  UNL     1      29.297  20.123  11.941  1.00  0.00     0.148 C 
BRANCH  11  12
HETATM   12  C7  UNL     1      27.833  20.296  11.727  1.00  0.00     0.023 C 
BRANCH  12  13
HETATM   13  C8  UNL     1      27.126  20.737  12.962  1.00  0.00     0.022 C 
BRANCH  13  14
HETATM   14  C9  UNL     1      26.293  19.658  13.597  1.00  0.00     0.129 C 
BRANCH  14  15
HETATM   15  N3  UNL     1      26.866  19.139  14.811  1.00  0.00    -0.352 N 
HETATM   16  C10 UNL     1      26.522  17.974  15.428  1.00  0.00     0.109 A 
HETATM   17  C11 UNL     1      27.315  17.860  16.550  1.00  0.00     0.109 A 
HETATM   18  N4  UNL     1      28.110  18.951  16.581  1.00  0.00    -0.350 N 
HETATM   19  C14 UNL     1      27.837  19.732  15.521  1.00  0.00     0.185 A 
BRANCH  18  20
HETATM   20  C12 UNL     1      29.090  19.206  17.607  1.00  0.00     0.155 C 
BRANCH  20  21
HETATM   21  C13 UNL     1      29.956  20.362  17.150  1.00  0.00     0.184 C 
BRANCH  21  22
HETATM   22  O1  UNL     1      30.972  20.531  18.086  1.00  0.00    -0.399 OA
ATOM     23  H1  UNL     1      31.560  19.788  18.017  1.00  0.00     0.209 HD
ENDBRANCH  21  22
ENDBRANCH  20  21
ENDBRANCH  18  20
ENDBRANCH  14  15
ENDBRANCH  13  14
ENDBRANCH  12  13
ENDBRANCH  11  12
ENDBRANCH   7  11
ENDBRANCH   3   4
TORSDOF 9
ENDMDL
MODEL 5
REMARK VINA RESULT: -7.803309948      3.276      8.871
REMARK  9 active torsions:
REMARK  status: ('A' for Active; 'I' for Inactive)
REMARK    1  A    between atoms: C2_3  and  C3_4 
REMARK    2  A    between atoms: N2_7  and  C6_8 
REMARK    3  A    between atoms: C6_8  and  C7_9 
REMARK    4  A    between atoms: C7_9  and  C8_10 
REMARK    5  A    between atoms: C8_10  and  C9_11 
REMARK    6  A    between atoms: C9_11  and  N3_12 
REMARK    7  A    between atoms: N4_15  and  C12_16 
REMARK    8  A    between atoms: C12_16  and  C13_17 
REMARK    9  A    between atoms: C13_17  and  O1_18 
ROOT
HETATM    1  N1  UNL     1      27.171  17.284  17.084  1.00  0.00    -0.197 NA
HETATM    2  C1  UNL     1      26.769  17.942  16.204  1.00  0.00     0.063 C 
HETATM    3  C2  UNL     1      26.285  18.779  15.109  1.00  0.00     0.163 C 
ENDROOT
BRANCH   3   4
HETATM    4  C3  UNL     1      27.233  19.875  14.785  1.00  0.00    -0.027 A 
HETATM    5  C4  UNL     1      28.527  19.852  15.279  1.00  0.00     0.028 A 
HETATM    6  C5  UNL     1      29.425  20.881  14.978  1.00  0.00     0.110 A 
HETATM    7  N2  UNL     1      29.030  21.904  14.199  1.00  0.00    -0.304 N 
HETATM    8  N5  UNL     1      27.802  21.914  13.737  1.00  0.00    -0.310 N 
HETATM    9  C15 UNL     1      26.900  20.956  13.994  1.00  0.00     0.115 A 
ATOM     10  H5  UNL     1      27.516  22.696  13.148  1.00  0.00     0.186 HD
BRANCH   7  11
HETATM   11  C6  UNL     1      29.924  22.979  13.858  1.00  0.00     0.148 C 
BRANCH  11  12
HETATM   12  C7  UNL     1      29.691  23.537  12.496  1.00  0.00     0.023 C 
BRANCH  12  13
HETATM   13  C8  UNL     1      30.820  23.254  11.565  1.00  0.00     0.022 C 
BRANCH  13  14
HETATM   14  C9  UNL     1      30.401  22.545  10.307  1.00  0.00     0.129 C 
BRANCH  14  15
HETATM   15  N3  UNL     1      31.452  22.455   9.328  1.00  0.00    -0.352 N 
HETATM   16  C10 UNL     1      32.693  23.010   9.428  1.00  0.00     0.109 A 
HETATM   17  C11 UNL     1      33.379  22.676   8.279  1.00  0.00     0.109 A 
HETATM   18  N4  UNL     1      32.541  21.935   7.523  1.00  0.00    -0.350 N 
HETATM   19  C14 UNL     1      31.366  21.799   8.162  1.00  0.00     0.185 A 
BRANCH  18  20
HETATM   20  C12 UNL     1      32.888  21.390   6.235  1.00  0.00     0.155 C 
BRANCH  20  21
HETATM   21  C13 UNL     1      34.310  20.872   6.312  1.00  0.00     0.184 C 
BRANCH  21  22
HETATM   22  O1  UNL     1      34.263  19.482   6.260  1.00  0.00    -0.399 OA
ATOM     23  H1  UNL     1      34.846  19.144   6.930  1.00  0.00     0.209 HD
ENDBRANCH  21  22
ENDBRANCH  20  21
ENDBRANCH  18  20
ENDBRANCH  14  15
ENDBRANCH  13  14
ENDBRANCH  12  13
ENDBRANCH  11  12
ENDBRANCH   7  11
ENDBRANCH   3   4
TORSDOF 9
ENDMDL
