MODEL 1
REMARK VINA RESULT: -6.578661175      0.000      0.000
REMARK  9 active torsions:
REMARK  status: ('A' for Active; 'I' for Inactive)
REMARK    1  A    between atoms: C2_2  and  C3_3 
REMARK    2  A    between atoms: C3_3  and  N1_4 
REMARK    3  A    between atoms: N2_7  and  C6_8 
REMARK    4  A    between atoms: C6_8  and  C7_9 
REMARK    5  A    between atoms: C7_9  and  C8_10 
REMARK    6  A    between atoms: C8_10  and  S1_11 
REMARK    7  A    between atoms: S1_11  and  C9_13 
REMARK    8  A    between atoms: C9_13  and  C10_14 
REMARK    9  A    between atoms: C10_14  and  N3_15 
ROOT
HETATM    1  C6  UNL     1      29.117  19.438  12.089  1.00  0.00     0.273 C 
ENDROOT
BRANCH   1   2
HETATM    2  N2  UNL     1      27.896  18.833  12.579  1.00  0.00     0.091 N 
HETATM    3  C5  UNL     1      27.015  19.719  13.259  1.00  0.00     0.292 C 
HETATM    4  C4  UNL     1      27.438  19.852  14.718  1.00  0.00     0.152 C 
HETATM    5  N1  UNL     1      27.253  18.635  15.407  1.00  0.00    -0.390 N 
HETATM    6  C14 UNL     1      27.286  17.476  14.517  1.00  0.00     0.152 C 
HETATM    7  C13 UNL     1      28.288  17.701  13.399  1.00  0.00     0.292 C 
BRANCH   5   8
HETATM    8  C3  UNL     1      27.894  18.398  16.633  1.00  0.00     0.058 C 
BRANCH   8   9
HETATM    9  C2  UNL     1      28.852  19.431  17.069  1.00  0.00     0.040 C 
HETATM   10  C1  UNL     1      29.058  19.551  18.541  1.00  0.00     0.010 C 
ENDBRANCH   8   9
ENDBRANCH   5   8
ENDBRANCH   1   2
BRANCH   1  11
HETATM   11  C7  UNL     1      28.757  20.699  11.377  1.00  0.00     0.043 C 
BRANCH  11  12
HETATM   12  C8  UNL     1      29.713  21.810  11.640  1.00  0.00     0.110 C 
BRANCH  12  13
HETATM   13  S1  UNL     1      29.371  22.696  13.092  1.00  0.00     0.016 S 
HETATM   14  O1  UNL     1      29.375  24.331  12.868  1.00  0.00    -0.258 OA
BRANCH  13  15
HETATM   15  C9  UNL     1      30.468  22.261  14.429  1.00  0.00     0.139 C 
BRANCH  15  16
HETATM   16  C10 UNL     1      31.578  23.255  14.496  1.00  0.00     0.285 C 
BRANCH  16  17
HETATM   17  N3  UNL     1      31.802  23.767  15.830  1.00  0.00     0.092 N 
HETATM   18  C11 UNL     1      31.873  22.832  16.934  1.00  0.00     0.302 A 
HETATM   19  C12 UNL     1      33.098  23.580  16.456  1.00  0.00     0.302 A 
ENDBRANCH  16  17
ENDBRANCH  15  16
ENDBRANCH  13  15
ENDBRANCH  12  13
ENDBRANCH  11  12
ENDBRANCH   1  11
TORSDOF 9
ENDMDL
MODEL 2
REMARK VINA RESULT: -6.445109014      1.024      1.114
REMARK  9 active torsions:
REMARK  status: ('A' for Active; 'I' for Inactive)
REMARK    1  A    between atoms: C2_2  and  C3_3 
REMARK    2  A    between atoms: C3_3  and  N1_4 
REMARK    3  A    between atoms: N2_7  and  C6_8 
REMARK    4  A    between atoms: C6_8  and  C7_9 
REMARK    5  A    between atoms: C7_9  and  C8_10 
REMARK    6  A    between atoms: C8_10  and  S1_11 
REMARK    7  A    between atoms: S1_11  and  C9_13 
REMARK    8  A    between atoms: C9_13  and  C10_14 
REMARK    9  A    between atoms: C10_14  and  N3_15 
ROOT
HETATM    1  C6  UNL     1      28.948  19.419  12.060  1.00  0.00     0.273 C 
ENDROOT
BRANCH   1   2
HETATM    2  N2  UNL     1      27.764  18.803  12.621  1.00  0.00     0.091 N 
HETATM    3  C5  UNL     1      26.902  19.687  13.328  1.00  0.00     0.292 C 
HETATM    4  C4  UNL     1      27.394  19.854  14.762  1.00  0.00     0.152 C 
HETATM    5  N1  UNL     1      27.266  18.648  15.481  1.00  0.00    -0.390 N 
HETATM    6  C14 UNL     1      27.276  17.473  14.611  1.00  0.00     0.152 C 
HETATM    7  C13 UNL     1      28.217  17.693  13.441  1.00  0.00     0.292 C 
BRANCH   5   8
HETATM    8  C3  UNL     1      27.972  18.444  16.678  1.00  0.00     0.058 C 
BRANCH   8   9
HETATM    9  C2  UNL     1      28.920  19.510  17.055  1.00  0.00     0.040 C 
HETATM   10  C1  UNL     1      29.160  19.684  18.515  1.00  0.00     0.010 C 
ENDBRANCH   8   9
ENDBRANCH   5   8
ENDBRANCH   1   2
BRANCH   1  11
HETATM   11  C7  UNL     1      28.522  20.624  11.288  1.00  0.00     0.043 C 
BRANCH  11  12
HETATM   12  C8  UNL     1      29.668  21.389  10.724  1.00  0.00     0.110 C 
BRANCH  12  13
HETATM   13  S1  UNL     1      30.055  22.825  11.617  1.00  0.00     0.016 S 
HETATM   14  O1  UNL     1      31.654  23.227  11.534  1.00  0.00    -0.258 OA
BRANCH  13  15
HETATM   15  C9  UNL     1      29.538  22.727  13.321  1.00  0.00     0.139 C 
BRANCH  15  16
HETATM   16  C10 UNL     1      30.478  23.521  14.165  1.00  0.00     0.285 C 
BRANCH  16  17
HETATM   17  N3  UNL     1      31.278  22.701  15.048  1.00  0.00     0.092 N 
HETATM   18  C11 UNL     1      32.624  23.130  15.370  1.00  0.00     0.302 A 
HETATM   19  C12 UNL     1      31.522  23.149  16.408  1.00  0.00     0.302 A 
ENDBRANCH  16  17
ENDBRANCH  15  16
ENDBRANCH  13  15
ENDBRANCH  12  13
ENDBRANCH  11  12
ENDBRANCH   1  11
TORSDOF 9
ENDMDL
MODEL 3
REMARK VINA RESULT: -6.375073452      1.787      4.287
REMARK  9 active torsions:
REMARK  status: ('A' for Active; 'I' for Inactive)
REMARK    1  A    between atoms: C2_2  and  C3_3 
REMARK    2  A    between atoms: C3_3  and  N1_4 
REMARK    3  A    between atoms: N2_7  and  C6_8 
REMARK    4  A    between atoms: C6_8  and  C7_9 
REMARK    5  A    between atoms: C7_9  and  C8_10 
REMARK    6  A    between atoms: C8_10  and  S1_11 
REMARK    7  A    between atoms: S1_11  and  C9_13 
REMARK    8  A    between atoms: C9_13  and  C10_14 
REMARK    9  A    between atoms: C10_14  and  N3_15 
ROOT
HETATM    1  C6  UNL     1      27.935  18.397  14.647  1.00  0.00     0.273 C 
ENDROOT
BRANCH   1   2
HETATM    2  N2  UNL     1      27.536  18.492  13.258  1.00  0.00     0.091 N 
HETATM    3  C5  UNL     1      28.480  17.982  12.324  1.00  0.00     0.292 C 
HETATM    4  C4  UNL     1      29.527  19.047  12.011  1.00  0.00     0.152 C 
HETATM    5  N1  UNL     1      28.949  20.130  11.316  1.00  0.00    -0.390 N 
HETATM    6  C14 UNL     1      27.516  20.262  11.574  1.00  0.00     0.152 C 
HETATM    7  C13 UNL     1      27.205  19.884  13.010  1.00  0.00     0.292 C 
BRANCH   5   8
HETATM    8  C3  UNL     1      29.605  21.369  11.240  1.00  0.00     0.058 C 
BRANCH   8   9
HETATM    9  C2  UNL     1      29.771  21.927   9.884  1.00  0.00     0.040 C 
HETATM   10  C1  UNL     1      31.125  22.459   9.559  1.00  0.00     0.010 C 
ENDBRANCH   8   9
ENDBRANCH   5   8
ENDBRANCH   1   2
BRANCH   1  11
HETATM   11  C7  UNL     1      27.864  19.762  15.244  1.00  0.00     0.043 C 
BRANCH  11  12
HETATM   12  C8  UNL     1      29.035  20.082  16.105  1.00  0.00     0.110 C 
BRANCH  12  13
HETATM   13  S1  UNL     1      30.161  21.181  15.374  1.00  0.00     0.016 S 
HETATM   14  O1  UNL     1      31.271  20.425  14.414  1.00  0.00    -0.258 OA
BRANCH  13  15
HETATM   15  C9  UNL     1      30.989  22.206  16.575  1.00  0.00     0.139 C 
BRANCH  15  16
HETATM   16  C10 UNL     1      30.996  23.618  16.092  1.00  0.00     0.285 C 
BRANCH  16  17
HETATM   17  N3  UNL     1      32.329  24.136  15.871  1.00  0.00     0.092 N 
HETATM   18  C11 UNL     1      33.466  23.316  16.238  1.00  0.00     0.302 A 
HETATM   19  C12 UNL     1      33.131  23.596  14.788  1.00  0.00     0.302 A 
ENDBRANCH  16  17
ENDBRANCH  15  16
ENDBRANCH  13  15
ENDBRANCH  12  13
ENDBRANCH  11  12
ENDBRANCH   1  11
TORSDOF 9
ENDMDL
MODEL 4
REMARK VINA RESULT: -6.304348547      4.577      6.196
REMARK  9 active torsions:
REMARK  status: ('A' for Active; 'I' for Inactive)
REMARK    1  A    between atoms: C2_2  and  C3_3 
REMARK    2  A    between atoms: C3_3  and  N1_4 
REMARK    3  A    between atoms: N2_7  and  C6_8 
REMARK    4  A    between atoms: C6_8  and  C7_9 
REMARK    5  A    between atoms: C7_9  and  C8_10 
REMARK    6  A    between atoms: C8_10  and  S1_11 
REMARK    7  A    between atoms: S1_11  and  C9_13 
REMARK    8  A    between atoms: C9_13  and  C10_14 
REMARK    9  A    between atoms: C10_14  and  N3_15 
ROOT
HETATM    1  C6  UNL     1      29.828  22.582  10.935  1.00  0.00     0.273 C 
ENDROOT
BRANCH   1   2
HETATM    2  N2  UNL     1      29.905  21.465  11.854  1.00  0.00     0.091 N 
HETATM    3  C5  UNL     1      29.189  20.304  11.451  1.00  0.00     0.292 C 
HETATM    4  C4  UNL     1      27.724  20.430  11.856  1.00  0.00     0.152 C 
HETATM    5  N1  UNL     1      27.588  20.412  13.260  1.00  0.00    -0.390 N 
HETATM    6  C14 UNL     1      28.799  20.859  13.947  1.00  0.00     0.152 C 
HETATM    7  C13 UNL     1      29.478  21.959  13.152  1.00  0.00     0.292 C 
BRANCH   5   8
HETATM    8  C3  UNL     1      26.413  20.871  13.876  1.00  0.00     0.058 C 
BRANCH   8   9
HETATM    9  C2  UNL     1      25.327  19.882  14.008  1.00  0.00     0.040 C 
HETATM   10  C1  UNL     1      25.650  18.661  14.800  1.00  0.00     0.010 C 
ENDBRANCH   8   9
ENDBRANCH   5   8
ENDBRANCH   1   2
BRANCH   1  11
HETATM   11  C7  UNL     1      30.145  22.079   9.567  1.00  0.00     0.043 C 
BRANCH  11  12
HETATM   12  C8  UNL     1      31.525  22.421   9.126  1.00  0.00     0.110 C 
BRANCH  12  13
HETATM   13  S1  UNL     1      32.549  21.038   8.904  1.00  0.00     0.016 S 
HETATM   14  O1  UNL     1      34.090  21.280   9.446  1.00  0.00    -0.258 OA
BRANCH  13  15
HETATM   15  C9  UNL     1      32.580  20.479   7.211  1.00  0.00     0.139 C 
BRANCH  15  16
HETATM   16  C10 UNL     1      32.495  21.660   6.303  1.00  0.00     0.285 C 
BRANCH  16  17
HETATM   17  N3  UNL     1      33.690  21.854   5.512  1.00  0.00     0.092 N 
HETATM   18  C11 UNL     1      34.813  22.553   6.104  1.00  0.00     0.302 A 
HETATM   19  C12 UNL     1      34.875  21.070   5.809  1.00  0.00     0.302 A 
ENDBRANCH  16  17
ENDBRANCH  15  16
ENDBRANCH  13  15
ENDBRANCH  12  13
ENDBRANCH  11  12
ENDBRANCH   1  11
TORSDOF 9
ENDMDL
MODEL 5
REMARK VINA RESULT: -6.182570113      4.287      5.745
REMARK  9 active torsions:
REMARK  status: ('A' for Active; 'I' for Inactive)
REMARK    1  A    between atoms: C2_2  and  C3_3 
REMARK    2  A    between atoms: C3_3  and  N1_4 
REMARK    3  A    between atoms: N2_7  and  C6_8 
REMARK    4  A    between atoms: C6_8  and  C7_9 
REMARK    5  A    between atoms: C7_9  and  C8_10 
REMARK    6  A    between atoms: C8_10  and  S1_11 
REMARK    7  A    between atoms: S1_11  and  C9_13 
REMARK    8  A    between atoms: C9_13  and  C10_14 
REMARK    9  A    between atoms: C10_14  and  N3_15 
ROOT
HETATM    1  C6  UNL     1      29.918  23.238  12.188  1.00  0.00     0.273 C 
ENDROOT
BRANCH   1   2
HETATM    2  N2  UNL     1      29.936  22.027  12.983  1.00  0.00     0.091 N 
HETATM    3  C5  UNL     1      29.506  20.854  12.304  1.00  0.00     0.292 C 
HETATM    4  C4  UNL     1      27.984  20.759  12.344  1.00  0.00     0.152 C 
HETATM    5  N1  UNL     1      27.530  20.545  13.662  1.00  0.00    -0.390 N 
HETATM    6  C14 UNL     1      28.472  21.034  14.667  1.00  0.00     0.152 C 
HETATM    7  C13 UNL     1      29.154  22.297  14.177  1.00  0.00     0.292 C 
BRANCH   5   8
HETATM    8  C3  UNL     1      26.191  20.784  14.010  1.00  0.00     0.058 C 
BRANCH   8   9
HETATM    9  C2  UNL     1      25.306  19.603  14.014  1.00  0.00     0.040 C 
HETATM   10  C1  UNL     1      25.679  18.512  14.958  1.00  0.00     0.010 C 
ENDBRANCH   8   9
ENDBRANCH   5   8
ENDBRANCH   1   2
BRANCH   1  11
HETATM   11  C7  UNL     1      30.192  22.864  10.769  1.00  0.00     0.043 C 
BRANCH  11  12
HETATM   12  C8  UNL     1      31.563  23.234  10.324  1.00  0.00     0.110 C 
BRANCH  12  13
HETATM   13  S1  UNL     1      32.230  22.153   9.143  1.00  0.00     0.016 S 
HETATM   14  O1  UNL     1      31.991  20.562   9.514  1.00  0.00    -0.258 OA
BRANCH  13  15
HETATM   15  C9  UNL     1      33.961  22.456   8.843  1.00  0.00     0.139 C 
BRANCH  15  16
HETATM   16  C10 UNL     1      34.699  21.159   8.875  1.00  0.00     0.285 C 
BRANCH  16  17
HETATM   17  N3  UNL     1      35.230  20.777   7.585  1.00  0.00     0.092 N 
HETATM   18  C11 UNL     1      34.333  20.206   6.601  1.00  0.00     0.302 A 
HETATM   19  C12 UNL     1      34.923  21.588   6.420  1.00  0.00     0.302 A 
ENDBRANCH  16  17
ENDBRANCH  15  16
ENDBRANCH  13  15
ENDBRANCH  12  13
ENDBRANCH  11  12
ENDBRANCH   1  11
TORSDOF 9
ENDMDL
