MODEL 1
REMARK VINA RESULT: -7.328614030      0.000      0.000
REMARK  9 active torsions:
REMARK  status: ('A' for Active; 'I' for Inactive)
REMARK    1  A    between atoms: C2_2  and  C3_3 
REMARK    2  A    between atoms: C3_3  and  N1_4 
REMARK    3  A    between atoms: C7_8  and  C8_9 
REMARK    4  A    between atoms: C8_9  and  N2_10 
REMARK    5  A    between atoms: N2_10  and  C9_11 
REMARK    6  A    between atoms: N2_10  and  S1_14 
REMARK    7  A    between atoms: C9_11  and  C10_12 
REMARK    8  A    between atoms: S1_14  and  C11_17 
REMARK    9  A    between atoms: C11_17  and  C12_18 
ROOT
HETATM    1  N2  UNL     1      29.507  21.535  14.929  1.00  0.00    -0.179 NA
ENDROOT
BRANCH   1   2
HETATM    2  C8  UNL     1      28.547  21.473  13.874  1.00  0.00     0.148 C 
BRANCH   2   3
HETATM    3  C7  UNL     1      27.817  20.190  13.688  1.00  0.00     0.237 C 
HETATM    4  N1  UNL     1      28.165  19.729  12.347  1.00  0.00     0.097 N 
HETATM    5  C4  UNL     1      27.097  20.129  11.491  1.00  0.00     0.273 C 
HETATM    6  C5  UNL     1      25.870  20.118  12.349  1.00  0.00     0.032 C 
HETATM    7  C6  UNL     1      26.340  20.352  13.770  1.00  0.00     0.039 C 
BRANCH   4   8
HETATM    8  C3  UNL     1      28.475  18.339  12.291  1.00  0.00     0.299 C 
BRANCH   8   9
HETATM    9  C2  UNL     1      29.905  18.040  12.211  1.00  0.00    -0.007 C 
HETATM   10  C1  UNL     1      30.749  18.725  11.468  1.00  0.00     0.008 C 
ENDBRANCH   8   9
ENDBRANCH   4   8
ENDBRANCH   2   3
ENDBRANCH   1   2
BRANCH   1  11
HETATM   11  C9  UNL     1      29.822  20.252  15.421  1.00  0.00     0.118 C 
BRANCH  11  12
HETATM   12  C10 UNL     1      29.678  20.187  16.923  1.00  0.00     0.271 C 
HETATM   13  O1  UNL     1      30.655  19.887  17.580  1.00  0.00    -0.301 OA
ENDBRANCH  11  12
ENDBRANCH   1  11
BRANCH   1  14
HETATM   14  S1  UNL     1      30.717  22.628  14.588  1.00  0.00     0.240 S 
HETATM   15  O2  UNL     1      30.886  22.757  13.096  1.00  0.00    -0.206 OA
HETATM   16  O3  UNL     1      32.056  22.110  15.117  1.00  0.00    -0.206 OA
BRANCH  14  17
HETATM   17  C11 UNL     1      30.517  24.261  15.204  1.00  0.00     0.167 C 
BRANCH  17  18
HETATM   18  C12 UNL     1      29.285  24.950  14.882  1.00  0.00     0.271 C 
HETATM   19  O4  UNL     1      29.014  25.376  13.752  1.00  0.00    -0.302 OA
ENDBRANCH  17  18
ENDBRANCH  14  17
ENDBRANCH   1  14
TORSDOF 9
ENDMDL
MODEL 2
REMARK VINA RESULT: -7.160497503      1.511      3.227
REMARK  9 active torsions:
REMARK  status: ('A' for Active; 'I' for Inactive)
REMARK    1  A    between atoms: C2_2  and  C3_3 
REMARK    2  A    between atoms: C3_3  and  N1_4 
REMARK    3  A    between atoms: C7_8  and  C8_9 
REMARK    4  A    between atoms: C8_9  and  N2_10 
REMARK    5  A    between atoms: N2_10  and  C9_11 
REMARK    6  A    between atoms: N2_10  and  S1_14 
REMARK    7  A    between atoms: C9_11  and  C10_12 
REMARK    8  A    between atoms: S1_14  and  C11_17 
REMARK    9  A    between atoms: C11_17  and  C12_18 
ROOT
HETATM    1  N2  UNL     1      29.639  22.063  13.619  1.00  0.00    -0.179 NA
ENDROOT
BRANCH   1   2
HETATM    2  C8  UNL     1      28.312  21.894  14.114  1.00  0.00     0.148 C 
BRANCH   2   3
HETATM    3  C7  UNL     1      27.700  20.543  13.985  1.00  0.00     0.237 C 
HETATM    4  N1  UNL     1      28.268  19.967  12.770  1.00  0.00     0.097 N 
HETATM    5  C4  UNL     1      27.313  20.183  11.733  1.00  0.00     0.273 C 
HETATM    6  C5  UNL     1      25.977  20.168  12.410  1.00  0.00     0.032 C 
HETATM    7  C6  UNL     1      26.219  20.594  13.843  1.00  0.00     0.039 C 
BRANCH   4   8
HETATM    8  C3  UNL     1      28.671  18.609  12.925  1.00  0.00     0.299 C 
BRANCH   8   9
HETATM    9  C2  UNL     1      29.449  18.077  11.806  1.00  0.00    -0.007 C 
HETATM   10  C1  UNL     1      30.698  18.417  11.565  1.00  0.00     0.008 C 
ENDBRANCH   8   9
ENDBRANCH   4   8
ENDBRANCH   2   3
ENDBRANCH   1   2
BRANCH   1  11
HETATM   11  C9  UNL     1      29.778  23.268  12.902  1.00  0.00     0.118 C 
BRANCH  11  12
HETATM   12  C10 UNL     1      30.229  23.015  11.483  1.00  0.00     0.271 C 
HETATM   13  O1  UNL     1      30.627  21.903  11.196  1.00  0.00    -0.301 OA
ENDBRANCH  11  12
ENDBRANCH   1  11
BRANCH   1  14
HETATM   14  S1  UNL     1      30.774  21.624  14.758  1.00  0.00     0.240 S 
HETATM   15  O2  UNL     1      31.959  22.551  14.686  1.00  0.00    -0.206 OA
HETATM   16  O3  UNL     1      31.317  20.227  14.446  1.00  0.00    -0.206 OA
BRANCH  14  17
HETATM   17  C11 UNL     1      30.260  21.613  16.437  1.00  0.00     0.167 C 
BRANCH  17  18
HETATM   18  C12 UNL     1      30.000  20.326  17.048  1.00  0.00     0.271 C 
HETATM   19  O4  UNL     1      30.787  19.765  17.821  1.00  0.00    -0.302 OA
ENDBRANCH  17  18
ENDBRANCH  14  17
ENDBRANCH   1  14
TORSDOF 9
ENDMDL
MODEL 3
REMARK VINA RESULT: -7.135864968      1.404      1.714
REMARK  9 active torsions:
REMARK  status: ('A' for Active; 'I' for Inactive)
REMARK    1  A    between atoms: C2_2  and  C3_3 
REMARK    2  A    between atoms: C3_3  and  N1_4 
REMARK    3  A    between atoms: C7_8  and  C8_9 
REMARK    4  A    between atoms: C8_9  and  N2_10 
REMARK    5  A    between atoms: N2_10  and  C9_11 
REMARK    6  A    between atoms: N2_10  and  S1_14 
REMARK    7  A    between atoms: C9_11  and  C10_12 
REMARK    8  A    between atoms: S1_14  and  C11_17 
REMARK    9  A    between atoms: C11_17  and  C12_18 
ROOT
HETATM    1  N2  UNL     1      29.148  21.130  15.407  1.00  0.00    -0.179 NA
ENDROOT
BRANCH   1   2
HETATM    2  C8  UNL     1      28.100  21.282  14.450  1.00  0.00     0.148 C 
BRANCH   2   3
HETATM    3  C7  UNL     1      27.483  20.040  13.910  1.00  0.00     0.237 C 
HETATM    4  N1  UNL     1      28.294  19.665  12.756  1.00  0.00     0.097 N 
HETATM    5  C4  UNL     1      27.615  20.161  11.604  1.00  0.00     0.273 C 
HETATM    6  C5  UNL     1      26.159  20.129  11.953  1.00  0.00     0.032 C 
HETATM    7  C6  UNL     1      26.078  20.244  13.461  1.00  0.00     0.039 C 
BRANCH   4   8
HETATM    8  C3  UNL     1      28.597  18.273  12.707  1.00  0.00     0.299 C 
BRANCH   8   9
HETATM    9  C2  UNL     1      29.579  17.903  11.687  1.00  0.00    -0.007 C 
HETATM   10  C1  UNL     1      30.824  18.329  11.691  1.00  0.00     0.008 C 
ENDBRANCH   8   9
ENDBRANCH   4   8
ENDBRANCH   2   3
ENDBRANCH   1   2
BRANCH   1  11
HETATM   11  C9  UNL     1      29.031  19.921  16.119  1.00  0.00     0.118 C 
BRANCH  11  12
HETATM   12  C10 UNL     1      29.580  20.051  17.521  1.00  0.00     0.271 C 
HETATM   13  O1  UNL     1      30.717  19.679  17.729  1.00  0.00    -0.301 OA
ENDBRANCH  11  12
ENDBRANCH   1  11
BRANCH   1  14
HETATM   14  S1  UNL     1      30.618  21.600  14.778  1.00  0.00     0.240 S 
HETATM   15  O2  UNL     1      30.407  22.369  13.499  1.00  0.00    -0.206 OA
HETATM   16  O3  UNL     1      31.442  20.369  14.393  1.00  0.00    -0.206 OA
BRANCH  14  17
HETATM   17  C11 UNL     1      31.639  22.605  15.794  1.00  0.00     0.167 C 
BRANCH  17  18
HETATM   18  C12 UNL     1      32.716  23.329  15.151  1.00  0.00     0.271 C 
HETATM   19  O4  UNL     1      33.570  23.976  15.770  1.00  0.00    -0.302 OA
ENDBRANCH  17  18
ENDBRANCH  14  17
ENDBRANCH   1  14
TORSDOF 9
ENDMDL
MODEL 4
REMARK VINA RESULT: -7.132984317      1.961      3.262
REMARK  9 active torsions:
REMARK  status: ('A' for Active; 'I' for Inactive)
REMARK    1  A    between atoms: C2_2  and  C3_3 
REMARK    2  A    between atoms: C3_3  and  N1_4 
REMARK    3  A    between atoms: C7_8  and  C8_9 
REMARK    4  A    between atoms: C8_9  and  N2_10 
REMARK    5  A    between atoms: N2_10  and  C9_11 
REMARK    6  A    between atoms: N2_10  and  S1_14 
REMARK    7  A    between atoms: C9_11  and  C10_12 
REMARK    8  A    between atoms: S1_14  and  C11_17 
REMARK    9  A    between atoms: C11_17  and  C12_18 
ROOT
HETATM    1  N2  UNL     1      29.194  20.346  13.152  1.00  0.00    -0.179 NA
ENDROOT
BRANCH   1   2
HETATM    2  C8  UNL     1      27.784  20.549  13.236  1.00  0.00     0.148 C 
BRANCH   2   3
HETATM    3  C7  UNL     1      27.095  20.063  14.462  1.00  0.00     0.237 C 
HETATM    4  N1  UNL     1      27.707  18.776  14.776  1.00  0.00     0.097 N 
HETATM    5  C4  UNL     1      26.843  17.775  14.241  1.00  0.00     0.273 C 
HETATM    6  C5  UNL     1      25.465  18.358  14.309  1.00  0.00     0.032 C 
HETATM    7  C6  UNL     1      25.634  19.862  14.259  1.00  0.00     0.039 C 
BRANCH   4   8
HETATM    8  C3  UNL     1      28.007  18.616  16.160  1.00  0.00     0.299 C 
BRANCH   8   9
HETATM    9  C2  UNL     1      28.839  19.678  16.726  1.00  0.00    -0.007 C 
HETATM   10  C1  UNL     1      29.345  19.632  17.941  1.00  0.00     0.008 C 
ENDBRANCH   8   9
ENDBRANCH   4   8
ENDBRANCH   2   3
ENDBRANCH   1   2
BRANCH   1  11
HETATM   11  C9  UNL     1      29.552  19.669  11.969  1.00  0.00     0.118 C 
BRANCH  11  12
HETATM   12  C10 UNL     1      30.537  18.558  12.246  1.00  0.00     0.271 C 
HETATM   13  O1  UNL     1      30.127  17.414  12.242  1.00  0.00    -0.301 OA
ENDBRANCH  11  12
ENDBRANCH   1  11
BRANCH   1  14
HETATM   14  S1  UNL     1      30.034  21.701  13.637  1.00  0.00     0.240 S 
HETATM   15  O2  UNL     1      30.654  22.375  12.440  1.00  0.00    -0.206 OA
HETATM   16  O3  UNL     1      31.203  21.297  14.540  1.00  0.00    -0.206 OA
BRANCH  14  17
HETATM   17  C11 UNL     1      29.130  22.942  14.487  1.00  0.00     0.167 C 
BRANCH  17  18
HETATM   18  C12 UNL     1      29.595  24.308  14.368  1.00  0.00     0.271 C 
HETATM   19  O4  UNL     1      29.020  25.169  13.690  1.00  0.00    -0.302 OA
ENDBRANCH  17  18
ENDBRANCH  14  17
ENDBRANCH   1  14
TORSDOF 9
ENDMDL
MODEL 5
REMARK VINA RESULT: -7.132328098      1.730      2.842
REMARK  9 active torsions:
REMARK  status: ('A' for Active; 'I' for Inactive)
REMARK    1  A    between atoms: C2_2  and  C3_3 
REMARK    2  A    between atoms: C3_3  and  N1_4 
REMARK    3  A    between atoms: C7_8  and  C8_9 
REMARK    4  A    between atoms: C8_9  and  N2_10 
REMARK    5  A    between atoms: N2_10  and  C9_11 
REMARK    6  A    between atoms: N2_10  and  S1_14 
REMARK    7  A    between atoms: C9_11  and  C10_12 
REMARK    8  A    between atoms: S1_14  and  C11_17 
REMARK    9  A    between atoms: C11_17  and  C12_18 
ROOT
HETATM    1  N2  UNL     1      30.289  22.322  12.581  1.00  0.00    -0.179 NA
ENDROOT
BRANCH   1   2
HETATM    2  C8  UNL     1      28.879  22.101  12.612  1.00  0.00     0.148 C 
BRANCH   2   3
HETATM    3  C7  UNL     1      28.403  20.798  13.150  1.00  0.00     0.237 C 
HETATM    4  N1  UNL     1      28.000  20.013  11.988  1.00  0.00     0.097 N 
HETATM    5  C4  UNL     1      26.586  20.155  11.872  1.00  0.00     0.273 C 
HETATM    6  C5  UNL     1      26.087  20.341  13.271  1.00  0.00     0.032 C 
HETATM    7  C6  UNL     1      27.231  20.945  14.058  1.00  0.00     0.039 C 
BRANCH   4   8
HETATM    8  C3  UNL     1      28.454  18.663  12.033  1.00  0.00     0.299 C 
BRANCH   8   9
HETATM    9  C2  UNL     1      29.838  18.503  12.479  1.00  0.00    -0.007 C 
HETATM   10  C1  UNL     1      30.841  18.270  11.659  1.00  0.00     0.008 C 
ENDBRANCH   8   9
ENDBRANCH   4   8
ENDBRANCH   2   3
ENDBRANCH   1   2
BRANCH   1  11
HETATM   11  C9  UNL     1      30.672  23.079  11.456  1.00  0.00     0.118 C 
BRANCH  11  12
HETATM   12  C10 UNL     1      30.525  22.284  10.180  1.00  0.00     0.271 C 
HETATM   13  O1  UNL     1      31.256  21.328  10.012  1.00  0.00    -0.301 OA
ENDBRANCH  11  12
ENDBRANCH   1  11
BRANCH   1  14
HETATM   14  S1  UNL     1      30.878  22.700  14.093  1.00  0.00     0.240 S 
HETATM   15  O2  UNL     1      32.140  23.513  13.963  1.00  0.00    -0.206 OA
HETATM   16  O3  UNL     1      31.280  21.422  14.833  1.00  0.00    -0.206 OA
BRANCH  14  17
HETATM   17  C11 UNL     1      29.819  23.604  15.162  1.00  0.00     0.167 C 
BRANCH  17  18
HETATM   18  C12 UNL     1      29.529  24.979  14.811  1.00  0.00     0.271 C 
HETATM   19  O4  UNL     1      28.992  25.314  13.748  1.00  0.00    -0.302 OA
ENDBRANCH  17  18
ENDBRANCH  14  17
ENDBRANCH   1  14
TORSDOF 9
ENDMDL
