MODEL 1
REMARK VINA RESULT: -4.617607851      0.000      0.000
REMARK  3 active torsions:
REMARK  status: ('A' for Active; 'I' for Inactive)
REMARK    1  A    between atoms: C2_2  and  C3_3 
REMARK    2  A    between atoms: C3_3  and  N1_4 
REMARK    3  A    between atoms: C3_3  and  N2_8 
ROOT
HETATM    1  C3  UNL     1      27.014  18.994  16.663  1.00  0.00     0.439 C 
ENDROOT
BRANCH   1   2
HETATM    2  C2  UNL     1      28.405  19.427  16.921  1.00  0.00     0.027 C 
HETATM    3  C1  UNL     1      28.855  19.803  18.082  1.00  0.00     0.011 C 
ENDBRANCH   1   2
BRANCH   1   4
HETATM    4  N1  UNL     1      26.895  17.625  17.067  1.00  0.00    -0.044 N 
ATOM      5  H13 UNL     1      27.765  17.104  16.957  1.00  0.00     0.277 HD
ATOM      6  H12 UNL     1      26.799  17.518  18.077  1.00  0.00     0.277 HD
ATOM      7  H11 UNL     1      26.119  17.211  16.551  1.00  0.00     0.277 HD
ENDBRANCH   1   4
BRANCH   1   8
HETATM    8  N2  UNL     1      26.690  19.251  15.307  1.00  0.00     0.123 N 
HETATM    9  C4  UNL     1      27.094  20.554  14.834  1.00  0.00     0.277 C 
HETATM   10  C5  UNL     1      25.718  20.686  14.204  1.00  0.00     0.060 C 
HETATM   11  C6  UNL     1      25.328  19.392  14.917  1.00  0.00     0.277 C 
ENDBRANCH   1   8
TORSDOF 3
ENDMDL
MODEL 2
REMARK VINA RESULT: -4.605745033      0.825      1.321
REMARK  3 active torsions:
REMARK  status: ('A' for Active; 'I' for Inactive)
REMARK    1  A    between atoms: C2_2  and  C3_3 
REMARK    2  A    between atoms: C3_3  and  N1_4 
REMARK    3  A    between atoms: C3_3  and  N2_8 
ROOT
HETATM    1  C3  UNL     1      26.902  18.850  16.126  1.00  0.00     0.439 C 
ENDROOT
BRANCH   1   2
HETATM    2  C2  UNL     1      28.212  19.467  16.431  1.00  0.00     0.027 C 
HETATM    3  C1  UNL     1      28.670  19.666  17.632  1.00  0.00     0.011 C 
ENDBRANCH   1   2
BRANCH   1   4
HETATM    4  N1  UNL     1      27.145  17.608  15.454  1.00  0.00    -0.044 N 
ATOM      5  H13 UNL     1      28.099  17.529  15.103  1.00  0.00     0.277 HD
ATOM      6  H12 UNL     1      27.168  16.812  16.092  1.00  0.00     0.277 HD
ATOM      7  H11 UNL     1      26.445  17.505  14.720  1.00  0.00     0.277 HD
ENDBRANCH   1   4
BRANCH   1   8
HETATM    8  N2  UNL     1      26.108  19.777  15.406  1.00  0.00     0.123 N 
HETATM    9  C4  UNL     1      25.343  19.195  14.327  1.00  0.00     0.277 C 
HETATM   10  C5  UNL     1      25.803  20.351  13.456  1.00  0.00     0.060 C 
HETATM   11  C6  UNL     1      26.732  20.769  14.597  1.00  0.00     0.277 C 
ENDBRANCH   1   8
TORSDOF 3
ENDMDL
MODEL 3
REMARK VINA RESULT: -4.545416316      1.215      3.438
REMARK  3 active torsions:
REMARK  status: ('A' for Active; 'I' for Inactive)
REMARK    1  A    between atoms: C2_2  and  C3_3 
REMARK    2  A    between atoms: C3_3  and  N1_4 
REMARK    3  A    between atoms: C3_3  and  N2_8 
ROOT
HETATM    1  C3  UNL     1      26.762  18.964  14.435  1.00  0.00     0.439 C 
ENDROOT
BRANCH   1   2
HETATM    2  C2  UNL     1      26.452  20.410  14.402  1.00  0.00     0.027 C 
HETATM    3  C1  UNL     1      25.347  20.915  13.936  1.00  0.00     0.011 C 
ENDBRANCH   1   2
BRANCH   1   4
HETATM    4  N1  UNL     1      25.531  18.252  14.612  1.00  0.00    -0.044 N 
ATOM      5  H13 UNL     1      25.501  17.725  15.484  1.00  0.00     0.277 HD
ATOM      6  H12 UNL     1      24.741  18.870  14.799  1.00  0.00     0.277 HD
ATOM      7  H11 UNL     1      25.386  17.664  13.791  1.00  0.00     0.277 HD
ENDBRANCH   1   4
BRANCH   1   8
HETATM    8  N2  UNL     1      27.744  18.721  15.427  1.00  0.00     0.123 N 
HETATM    9  C4  UNL     1      27.221  18.200  16.669  1.00  0.00     0.277 C 
HETATM   10  C5  UNL     1      28.096  19.208  17.393  1.00  0.00     0.060 C 
HETATM   11  C6  UNL     1      28.430  19.814  16.029  1.00  0.00     0.277 C 
ENDBRANCH   1   8
TORSDOF 3
ENDMDL
MODEL 4
REMARK VINA RESULT: -4.472303895      1.358      3.507
REMARK  3 active torsions:
REMARK  status: ('A' for Active; 'I' for Inactive)
REMARK    1  A    between atoms: C2_2  and  C3_3 
REMARK    2  A    between atoms: C3_3  and  N1_4 
REMARK    3  A    between atoms: C3_3  and  N2_8 
ROOT
HETATM    1  C3  UNL     1      27.610  18.812  16.482  1.00  0.00     0.439 C 
ENDROOT
BRANCH   1   2
HETATM    2  C2  UNL     1      26.614  19.392  15.554  1.00  0.00     0.027 C 
HETATM    3  C1  UNL     1      25.381  18.990  15.453  1.00  0.00     0.011 C 
ENDBRANCH   1   2
BRANCH   1   4
HETATM    4  N1  UNL     1      26.948  17.822  17.278  1.00  0.00    -0.044 N 
ATOM      5  H13 UNL     1      26.853  18.100  18.255  1.00  0.00     0.277 HD
ATOM      6  H12 UNL     1      25.954  17.742  17.063  1.00  0.00     0.277 HD
ATOM      7  H11 UNL     1      27.449  16.941  17.165  1.00  0.00     0.277 HD
ENDBRANCH   1   4
BRANCH   1   8
HETATM    8  N2  UNL     1      28.228  19.857  17.214  1.00  0.00     0.123 N 
HETATM    9  C4  UNL     1      29.415  20.400  16.593  1.00  0.00     0.277 C 
HETATM   10  C5  UNL     1      30.088  20.325  17.952  1.00  0.00     0.060 C 
HETATM   11  C6  UNL     1      28.857  19.574  18.460  1.00  0.00     0.277 C 
ENDBRANCH   1   8
TORSDOF 3
ENDMDL
MODEL 5
REMARK VINA RESULT: -4.426070860      1.235      3.348
REMARK  3 active torsions:
REMARK  status: ('A' for Active; 'I' for Inactive)
REMARK    1  A    between atoms: C2_2  and  C3_3 
REMARK    2  A    between atoms: C3_3  and  N1_4 
REMARK    3  A    between atoms: C3_3  and  N2_8 
ROOT
HETATM    1  C3  UNL     1      26.903  19.060  14.523  1.00  0.00     0.439 C 
ENDROOT
BRANCH   1   2
HETATM    2  C2  UNL     1      26.421  20.159  13.657  1.00  0.00     0.027 C 
HETATM    3  C1  UNL     1      25.361  20.873  13.896  1.00  0.00     0.011 C 
ENDBRANCH   1   2
BRANCH   1   4
HETATM    4  N1  UNL     1      25.963  17.982  14.431  1.00  0.00    -0.044 N 
ATOM      5  H13 UNL     1      25.301  17.968  15.207  1.00  0.00     0.277 HD
ATOM      6  H12 UNL     1      25.288  18.110  13.678  1.00  0.00     0.277 HD
ATOM      7  H11 UNL     1      26.490  17.112  14.347  1.00  0.00     0.277 HD
ENDBRANCH   1   4
BRANCH   1   8
HETATM    8  N2  UNL     1      27.118  19.559  15.832  1.00  0.00     0.123 N 
HETATM    9  C4  UNL     1      28.314  20.357  15.977  1.00  0.00     0.277 C 
HETATM   10  C5  UNL     1      28.610  19.575  17.245  1.00  0.00     0.060 C 
HETATM   11  C6  UNL     1      27.436  18.661  16.890  1.00  0.00     0.277 C 
ENDBRANCH   1   8
TORSDOF 3
ENDMDL
