MODEL 1
REMARK VINA RESULT: -4.827047820      0.000      0.000
REMARK  3 active torsions:
REMARK  status: ('A' for Active; 'I' for Inactive)
REMARK    1  A    between atoms: C2_2  and  C3_3 
REMARK    2  A    between atoms: C3_3  and  N1_4 
REMARK    3  A    between atoms: C3_3  and  C4_8 
ROOT
HETATM    1  C3  UNL     1      26.844  18.656  16.359  1.00  0.00     0.255 C 
ENDROOT
BRANCH   1   2
HETATM    2  C2  UNL     1      26.313  19.682  15.398  1.00  0.00     0.002 C 
HETATM    3  C1  UNL     1      25.188  19.465  14.741  1.00  0.00     0.009 C 
ENDBRANCH   1   2
BRANCH   1   4
HETATM    4  N1  UNL     1      27.192  17.442  15.688  1.00  0.00    -0.066 N 
ATOM      5  H13 UNL     1      26.515  16.703  15.879  1.00  0.00     0.275 HD
ATOM      6  H12 UNL     1      27.059  17.521  14.680  1.00  0.00     0.275 HD
ATOM      7  H11 UNL     1      28.141  17.147  15.918  1.00  0.00     0.275 HD
ENDBRANCH   1   4
BRANCH   1   8
HETATM    8  C4  UNL     1      27.991  19.245  17.112  1.00  0.00     0.044 A 
HETATM    9  C5  UNL     1      28.956  20.118  16.907  1.00  0.00     0.044 A 
HETATM   10  C6  UNL     1      29.444  19.904  18.258  1.00  0.00     0.090 A 
HETATM   11  N2  UNL     1      28.492  19.057  18.424  1.00  0.00    -0.367 N 
ATOM     12  H2  UNL     1      28.205  18.471  19.207  1.00  0.00     0.165 HD
ENDBRANCH   1   8
TORSDOF 3
ENDMDL
MODEL 2
REMARK VINA RESULT: -4.778655440      1.102      3.631
REMARK  3 active torsions:
REMARK  status: ('A' for Active; 'I' for Inactive)
REMARK    1  A    between atoms: C2_2  and  C3_3 
REMARK    2  A    between atoms: C3_3  and  N1_4 
REMARK    3  A    between atoms: C3_3  and  C4_8 
ROOT
HETATM    1  C3  UNL     1      27.844  18.756  16.562  1.00  0.00     0.255 C 
ENDROOT
BRANCH   1   2
HETATM    2  C2  UNL     1      28.643  19.948  17.008  1.00  0.00     0.002 C 
HETATM    3  C1  UNL     1      29.121  20.011  18.237  1.00  0.00     0.009 C 
ENDBRANCH   1   2
BRANCH   1   4
HETATM    4  N1  UNL     1      27.418  17.965  17.674  1.00  0.00    -0.066 N 
ATOM      5  H13 UNL     1      27.461  16.968  17.462  1.00  0.00     0.275 HD
ATOM      6  H12 UNL     1      28.098  17.994  18.434  1.00  0.00     0.275 HD
ATOM      7  H11 UNL     1      26.489  18.240  17.994  1.00  0.00     0.275 HD
ENDBRANCH   1   4
BRANCH   1   8
HETATM    8  C4  UNL     1      26.703  19.224  15.720  1.00  0.00     0.044 A 
HETATM    9  C5  UNL     1      26.432  20.215  14.895  1.00  0.00     0.044 A 
HETATM   10  C6  UNL     1      25.101  19.679  14.680  1.00  0.00     0.090 A 
HETATM   11  N2  UNL     1      25.397  18.726  15.488  1.00  0.00    -0.367 N 
ATOM     12  H2  UNL     1      24.884  17.915  15.834  1.00  0.00     0.165 HD
ENDBRANCH   1   8
TORSDOF 3
ENDMDL
MODEL 3
REMARK VINA RESULT: -4.692735778      2.320      2.533
REMARK  3 active torsions:
REMARK  status: ('A' for Active; 'I' for Inactive)
REMARK    1  A    between atoms: C2_2  and  C3_3 
REMARK    2  A    between atoms: C3_3  and  N1_4 
REMARK    3  A    between atoms: C3_3  and  C4_8 
ROOT
HETATM    1  C3  UNL     1      28.512  20.744  15.062  1.00  0.00     0.255 C 
ENDROOT
BRANCH   1   2
HETATM    2  C2  UNL     1      27.063  20.349  15.118  1.00  0.00     0.002 C 
HETATM    3  C1  UNL     1      26.198  20.850  14.256  1.00  0.00     0.009 C 
ENDBRANCH   1   2
BRANCH   1   4
HETATM    4  N1  UNL     1      28.667  22.106  14.653  1.00  0.00    -0.066 N 
ATOM      5  H13 UNL     1      28.835  22.718  15.451  1.00  0.00     0.275 HD
ATOM      6  H12 UNL     1      29.547  22.248  14.156  1.00  0.00     0.275 HD
ATOM      7  H11 UNL     1      27.871  22.423  14.099  1.00  0.00     0.275 HD
ENDBRANCH   1   4
BRANCH   1   8
HETATM    8  C4  UNL     1      29.143  20.467  16.386  1.00  0.00     0.044 A 
HETATM    9  C5  UNL     1      28.847  19.830  17.501  1.00  0.00     0.044 A 
HETATM   10  C6  UNL     1      30.131  20.209  18.064  1.00  0.00     0.090 A 
HETATM   11  N2  UNL     1      30.387  20.821  16.964  1.00  0.00    -0.367 N 
ATOM     12  H2  UNL     1      31.187  21.360  16.632  1.00  0.00     0.165 HD
ENDBRANCH   1   8
TORSDOF 3
ENDMDL
MODEL 4
REMARK VINA RESULT: -4.676916931      3.077      3.850
REMARK  3 active torsions:
REMARK  status: ('A' for Active; 'I' for Inactive)
REMARK    1  A    between atoms: C2_2  and  C3_3 
REMARK    2  A    between atoms: C3_3  and  N1_4 
REMARK    3  A    between atoms: C3_3  and  C4_8 
ROOT
HETATM    1  C3  UNL     1      26.881  18.977  14.553  1.00  0.00     0.255 C 
ENDROOT
BRANCH   1   2
HETATM    2  C2  UNL     1      26.578  20.446  14.467  1.00  0.00     0.002 C 
HETATM    3  C1  UNL     1      25.433  20.865  13.961  1.00  0.00     0.009 C 
ENDBRANCH   1   2
BRANCH   1   4
HETATM    4  N1  UNL     1      25.686  18.193  14.517  1.00  0.00    -0.066 N 
ATOM      5  H13 UNL     1      25.645  17.539  15.299  1.00  0.00     0.275 HD
ATOM      6  H12 UNL     1      24.864  18.755  14.738  1.00  0.00     0.275 HD
ATOM      7  H11 UNL     1      25.581  17.713  13.623  1.00  0.00     0.275 HD
ENDBRANCH   1   4
BRANCH   1   8
HETATM    8  C4  UNL     1      27.839  18.614  13.466  1.00  0.00     0.044 A 
HETATM    9  C5  UNL     1      28.335  19.156  12.373  1.00  0.00     0.044 A 
HETATM   10  C6  UNL     1      29.122  17.961  12.131  1.00  0.00     0.090 A 
HETATM   11  N2  UNL     1      28.619  17.461  13.202  1.00  0.00    -0.367 N 
ATOM     12  H2  UNL     1      28.737  16.569  13.681  1.00  0.00     0.165 HD
ENDBRANCH   1   8
TORSDOF 3
ENDMDL
MODEL 5
REMARK VINA RESULT: -4.658993689      0.982      1.038
REMARK  3 active torsions:
REMARK  status: ('A' for Active; 'I' for Inactive)
REMARK    1  A    between atoms: C2_2  and  C3_3 
REMARK    2  A    between atoms: C3_3  and  N1_4 
REMARK    3  A    between atoms: C3_3  and  C4_8 
ROOT
HETATM    1  C3  UNL     1      26.492  19.167  15.453  1.00  0.00     0.255 C 
ENDROOT
BRANCH   1   2
HETATM    2  C2  UNL     1      26.518  20.297  14.463  1.00  0.00     0.002 C 
HETATM    3  C1  UNL     1      25.393  20.818  14.011  1.00  0.00     0.009 C 
ENDBRANCH   1   2
BRANCH   1   4
HETATM    4  N1  UNL     1      26.598  17.898  14.801  1.00  0.00    -0.066 N 
ATOM      5  H13 UNL     1      26.846  18.003  13.818  1.00  0.00     0.275 HD
ATOM      6  H12 UNL     1      27.420  17.384  15.119  1.00  0.00     0.275 HD
ATOM      7  H11 UNL     1      25.747  17.348  14.915  1.00  0.00     0.275 HD
ENDBRANCH   1   4
BRANCH   1   8
HETATM    8  C4  UNL     1      27.567  19.383  16.466  1.00  0.00     0.044 A 
HETATM    9  C5  UNL     1      28.603  20.177  16.644  1.00  0.00     0.044 A 
HETATM   10  C6  UNL     1      28.897  19.518  17.904  1.00  0.00     0.090 A 
HETATM   11  N2  UNL     1      27.880  18.761  17.700  1.00  0.00    -0.367 N 
ATOM     12  H2  UNL     1      27.457  17.998  18.228  1.00  0.00     0.165 HD
ENDBRANCH   1   8
TORSDOF 3
ENDMDL
