MODEL 1
REMARK VINA RESULT: -5.209114695      0.000      0.000
REMARK  1 active torsions:
REMARK  status: ('A' for Active; 'I' for Inactive)
REMARK    1  A    between atoms: N2_4  and  C1_6 
ROOT
HETATM    1  C1  UNL     1      30.096  23.827  14.974  1.00  0.00     0.192 C 
HETATM    2  C2  UNL     1      31.178  23.548  15.978  1.00  0.00     0.056 C 
HETATM    3  C3  UNL     1      32.475  23.976  15.344  1.00  0.00     0.125 C 
HETATM    4  N3  UNL     1      32.209  23.900  13.936  1.00  0.00    -0.359 N 
ATOM      5  H3  UNL     1      32.924  23.897  13.208  1.00  0.00     0.162 HD
HETATM    6  C4  UNL     1      30.816  23.830  13.699  1.00  0.00     0.241 C 
HETATM    7  O1  UNL     1      30.294  23.780  12.564  1.00  0.00    -0.271 OA
ENDROOT
BRANCH   1   8
HETATM    8  N2  UNL     1      29.396  25.028  15.246  1.00  0.00    -0.329 N 
HETATM    9  N1  UNL     1      29.215  25.964  14.487  1.00  0.00    -0.349 N 
ATOM     10  H12 UNL     1      29.618  25.854  13.557  1.00  0.00     0.176 HD
ATOM     11  H11 UNL     1      28.711  26.830  14.683  1.00  0.00     0.176 HD
ATOM     12  H2  UNL     1      29.000  25.120  16.181  1.00  0.00     0.180 HD
ENDBRANCH   1   8
TORSDOF 1
ENDMDL
MODEL 2
REMARK VINA RESULT: -5.200935724      1.764      1.888
REMARK  1 active torsions:
REMARK  status: ('A' for Active; 'I' for Inactive)
REMARK    1  A    between atoms: N2_4  and  C1_6 
ROOT
HETATM    1  C1  UNL     1      30.061  24.042  14.963  1.00  0.00     0.192 C 
HETATM    2  C2  UNL     1      31.246  24.255  15.861  1.00  0.00     0.056 C 
HETATM    3  C3  UNL     1      32.161  23.077  15.656  1.00  0.00     0.125 C 
HETATM    4  N3  UNL     1      31.285  22.041  15.186  1.00  0.00    -0.359 N 
ATOM      5  H3  UNL     1      31.517  21.048  15.164  1.00  0.00     0.162 HD
HETATM    6  C4  UNL     1      30.053  22.591  14.759  1.00  0.00     0.241 C 
HETATM    7  O1  UNL     1      29.110  21.925  14.280  1.00  0.00    -0.271 OA
ENDROOT
BRANCH   1   8
HETATM    8  N2  UNL     1      30.142  24.793  13.765  1.00  0.00    -0.329 N 
HETATM    9  N1  UNL     1      30.355  24.371  12.642  1.00  0.00    -0.349 N 
ATOM     10  H12 UNL     1      30.487  23.362  12.575  1.00  0.00     0.176 HD
ATOM     11  H11 UNL     1      30.413  24.913  11.779  1.00  0.00     0.176 HD
ATOM     12  H2  UNL     1      30.007  25.800  13.852  1.00  0.00     0.180 HD
ENDBRANCH   1   8
TORSDOF 1
ENDMDL
MODEL 3
REMARK VINA RESULT: -4.961468895      6.576      7.238
REMARK  1 active torsions:
REMARK  status: ('A' for Active; 'I' for Inactive)
REMARK    1  A    between atoms: N2_4  and  C1_6 
ROOT
HETATM    1  C1  UNL     1      27.676  19.284  15.378  1.00  0.00     0.192 C 
HETATM    2  C2  UNL     1      26.512  20.188  15.090  1.00  0.00     0.056 C 
HETATM    3  C3  UNL     1      25.317  19.298  14.873  1.00  0.00     0.125 C 
HETATM    4  N3  UNL     1      25.891  18.048  14.463  1.00  0.00    -0.359 N 
ATOM      5  H3  UNL     1      25.376  17.291  14.014  1.00  0.00     0.162 HD
HETATM    6  C4  UNL     1      27.272  18.015  14.768  1.00  0.00     0.241 C 
HETATM    7  O1  UNL     1      28.022  17.040  14.543  1.00  0.00    -0.271 OA
ENDROOT
BRANCH   1   8
HETATM    8  N2  UNL     1      27.966  19.193  16.762  1.00  0.00    -0.329 N 
HETATM    9  N1  UNL     1      27.646  18.299  17.526  1.00  0.00    -0.349 N 
ATOM     10  H12 UNL     1      27.110  17.539  17.106  1.00  0.00     0.176 HD
ATOM     11  H11 UNL     1      27.855  18.233  18.522  1.00  0.00     0.176 HD
ATOM     12  H2  UNL     1      28.503  19.961  17.164  1.00  0.00     0.180 HD
ENDBRANCH   1   8
TORSDOF 1
ENDMDL
MODEL 4
REMARK VINA RESULT: -4.905689928      1.859      2.399
REMARK  1 active torsions:
REMARK  status: ('A' for Active; 'I' for Inactive)
REMARK    1  A    between atoms: N2_4  and  C1_6 
ROOT
HETATM    1  C1  UNL     1      30.727  23.898  14.324  1.00  0.00     0.192 C 
HETATM    2  C2  UNL     1      31.818  23.586  15.310  1.00  0.00     0.056 C 
HETATM    3  C3  UNL     1      31.359  24.113  16.643  1.00  0.00     0.125 C 
HETATM    4  N3  UNL     1      30.423  25.146  16.299  1.00  0.00    -0.359 N 
ATOM      5  H3  UNL     1      30.090  25.867  16.940  1.00  0.00     0.162 HD
HETATM    6  C4  UNL     1      30.028  25.024  14.946  1.00  0.00     0.241 C 
HETATM    7  O1  UNL     1      29.202  25.775  14.381  1.00  0.00    -0.271 OA
ENDROOT
BRANCH   1   8
HETATM    8  N2  UNL     1      29.900  22.780  14.057  1.00  0.00    -0.329 N 
HETATM    9  N1  UNL     1      28.858  22.483  14.615  1.00  0.00    -0.349 N 
ATOM     10  H12 UNL     1      28.564  23.120  15.355  1.00  0.00     0.176 HD
ATOM     11  H11 UNL     1      28.262  21.677  14.422  1.00  0.00     0.176 HD
ATOM     12  H2  UNL     1      30.210  22.154  13.314  1.00  0.00     0.180 HD
ENDBRANCH   1   8
TORSDOF 1
ENDMDL
MODEL 5
REMARK VINA RESULT: -4.883193746      2.716      3.269
REMARK  1 active torsions:
REMARK  status: ('A' for Active; 'I' for Inactive)
REMARK    1  A    between atoms: N2_4  and  C1_6 
ROOT
HETATM    1  C1  UNL     1      31.633  22.858  16.144  1.00  0.00     0.192 C 
HETATM    2  C2  UNL     1      31.275  24.307  15.970  1.00  0.00     0.056 C 
HETATM    3  C3  UNL     1      29.963  24.343  15.233  1.00  0.00     0.125 C 
HETATM    4  N3  UNL     1      29.930  23.090  14.532  1.00  0.00    -0.359 N 
ATOM      5  H3  UNL     1      29.303  22.873  13.758  1.00  0.00     0.162 HD
HETATM    6  C4  UNL     1      30.892  22.200  15.065  1.00  0.00     0.241 C 
HETATM    7  O1  UNL     1      31.070  21.029  14.664  1.00  0.00    -0.271 OA
ENDROOT
BRANCH   1   8
HETATM    8  N2  UNL     1      31.324  22.372  17.437  1.00  0.00    -0.329 N 
HETATM    9  N1  UNL     1      30.833  21.293  17.723  1.00  0.00    -0.349 N 
ATOM     10  H12 UNL     1      30.629  20.686  16.929  1.00  0.00     0.176 HD
ATOM     11  H11 UNL     1      30.611  20.943  18.655  1.00  0.00     0.176 HD
ATOM     12  H2  UNL     1      31.536  22.993  18.218  1.00  0.00     0.180 HD
ENDBRANCH   1   8
TORSDOF 1
ENDMDL
