MODEL 1
REMARK VINA RESULT: -5.505818082      0.000      0.000
REMARK  1 active torsions:
REMARK  status: ('A' for Active; 'I' for Inactive)
REMARK    1  A    between atoms: N2_4  and  N3_6 
ROOT
HETATM    1  N3  UNL     1      30.511  23.209  11.424  1.00  0.00    -0.272 N 
ATOM      2  H3  UNL     1      29.561  22.846  11.504  1.00  0.00     0.190 HD
HETATM    3  C1  UNL     1      31.177  22.972  10.331  1.00  0.00     0.116 A 
HETATM    4  C2  UNL     1      30.709  22.231   9.184  1.00  0.00     0.047 A 
HETATM    5  C3  UNL     1      31.640  22.187   8.260  1.00  0.00    -0.004 A 
HETATM    6  C4  UNL     1      32.819  22.912   8.740  1.00  0.00     0.148 A 
HETATM    7  N4  UNL     1      32.490  23.393  10.045  1.00  0.00    -0.372 N 
ATOM      8  H4  UNL     1      33.095  23.940  10.657  1.00  0.00     0.161 HD
ENDROOT
BRANCH   1   9
HETATM    9  N2  UNL     1      31.031  23.928  12.476  1.00  0.00    -0.248 N 
HETATM   10  N1  UNL     1      30.332  24.611  13.291  1.00  0.00    -0.331 N 
ATOM     11  H12 UNL     1      29.323  24.616  13.141  1.00  0.00     0.178 HD
ATOM     12  H11 UNL     1      30.717  25.144  14.072  1.00  0.00     0.178 HD
ATOM     13  H2  UNL     1      32.041  23.911  12.611  1.00  0.00     0.207 HD
ENDBRANCH   1   9
TORSDOF 1
ENDMDL
MODEL 2
REMARK VINA RESULT: -5.448953453      7.875      8.582
REMARK  1 active torsions:
REMARK  status: ('A' for Active; 'I' for Inactive)
REMARK    1  A    between atoms: N2_4  and  N3_6 
ROOT
HETATM    1  N3  UNL     1      25.753  18.269  16.297  1.00  0.00    -0.272 N 
ATOM      2  H3  UNL     1      24.848  17.808  16.200  1.00  0.00     0.190 HD
HETATM    3  C1  UNL     1      26.017  19.287  15.530  1.00  0.00     0.116 A 
HETATM    4  C2  UNL     1      25.149  19.855  14.526  1.00  0.00     0.047 A 
HETATM    5  C3  UNL     1      25.735  20.873  13.942  1.00  0.00    -0.004 A 
HETATM    6  C4  UNL     1      27.064  21.058  14.530  1.00  0.00     0.148 A 
HETATM    7  N4  UNL     1      27.206  20.043  15.526  1.00  0.00    -0.372 N 
ATOM      8  H4  UNL     1      28.019  19.894  16.123  1.00  0.00     0.161 HD
ENDROOT
BRANCH   1   9
HETATM    9  N2  UNL     1      26.638  17.788  17.234  1.00  0.00    -0.248 N 
HETATM   10  N1  UNL     1      26.489  16.693  17.865  1.00  0.00    -0.331 N 
ATOM     11  H12 UNL     1      25.653  16.149  17.650  1.00  0.00     0.178 HD
ATOM     12  H11 UNL     1      27.145  16.336  18.559  1.00  0.00     0.178 HD
ATOM     13  H2  UNL     1      27.468  18.345  17.435  1.00  0.00     0.207 HD
ENDBRANCH   1   9
TORSDOF 1
ENDMDL
MODEL 3
REMARK VINA RESULT: -5.357414367      7.290      8.195
REMARK  1 active torsions:
REMARK  status: ('A' for Active; 'I' for Inactive)
REMARK    1  A    between atoms: N2_4  and  N3_6 
ROOT
HETATM    1  N3  UNL     1      28.139  19.706  16.625  1.00  0.00    -0.272 N 
ATOM      2  H3  UNL     1      28.970  20.292  16.536  1.00  0.00     0.190 HD
HETATM    3  C1  UNL     1      27.165  19.876  15.778  1.00  0.00     0.116 A 
HETATM    4  C2  UNL     1      27.126  20.830  14.695  1.00  0.00     0.047 A 
HETATM    5  C3  UNL     1      25.993  20.729  14.041  1.00  0.00    -0.004 A 
HETATM    6  C4  UNL     1      25.181  19.677  14.659  1.00  0.00     0.148 A 
HETATM    7  N4  UNL     1      25.951  19.163  15.747  1.00  0.00    -0.372 N 
ATOM      8  H4  UNL     1      25.673  18.417  16.384  1.00  0.00     0.161 HD
ENDROOT
BRANCH   1   9
HETATM    9  N2  UNL     1      28.099  18.771  17.633  1.00  0.00    -0.248 N 
HETATM   10  N1  UNL     1      28.518  18.976  18.818  1.00  0.00    -0.331 N 
ATOM     11  H12 UNL     1      28.906  19.899  19.015  1.00  0.00     0.178 HD
ATOM     12  H11 UNL     1      28.488  18.283  19.566  1.00  0.00     0.178 HD
ATOM     13  H2  UNL     1      27.708  17.854  17.418  1.00  0.00     0.207 HD
ENDBRANCH   1   9
TORSDOF 1
ENDMDL
MODEL 4
REMARK VINA RESULT: -5.343735877      1.695      2.287
REMARK  1 active torsions:
REMARK  status: ('A' for Active; 'I' for Inactive)
REMARK    1  A    between atoms: N2_4  and  N3_6 
ROOT
HETATM    1  N3  UNL     1      30.543  24.302  12.233  1.00  0.00    -0.272 N 
ATOM      2  H3  UNL     1      30.812  25.130  11.701  1.00  0.00     0.190 HD
HETATM    3  C1  UNL     1      30.531  23.151  11.627  1.00  0.00     0.116 A 
HETATM    4  C2  UNL     1      30.867  22.904  10.244  1.00  0.00     0.047 A 
HETATM    5  C3  UNL     1      30.748  21.627   9.968  1.00  0.00    -0.004 A 
HETATM    6  C4  UNL     1      30.315  20.919  11.175  1.00  0.00     0.148 A 
HETATM    7  N4  UNL     1      30.190  21.909  12.198  1.00  0.00    -0.372 N 
ATOM      8  H4  UNL     1      29.907  21.746  13.164  1.00  0.00     0.161 HD
ENDROOT
BRANCH   1   9
HETATM    9  N2  UNL     1      30.209  24.453  13.559  1.00  0.00    -0.248 N 
HETATM   10  N1  UNL     1      29.628  25.479  14.040  1.00  0.00    -0.331 N 
ATOM     11  H12 UNL     1      29.403  26.229  13.386  1.00  0.00     0.178 HD
ATOM     12  H11 UNL     1      29.380  25.591  15.023  1.00  0.00     0.178 HD
ATOM     13  H2  UNL     1      30.441  23.693  14.198  1.00  0.00     0.207 HD
ENDBRANCH   1   9
TORSDOF 1
ENDMDL
MODEL 5
REMARK VINA RESULT: -5.277801648      5.625      6.414
REMARK  1 active torsions:
REMARK  status: ('A' for Active; 'I' for Inactive)
REMARK    1  A    between atoms: N2_4  and  N3_6 
ROOT
HETATM    1  N3  UNL     1      31.880  24.186  17.087  1.00  0.00    -0.272 N 
ATOM      2  H3  UNL     1      31.888  25.172  16.823  1.00  0.00     0.190 HD
HETATM    3  C1  UNL     1      31.199  23.353  16.356  1.00  0.00     0.116 A 
HETATM    4  C2  UNL     1      30.430  23.674  15.177  1.00  0.00     0.047 A 
HETATM    5  C3  UNL     1      29.872  22.592  14.689  1.00  0.00    -0.004 A 
HETATM    6  C4  UNL     1      30.240  21.449  15.528  1.00  0.00     0.148 A 
HETATM    7  N4  UNL     1      31.075  21.966  16.566  1.00  0.00    -0.372 N 
ATOM      8  H4  UNL     1      31.503  21.429  17.320  1.00  0.00     0.161 HD
ENDROOT
BRANCH   1   9
HETATM    9  N2  UNL     1      32.589  23.799  18.200  1.00  0.00    -0.248 N 
HETATM   10  N1  UNL     1      33.819  24.066  18.395  1.00  0.00    -0.331 N 
ATOM     11  H12 UNL     1      34.293  24.603  17.670  1.00  0.00     0.178 HD
ATOM     12  H11 UNL     1      34.345  23.778  19.221  1.00  0.00     0.178 HD
ATOM     13  H2  UNL     1      32.098  23.262  18.915  1.00  0.00     0.207 HD
ENDBRANCH   1   9
TORSDOF 1
ENDMDL
