MODEL 1
REMARK VINA RESULT: -7.818513556      0.000      0.000
REMARK  8 active torsions:
REMARK  status: ('A' for Active; 'I' for Inactive)
REMARK    1  A    between atoms: C2_2  and  C3_3 
REMARK    2  A    between atoms: C3_3  and  N1_4 
REMARK    3  A    between atoms: N1_4  and  C5_6 
REMARK    4  A    between atoms: C5_6  and  C6_7 
REMARK    5  A    between atoms: C6_7  and  N2_8 
REMARK    6  A    between atoms: N3_12  and  C10_13 
REMARK    7  A    between atoms: C10_13  and  C11_14 
REMARK    8  A    between atoms: C16_20  and  N4_21 
ROOT
HETATM    1  N2  UNL     1      29.078  21.455  12.620  1.00  0.00     0.098 N 
HETATM    2  C7  UNL     1      28.657  20.802  11.431  1.00  0.00     0.285 C 
HETATM    3  C8  UNL     1      27.364  20.048  11.790  1.00  0.00     0.079 C 
HETATM    4  C9  UNL     1      27.567  18.601  11.879  1.00  0.00     0.071 C 
HETATM    5  N3  UNL     1      27.649  17.924  13.073  1.00  0.00    -0.371 N 
HETATM    6  C13 UNL     1      28.119  18.473  14.268  1.00  0.00     0.065 C 
HETATM    7  C14 UNL     1      28.972  19.700  14.149  1.00  0.00     0.082 C 
HETATM    8  C15 UNL     1      28.284  20.940  13.722  1.00  0.00     0.252 C 
HETATM    9  C16 UNL     1      26.964  20.771  13.024  1.00  0.00     0.143 C 
ENDROOT
BRANCH   1  10
HETATM   10  C6  UNL     1      29.313  22.838  12.607  1.00  0.00     0.303 C 
BRANCH  10  11
HETATM   11  C5  UNL     1      30.389  23.137  13.652  1.00  0.00     0.302 C 
BRANCH  11  12
HETATM   12  N1  UNL     1      29.800  23.580  14.898  1.00  0.00     0.085 N 
HETATM   13  C4  UNL     1      29.033  24.801  14.712  1.00  0.00     0.309 C 
BRANCH  12  14
HETATM   14  C3  UNL     1      30.752  23.690  15.961  1.00  0.00     0.271 C 
BRANCH  14  15
HETATM   15  C2  UNL     1      31.909  22.760  15.665  1.00  0.00     0.026 C 
HETATM   16  C1  UNL     1      33.230  23.486  15.835  1.00  0.00     0.007 C 
ENDBRANCH  14  15
ENDBRANCH  12  14
ENDBRANCH  11  12
ENDBRANCH  10  11
ENDBRANCH   1  10
BRANCH   9  17
HETATM   17  N4  UNL     1      25.896  20.288  13.760  1.00  0.00    -0.335 N 
HETATM   18  N5  UNL     1      24.738  20.112  13.371  1.00  0.00    -0.349 N 
ATOM     19  H52 UNL     1      24.566  20.355  12.395  1.00  0.00     0.176 HD
ATOM     20  H51 UNL     1      23.950  19.757  13.914  1.00  0.00     0.176 HD
ATOM     21  H4  UNL     1      26.088  20.052  14.734  1.00  0.00     0.180 HD
ENDBRANCH   9  17
BRANCH   5  22
HETATM   22  C10 UNL     1      28.204  16.600  12.886  1.00  0.00     0.161 C 
BRANCH  22  23
HETATM   23  C11 UNL     1      29.161  16.437  11.771  1.00  0.00     0.163 A 
HETATM   24  C12 UNL     1      28.863  15.325  10.801  1.00  0.00     0.201 A 
HETATM   25  O1  UNL     1      29.694  15.030  11.874  1.00  0.00    -0.380 OA
ENDBRANCH  22  23
ENDBRANCH   5  22
TORSDOF 8
ENDMDL
MODEL 2
REMARK VINA RESULT: -7.646348990      1.509      2.396
REMARK  8 active torsions:
REMARK  status: ('A' for Active; 'I' for Inactive)
REMARK    1  A    between atoms: C2_2  and  C3_3 
REMARK    2  A    between atoms: C3_3  and  N1_4 
REMARK    3  A    between atoms: N1_4  and  C5_6 
REMARK    4  A    between atoms: C5_6  and  C6_7 
REMARK    5  A    between atoms: C6_7  and  N2_8 
REMARK    6  A    between atoms: N3_12  and  C10_13 
REMARK    7  A    between atoms: C10_13  and  C11_14 
REMARK    8  A    between atoms: C16_20  and  N4_21 
ROOT
HETATM    1  N2  UNL     1      29.060  20.211  14.467  1.00  0.00     0.098 N 
HETATM    2  C7  UNL     1      29.900  19.863  13.377  1.00  0.00     0.285 C 
HETATM    3  C8  UNL     1      28.969  19.367  12.257  1.00  0.00     0.079 C 
HETATM    4  C9  UNL     1      29.032  17.915  12.079  1.00  0.00     0.071 C 
HETATM    5  N3  UNL     1      28.055  17.057  12.528  1.00  0.00    -0.371 N 
HETATM    6  C13 UNL     1      27.236  17.294  13.635  1.00  0.00     0.065 C 
HETATM    7  C14 UNL     1      27.729  18.306  14.626  1.00  0.00     0.082 C 
HETATM    8  C15 UNL     1      27.723  19.719  14.181  1.00  0.00     0.252 C 
HETATM    9  C16 UNL     1      27.679  19.956  12.698  1.00  0.00     0.143 C 
ENDROOT
BRANCH   1  10
HETATM   10  C6  UNL     1      29.149  21.493  15.031  1.00  0.00     0.303 C 
BRANCH  10  11
HETATM   11  C5  UNL     1      30.369  22.186  14.425  1.00  0.00     0.302 C 
BRANCH  11  12
HETATM   12  N1  UNL     1      30.003  23.440  13.802  1.00  0.00     0.085 N 
HETATM   13  C4  UNL     1      29.202  24.258  14.697  1.00  0.00     0.309 C 
BRANCH  12  14
HETATM   14  C3  UNL     1      29.389  23.271  12.520  1.00  0.00     0.271 C 
BRANCH  14  15
HETATM   15  C2  UNL     1      30.478  23.053  11.491  1.00  0.00     0.026 C 
HETATM   16  C1  UNL     1      29.939  22.277  10.305  1.00  0.00     0.007 C 
ENDBRANCH  14  15
ENDBRANCH  12  14
ENDBRANCH  11  12
ENDBRANCH  10  11
ENDBRANCH   1  10
BRANCH   9  17
HETATM   17  N4  UNL     1      26.524  19.612  12.018  1.00  0.00    -0.335 N 
HETATM   18  N5  UNL     1      25.375  19.999  12.253  1.00  0.00    -0.349 N 
ATOM     19  H52 UNL     1      25.284  20.642  13.039  1.00  0.00     0.176 HD
ATOM     20  H51 UNL     1      24.523  19.744  11.752  1.00  0.00     0.176 HD
ATOM     21  H4  UNL     1      26.634  18.967  11.236  1.00  0.00     0.180 HD
ENDBRANCH   9  17
BRANCH   5  22
HETATM   22  C10 UNL     1      28.530  15.690  12.549  1.00  0.00     0.161 C 
BRANCH  22  23
HETATM   23  C11 UNL     1      29.358  15.261  11.403  1.00  0.00     0.163 A 
HETATM   24  C12 UNL     1      28.953  13.970  10.742  1.00  0.00     0.201 A 
HETATM   25  O1  UNL     1      29.897  13.898  11.758  1.00  0.00    -0.380 OA
ENDBRANCH  22  23
ENDBRANCH   5  22
TORSDOF 8
ENDMDL
MODEL 3
REMARK VINA RESULT: -7.638659769      2.983      4.336
REMARK  8 active torsions:
REMARK  status: ('A' for Active; 'I' for Inactive)
REMARK    1  A    between atoms: C2_2  and  C3_3 
REMARK    2  A    between atoms: C3_3  and  N1_4 
REMARK    3  A    between atoms: N1_4  and  C5_6 
REMARK    4  A    between atoms: C5_6  and  C6_7 
REMARK    5  A    between atoms: C6_7  and  N2_8 
REMARK    6  A    between atoms: N3_12  and  C10_13 
REMARK    7  A    between atoms: C10_13  and  C11_14 
REMARK    8  A    between atoms: C16_20  and  N4_21 
ROOT
HETATM    1  N2  UNL     1      29.259  20.760  10.398  1.00  0.00     0.098 N 
HETATM    2  C7  UNL     1      27.959  20.427  10.863  1.00  0.00     0.285 C 
HETATM    3  C8  UNL     1      28.142  19.861  12.282  1.00  0.00     0.079 C 
HETATM    4  C9  UNL     1      27.953  18.411  12.335  1.00  0.00     0.071 C 
HETATM    5  N3  UNL     1      28.994  17.518  12.432  1.00  0.00    -0.371 N 
HETATM    6  C13 UNL     1      30.281  17.741  11.936  1.00  0.00     0.065 C 
HETATM    7  C14 UNL     1      30.417  18.797  10.881  1.00  0.00     0.082 C 
HETATM    8  C15 UNL     1      30.226  20.197  11.324  1.00  0.00     0.252 C 
HETATM    9  C16 UNL     1      29.486  20.399  12.616  1.00  0.00     0.143 C 
ENDROOT
BRANCH   1  10
HETATM   10  C6  UNL     1      29.518  22.056   9.930  1.00  0.00     0.303 C 
BRANCH  10  11
HETATM   11  C5  UNL     1      31.011  22.329  10.115  1.00  0.00     0.302 C 
BRANCH  11  12
HETATM   12  N1  UNL     1      31.681  22.467   8.839  1.00  0.00     0.085 N 
HETATM   13  C4  UNL     1      31.042  21.651   7.819  1.00  0.00     0.309 C 
BRANCH  12  14
HETATM   14  C3  UNL     1      33.091  22.236   8.918  1.00  0.00     0.271 C 
BRANCH  14  15
HETATM   15  C2  UNL     1      33.324  20.749   9.090  1.00  0.00     0.026 C 
HETATM   16  C1  UNL     1      34.382  20.263   8.118  1.00  0.00     0.007 C 
ENDBRANCH  14  15
ENDBRANCH  12  14
ENDBRANCH  11  12
ENDBRANCH  10  11
ENDBRANCH   1  10
BRANCH   9  17
HETATM   17  N4  UNL     1      30.096  19.985  13.787  1.00  0.00    -0.335 N 
HETATM   18  N5  UNL     1      30.742  20.677  14.579  1.00  0.00    -0.349 N 
ATOM     19  H52 UNL     1      30.826  21.662  14.328  1.00  0.00     0.176 HD
ATOM     20  H51 UNL     1      31.192  20.371  15.443  1.00  0.00     0.176 HD
ATOM     21  H4  UNL     1      30.001  18.996  14.022  1.00  0.00     0.180 HD
ENDBRANCH   9  17
BRANCH   5  22
HETATM   22  C10 UNL     1      28.564  16.175  12.102  1.00  0.00     0.161 C 
BRANCH  22  23
HETATM   23  C11 UNL     1      29.461  15.389  11.230  1.00  0.00     0.163 A 
HETATM   24  C12 UNL     1      28.960  14.030  10.821  1.00  0.00     0.201 A 
HETATM   25  O1  UNL     1      29.745  14.104  11.965  1.00  0.00    -0.380 OA
ENDBRANCH  22  23
ENDBRANCH   5  22
TORSDOF 8
ENDMDL
MODEL 4
REMARK VINA RESULT: -7.484900412      0.989      1.380
REMARK  8 active torsions:
REMARK  status: ('A' for Active; 'I' for Inactive)
REMARK    1  A    between atoms: C2_2  and  C3_3 
REMARK    2  A    between atoms: C3_3  and  N1_4 
REMARK    3  A    between atoms: N1_4  and  C5_6 
REMARK    4  A    between atoms: C5_6  and  C6_7 
REMARK    5  A    between atoms: C6_7  and  N2_8 
REMARK    6  A    between atoms: N3_12  and  C10_13 
REMARK    7  A    between atoms: C10_13  and  C11_14 
REMARK    8  A    between atoms: C16_20  and  N4_21 
ROOT
HETATM    1  N2  UNL     1      28.840  21.285  13.668  1.00  0.00     0.098 N 
HETATM    2  C7  UNL     1      29.160  20.875  12.347  1.00  0.00     0.285 C 
HETATM    3  C8  UNL     1      27.952  20.065  11.845  1.00  0.00     0.079 C 
HETATM    4  C9  UNL     1      28.227  18.628  11.788  1.00  0.00     0.071 C 
HETATM    5  N3  UNL     1      27.753  17.732  12.717  1.00  0.00    -0.371 N 
HETATM    6  C13 UNL     1      27.483  18.040  14.053  1.00  0.00     0.065 C 
HETATM    7  C14 UNL     1      28.144  19.268  14.602  1.00  0.00     0.082 C 
HETATM    8  C15 UNL     1      27.650  20.566  14.088  1.00  0.00     0.252 C 
HETATM    9  C16 UNL     1      26.902  20.533  12.785  1.00  0.00     0.143 C 
ENDROOT
BRANCH   1  10
HETATM   10  C6  UNL     1      28.905  22.645  14.009  1.00  0.00     0.303 C 
BRANCH  10  11
HETATM   11  C5  UNL     1      30.311  23.143  13.675  1.00  0.00     0.302 C 
BRANCH  11  12
HETATM   12  N1  UNL     1      30.942  23.745  14.832  1.00  0.00     0.085 N 
HETATM   13  C4  UNL     1      32.368  23.465  14.857  1.00  0.00     0.309 C 
BRANCH  12  14
HETATM   14  C3  UNL     1      30.297  23.404  16.063  1.00  0.00     0.271 C 
BRANCH  14  15
HETATM   15  C2  UNL     1      31.130  22.352  16.765  1.00  0.00     0.026 C 
HETATM   16  C1  UNL     1      30.320  21.086  16.973  1.00  0.00     0.007 C 
ENDBRANCH  14  15
ENDBRANCH  12  14
ENDBRANCH  11  12
ENDBRANCH  10  11
ENDBRANCH   1  10
BRANCH   9  17
HETATM   17  N4  UNL     1      25.664  19.916  12.761  1.00  0.00    -0.335 N 
HETATM   18  N5  UNL     1      24.678  20.191  13.451  1.00  0.00    -0.349 N 
ATOM     19  H52 UNL     1      24.807  20.962  14.107  1.00  0.00     0.176 HD
ATOM     20  H51 UNL     1      23.765  19.736  13.434  1.00  0.00     0.176 HD
ATOM     21  H4  UNL     1      25.554  19.147  12.099  1.00  0.00     0.180 HD
ENDBRANCH   9  17
BRANCH   5  22
HETATM   22  C10 UNL     1      28.458  16.470  12.634  1.00  0.00     0.161 C 
BRANCH  22  23
HETATM   23  C11 UNL     1      29.180  16.199  11.373  1.00  0.00     0.163 A 
HETATM   24  C12 UNL     1      28.799  14.934  10.652  1.00  0.00     0.201 A 
HETATM   25  O1  UNL     1      29.854  14.862  11.552  1.00  0.00    -0.380 OA
ENDBRANCH  22  23
ENDBRANCH   5  22
TORSDOF 8
ENDMDL
MODEL 5
REMARK VINA RESULT: -7.408790800      3.216      5.294
REMARK  8 active torsions:
REMARK  status: ('A' for Active; 'I' for Inactive)
REMARK    1  A    between atoms: C2_2  and  C3_3 
REMARK    2  A    between atoms: C3_3  and  N1_4 
REMARK    3  A    between atoms: N1_4  and  C5_6 
REMARK    4  A    between atoms: C5_6  and  C6_7 
REMARK    5  A    between atoms: C6_7  and  N2_8 
REMARK    6  A    between atoms: N3_12  and  C10_13 
REMARK    7  A    between atoms: C10_13  and  C11_14 
REMARK    8  A    between atoms: C16_20  and  N4_21 
ROOT
HETATM    1  N2  UNL     1      28.119  18.012  12.379  1.00  0.00     0.098 N 
HETATM    2  C7  UNL     1      29.327  17.537  11.805  1.00  0.00     0.285 C 
HETATM    3  C8  UNL     1      30.376  18.638  12.040  1.00  0.00     0.079 C 
HETATM    4  C9  UNL     1      30.705  19.369  10.814  1.00  0.00     0.071 C 
HETATM    5  N3  UNL     1      30.234  20.632  10.541  1.00  0.00    -0.371 N 
HETATM    6  C13 UNL     1      29.023  21.148  11.009  1.00  0.00     0.065 C 
HETATM    7  C14 UNL     1      27.999  20.147  11.455  1.00  0.00     0.082 C 
HETATM    8  C15 UNL     1      28.297  19.416  12.708  1.00  0.00     0.252 C 
HETATM    9  C16 UNL     1      29.734  19.392  13.147  1.00  0.00     0.143 C 
ENDROOT
BRANCH   1  10
HETATM   10  C6  UNL     1      27.443  17.228  13.326  1.00  0.00     0.303 C 
BRANCH  10  11
HETATM   11  C5  UNL     1      26.798  18.172  14.340  1.00  0.00     0.302 C 
BRANCH  11  12
HETATM   12  N1  UNL     1      27.404  18.029  15.648  1.00  0.00     0.085 N 
HETATM   13  C4  UNL     1      26.513  17.342  16.567  1.00  0.00     0.309 C 
BRANCH  12  14
HETATM   14  C3  UNL     1      27.889  19.266  16.179  1.00  0.00     0.271 C 
BRANCH  14  15
HETATM   15  C2  UNL     1      28.324  19.034  17.611  1.00  0.00     0.026 C 
HETATM   16  C1  UNL     1      29.603  19.795  17.907  1.00  0.00     0.007 C 
ENDBRANCH  14  15
ENDBRANCH  12  14
ENDBRANCH  11  12
ENDBRANCH  10  11
ENDBRANCH   1  10
BRANCH   9  17
HETATM   17  N4  UNL     1      30.308  20.580  13.562  1.00  0.00    -0.335 N 
HETATM   18  N5  UNL     1      30.794  20.829  14.670  1.00  0.00    -0.349 N 
ATOM     19  H52 UNL     1      30.761  20.062  15.341  1.00  0.00     0.176 HD
ATOM     20  H51 UNL     1      31.217  21.706  14.976  1.00  0.00     0.176 HD
ATOM     21  H4  UNL     1      30.331  21.336  12.877  1.00  0.00     0.180 HD
ENDBRANCH   9  17
BRANCH   5  22
HETATM   22  C10 UNL     1      30.404  20.962   9.142  1.00  0.00     0.161 C 
BRANCH  22  23
HETATM   23  C11 UNL     1      31.794  21.051   8.649  1.00  0.00     0.163 A 
HETATM   24  C12 UNL     1      31.959  21.447   7.206  1.00  0.00     0.201 A 
HETATM   25  O1  UNL     1      31.894  20.089   7.491  1.00  0.00    -0.380 OA
ENDBRANCH  22  23
ENDBRANCH   5  22
TORSDOF 8
ENDMDL
