MODEL 1
REMARK VINA RESULT: -6.782184808      0.000      0.000
REMARK  8 active torsions:
REMARK  status: ('A' for Active; 'I' for Inactive)
REMARK    1  A    between atoms: C2_2  and  C3_3 
REMARK    2  A    between atoms: C3_3  and  N1_4 
REMARK    3  A    between atoms: N1_4  and  C4_5 
REMARK    4  A    between atoms: N1_4  and  C7_8 
REMARK    5  A    between atoms: C4_5  and  C5_6 
REMARK    6  A    between atoms: C7_8  and  C8_9 
REMARK    7  A    between atoms: C8_9  and  S1_10 
REMARK    8  A    between atoms: S1_10  and  N2_13 
ROOT
HETATM    1  S1  UNL     1      26.806  18.514  14.707  1.00  0.00     0.234 S 
HETATM    2  O1  UNL     1      27.428  17.458  15.562  1.00  0.00    -0.205 OA
HETATM    3  O2  UNL     1      25.304  18.423  14.933  1.00  0.00    -0.205 OA
ENDROOT
BRANCH   1   4
HETATM    4  C8  UNL     1      27.081  18.070  13.006  1.00  0.00     0.194 C 
BRANCH   4   5
HETATM    5  C7  UNL     1      28.103  16.962  13.017  1.00  0.00     0.290 C 
BRANCH   5   6
HETATM    6  N1  UNL     1      29.268  17.209  12.193  1.00  0.00     0.096 N 
BRANCH   6   7
HETATM    7  C3  UNL     1      29.100  18.555  11.616  1.00  0.00     0.299 C 
BRANCH   7   8
HETATM    8  C2  UNL     1      30.380  19.065  11.119  1.00  0.00    -0.007 C 
HETATM    9  C1  UNL     1      30.386  20.216  10.407  1.00  0.00     0.008 C 
ENDBRANCH   7   8
ENDBRANCH   6   7
BRANCH   6  10
HETATM   10  C4  UNL     1      29.228  16.251  11.092  1.00  0.00     0.299 C 
BRANCH  10  11
HETATM   11  C5  UNL     1      29.308  14.858  11.582  1.00  0.00    -0.007 C 
HETATM   12  C6  UNL     1      29.309  13.869  10.708  1.00  0.00     0.008 C 
ENDBRANCH  10  11
ENDBRANCH   6  10
ENDBRANCH   5   6
ENDBRANCH   4   5
ENDBRANCH   1   4
BRANCH   1  13
HETATM   13  N2  UNL     1      27.300  20.080  15.087  1.00  0.00    -0.284 N 
HETATM   14  C9  UNL     1      27.095  21.069  14.103  1.00  0.00     0.119 C 
HETATM   15  C10 UNL     1      28.283  21.531  13.354  1.00  0.00     0.103 C 
HETATM   16  N3  UNL     1      29.539  21.351  13.960  1.00  0.00    -0.391 N 
HETATM   17  C11 UNL     1      30.240  22.525  14.348  1.00  0.00     0.148 C 
HETATM   18  C12 UNL     1      29.710  20.219  14.788  1.00  0.00     0.142 C 
HETATM   19  C13 UNL     1      28.557  20.080  15.748  1.00  0.00     0.160 C 
ENDBRANCH   1  13
TORSDOF 8
ENDMDL
MODEL 2
REMARK VINA RESULT: -6.630158129      2.840      4.148
REMARK  8 active torsions:
REMARK  status: ('A' for Active; 'I' for Inactive)
REMARK    1  A    between atoms: C2_2  and  C3_3 
REMARK    2  A    between atoms: C3_3  and  N1_4 
REMARK    3  A    between atoms: N1_4  and  C4_5 
REMARK    4  A    between atoms: N1_4  and  C7_8 
REMARK    5  A    between atoms: C4_5  and  C5_6 
REMARK    6  A    between atoms: C7_8  and  C8_9 
REMARK    7  A    between atoms: C8_9  and  S1_10 
REMARK    8  A    between atoms: S1_10  and  N2_13 
ROOT
HETATM    1  S1  UNL     1      28.968  22.212  13.272  1.00  0.00     0.234 S 
HETATM    2  O1  UNL     1      27.772  22.339  14.160  1.00  0.00    -0.205 OA
HETATM    3  O2  UNL     1      29.085  23.527  12.514  1.00  0.00    -0.205 OA
ENDROOT
BRANCH   1   4
HETATM    4  C8  UNL     1      28.613  20.965  12.054  1.00  0.00     0.194 C 
BRANCH   4   5
HETATM    5  C7  UNL     1      27.296  20.348  12.451  1.00  0.00     0.290 C 
BRANCH   5   6
HETATM    6  N1  UNL     1      27.343  18.917  12.666  1.00  0.00     0.096 N 
BRANCH   6   7
HETATM    7  C3  UNL     1      27.546  18.712  14.112  1.00  0.00     0.299 C 
BRANCH   7   8
HETATM    8  C2  UNL     1      26.375  19.164  14.865  1.00  0.00    -0.007 C 
HETATM    9  C1  UNL     1      25.271  18.382  14.877  1.00  0.00     0.008 C 
ENDBRANCH   7   8
ENDBRANCH   6   7
BRANCH   6  10
HETATM   10  C4  UNL     1      28.531  18.416  11.980  1.00  0.00     0.299 C 
BRANCH  10  11
HETATM   11  C5  UNL     1      28.747  16.978  12.249  1.00  0.00    -0.007 C 
HETATM   12  C6  UNL     1      29.140  16.193  11.263  1.00  0.00     0.008 C 
ENDBRANCH  10  11
ENDBRANCH   6  10
ENDBRANCH   5   6
ENDBRANCH   4   5
ENDBRANCH   1   4
BRANCH   1  13
HETATM   13  N2  UNL     1      30.412  21.956  14.103  1.00  0.00    -0.284 N 
HETATM   14  C9  UNL     1      30.386  21.013  15.150  1.00  0.00     0.119 C 
HETATM   15  C10 UNL     1      30.394  21.538  16.531  1.00  0.00     0.103 C 
HETATM   16  N3  UNL     1      30.906  22.833  16.727  1.00  0.00    -0.391 N 
HETATM   17  C11 UNL     1      32.117  22.942  17.463  1.00  0.00     0.148 C 
HETATM   18  C12 UNL     1      30.718  23.774  15.689  1.00  0.00     0.142 C 
HETATM   19  C13 UNL     1      31.088  23.180  14.356  1.00  0.00     0.160 C 
ENDBRANCH   1  13
TORSDOF 8
ENDMDL
MODEL 3
REMARK VINA RESULT: -6.625852215      0.547      2.707
REMARK  8 active torsions:
REMARK  status: ('A' for Active; 'I' for Inactive)
REMARK    1  A    between atoms: C2_2  and  C3_3 
REMARK    2  A    between atoms: C3_3  and  N1_4 
REMARK    3  A    between atoms: N1_4  and  C4_5 
REMARK    4  A    between atoms: N1_4  and  C7_8 
REMARK    5  A    between atoms: C4_5  and  C5_6 
REMARK    6  A    between atoms: C7_8  and  C8_9 
REMARK    7  A    between atoms: C8_9  and  S1_10 
REMARK    8  A    between atoms: S1_10  and  N2_13 
ROOT
HETATM    1  S1  UNL     1      26.670  18.268  14.603  1.00  0.00     0.234 S 
HETATM    2  O1  UNL     1      27.377  17.210  15.388  1.00  0.00    -0.205 OA
HETATM    3  O2  UNL     1      25.180  18.030  14.801  1.00  0.00    -0.205 OA
ENDROOT
BRANCH   1   4
HETATM    4  C8  UNL     1      26.996  17.978  12.878  1.00  0.00     0.194 C 
BRANCH   4   5
HETATM    5  C7  UNL     1      28.367  17.354  12.806  1.00  0.00     0.290 C 
BRANCH   5   6
HETATM    6  N1  UNL     1      29.096  17.644  11.589  1.00  0.00     0.096 N 
BRANCH   6   7
HETATM    7  C3  UNL     1      29.810  16.410  11.217  1.00  0.00     0.299 C 
BRANCH   7   8
HETATM    8  C2  UNL     1      28.861  15.355  10.857  1.00  0.00    -0.007 C 
HETATM    9  C1  UNL     1      29.282  14.068  10.880  1.00  0.00     0.008 C 
ENDBRANCH   7   8
ENDBRANCH   6   7
BRANCH   6  10
HETATM   10  C4  UNL     1      30.101  18.651  11.919  1.00  0.00     0.299 C 
BRANCH  10  11
HETATM   11  C5  UNL     1      30.519  19.413  10.722  1.00  0.00    -0.007 C 
HETATM   12  C6  UNL     1      29.996  20.605  10.505  1.00  0.00     0.008 C 
ENDBRANCH  10  11
ENDBRANCH   6  10
ENDBRANCH   5   6
ENDBRANCH   4   5
ENDBRANCH   1   4
BRANCH   1  13
HETATM   13  N2  UNL     1      27.021  19.839  15.103  1.00  0.00    -0.284 N 
HETATM   14  C9  UNL     1      26.890  20.859  14.139  1.00  0.00     0.119 C 
HETATM   15  C10 UNL     1      28.138  21.414  13.572  1.00  0.00     0.103 C 
HETATM   16  N3  UNL     1      29.312  21.272  14.332  1.00  0.00    -0.391 N 
HETATM   17  C11 UNL     1      29.889  22.462  14.853  1.00  0.00     0.148 C 
HETATM   18  C12 UNL     1      29.437  20.115  15.132  1.00  0.00     0.142 C 
HETATM   19  C13 UNL     1      28.179  19.875  15.925  1.00  0.00     0.160 C 
ENDBRANCH   1  13
TORSDOF 8
ENDMDL
MODEL 4
REMARK VINA RESULT: -6.611452586      1.412      2.018
REMARK  8 active torsions:
REMARK  status: ('A' for Active; 'I' for Inactive)
REMARK    1  A    between atoms: C2_2  and  C3_3 
REMARK    2  A    between atoms: C3_3  and  N1_4 
REMARK    3  A    between atoms: N1_4  and  C4_5 
REMARK    4  A    between atoms: N1_4  and  C7_8 
REMARK    5  A    between atoms: C4_5  and  C5_6 
REMARK    6  A    between atoms: C7_8  and  C8_9 
REMARK    7  A    between atoms: C8_9  and  S1_10 
REMARK    8  A    between atoms: S1_10  and  N2_13 
ROOT
HETATM    1  S1  UNL     1      27.366  20.131  14.129  1.00  0.00     0.234 S 
HETATM    2  O1  UNL     1      27.174  19.720  15.554  1.00  0.00    -0.205 OA
HETATM    3  O2  UNL     1      26.348  21.229  13.856  1.00  0.00    -0.205 OA
ENDROOT
BRANCH   1   4
HETATM    4  C8  UNL     1      26.904  18.757  13.098  1.00  0.00     0.194 C 
BRANCH   4   5
HETATM    5  C7  UNL     1      27.999  18.611  12.071  1.00  0.00     0.290 C 
BRANCH   5   6
HETATM    6  N1  UNL     1      29.093  17.753  12.476  1.00  0.00     0.096 N 
BRANCH   6   7
HETATM    7  C3  UNL     1      30.196  17.997  11.530  1.00  0.00     0.299 C 
BRANCH   7   8
HETATM    8  C2  UNL     1      30.169  19.381  11.054  1.00  0.00    -0.007 C 
HETATM    9  C1  UNL     1      31.012  19.740  10.058  1.00  0.00     0.008 C 
ENDBRANCH   7   8
ENDBRANCH   6   7
BRANCH   6  10
HETATM   10  C4  UNL     1      28.651  16.374  12.290  1.00  0.00     0.299 C 
BRANCH  10  11
HETATM   11  C5  UNL     1      29.164  15.806  11.025  1.00  0.00    -0.007 C 
HETATM   12  C6  UNL     1      29.197  14.495  10.876  1.00  0.00     0.008 C 
ENDBRANCH  10  11
ENDBRANCH   6  10
ENDBRANCH   5   6
ENDBRANCH   4   5
ENDBRANCH   1   4
BRANCH   1  13
HETATM   13  N2  UNL     1      28.900  20.743  13.795  1.00  0.00    -0.284 N 
HETATM   14  C9  UNL     1      29.928  20.416  14.702  1.00  0.00     0.119 C 
HETATM   15  C10 UNL     1      30.374  21.478  15.628  1.00  0.00     0.103 C 
HETATM   16  N3  UNL     1      30.132  22.810  15.248  1.00  0.00    -0.391 N 
HETATM   17  C11 UNL     1      31.267  23.612  14.952  1.00  0.00     0.148 C 
HETATM   18  C12 UNL     1      28.967  23.072  14.492  1.00  0.00     0.142 C 
HETATM   19  C13 UNL     1      28.836  22.093  13.356  1.00  0.00     0.160 C 
ENDBRANCH   1  13
TORSDOF 8
ENDMDL
MODEL 5
REMARK VINA RESULT: -6.555172507      4.284      6.106
REMARK  8 active torsions:
REMARK  status: ('A' for Active; 'I' for Inactive)
REMARK    1  A    between atoms: C2_2  and  C3_3 
REMARK    2  A    between atoms: C3_3  and  N1_4 
REMARK    3  A    between atoms: N1_4  and  C4_5 
REMARK    4  A    between atoms: N1_4  and  C7_8 
REMARK    5  A    between atoms: C4_5  and  C5_6 
REMARK    6  A    between atoms: C7_8  and  C8_9 
REMARK    7  A    between atoms: C8_9  and  S1_10 
REMARK    8  A    between atoms: S1_10  and  N2_13 
ROOT
HETATM    1  S1  UNL     1      30.515  21.691   9.767  1.00  0.00     0.234 S 
HETATM    2  O1  UNL     1      30.676  22.605  10.940  1.00  0.00    -0.205 OA
HETATM    3  O2  UNL     1      29.099  21.898   9.251  1.00  0.00    -0.205 OA
ENDROOT
BRANCH   1   4
HETATM    4  C8  UNL     1      30.588  20.017  10.365  1.00  0.00     0.194 C 
BRANCH   4   5
HETATM    5  C7  UNL     1      29.718  19.969  11.597  1.00  0.00     0.290 C 
BRANCH   5   6
HETATM    6  N1  UNL     1      28.661  18.981  11.549  1.00  0.00     0.096 N 
BRANCH   6   7
HETATM    7  C3  UNL     1      27.395  19.703  11.763  1.00  0.00     0.299 C 
BRANCH   7   8
HETATM    8  C2  UNL     1      27.520  20.642  12.880  1.00  0.00    -0.007 C 
HETATM    9  C1  UNL     1      26.507  20.724  13.774  1.00  0.00     0.008 C 
ENDBRANCH   7   8
ENDBRANCH   6   7
BRANCH   6  10
HETATM   10  C4  UNL     1      28.856  18.086  12.686  1.00  0.00     0.299 C 
BRANCH  10  11
HETATM   11  C5  UNL     1      28.598  16.677  12.318  1.00  0.00    -0.007 C 
HETATM   12  C6  UNL     1      29.160  16.185  11.230  1.00  0.00     0.008 C 
ENDBRANCH  10  11
ENDBRANCH   6  10
ENDBRANCH   5   6
ENDBRANCH   4   5
ENDBRANCH   1   4
BRANCH   1  13
HETATM   13  N2  UNL     1      31.585  22.006   8.504  1.00  0.00    -0.284 N 
HETATM   14  C9  UNL     1      31.525  21.146   7.388  1.00  0.00     0.119 C 
HETATM   15  C10 UNL     1      32.608  20.150   7.246  1.00  0.00     0.103 C 
HETATM   16  N3  UNL     1      33.825  20.422   7.894  1.00  0.00    -0.391 N 
HETATM   17  C11 UNL     1      34.952  20.677   7.067  1.00  0.00     0.148 C 
HETATM   18  C12 UNL     1      33.772  21.134   9.114  1.00  0.00     0.142 C 
HETATM   19  C13 UNL     1      32.878  22.339   8.990  1.00  0.00     0.160 C 
ENDBRANCH   1  13
TORSDOF 8
ENDMDL
