MODEL 1
REMARK VINA RESULT: -7.438237238      0.000      0.000
REMARK  4 active torsions:
REMARK  status: ('A' for Active; 'I' for Inactive)
REMARK    1  A    between atoms: N1_1  and  C1_4 
REMARK    2  A    between atoms: C2_7  and  N3_8 
REMARK    3  A    between atoms: N3_8  and  C3_10 
REMARK    4  A    between atoms: C3_10  and  C4_11 
ROOT
HETATM    1  C1  UNL     1     -12.925  -3.999 129.814  1.00  0.00     0.699 A 
HETATM    2  N2  UNL     1     -13.427  -4.252 128.596  1.00  0.00    -0.152 N 
ATOM      3  H2  UNL     1     -13.634  -3.562 127.875  1.00  0.00     0.188 HD
HETATM    4  C2  UNL     1     -13.607  -5.587 128.497  1.00  0.00     0.262 A 
HETATM    5  O1  UNL     1     -13.225  -6.094 129.622  1.00  0.00    -0.185 OA
HETATM    6  N8  UNL     1     -12.813  -5.187 130.432  1.00  0.00    -0.088 N 
ATOM      7  H8  UNL     1     -12.462  -5.342 131.377  1.00  0.00     0.214 HD
ENDROOT
BRANCH   4   8
HETATM    8  N3  UNL     1     -14.117  -6.312 127.395  1.00  0.00    -0.331 N 
ATOM      9  H3  UNL     1     -14.953  -6.882 127.531  1.00  0.00     0.168 HD
BRANCH   8  10
HETATM   10  C3  UNL     1     -13.523  -6.282 126.121  1.00  0.00     0.105 C 
BRANCH  10  11
HETATM   11  C4  UNL     1     -12.334  -7.094 125.845  1.00  0.00     0.245 C 
HETATM   12  N4  UNL     1     -11.124  -6.785 126.574  1.00  0.00    -0.100 NA
HETATM   13  N5  UNL     1     -10.334  -7.851 126.021  1.00  0.00    -0.019 NA
HETATM   14  N6  UNL     1     -10.527  -7.630 124.659  1.00  0.00    -0.019 NA
HETATM   15  N7  UNL     1     -11.809  -7.040 124.496  1.00  0.00    -0.100 NA
ENDBRANCH  10  11
ENDBRANCH   8  10
ENDBRANCH   4   8
BRANCH   1  16
HETATM   16  N1  UNL     1     -12.594  -2.888 130.361  1.00  0.00    -0.233 N 
ATOM     17  H12 UNL     1     -12.893  -1.979 130.007  1.00  0.00     0.174 HD
ATOM     18  H11 UNL     1     -12.019  -2.701 131.182  1.00  0.00     0.174 HD
ENDBRANCH   1  16
TORSDOF 4
ENDMDL
MODEL 2
REMARK VINA RESULT: -7.437306928      3.055      4.245
REMARK  4 active torsions:
REMARK  status: ('A' for Active; 'I' for Inactive)
REMARK    1  A    between atoms: N1_1  and  C1_4 
REMARK    2  A    between atoms: C2_7  and  N3_8 
REMARK    3  A    between atoms: N3_8  and  C3_10 
REMARK    4  A    between atoms: C3_10  and  C4_11 
ROOT
HETATM    1  C1  UNL     1     -11.796  -1.111 126.282  1.00  0.00     0.699 A 
HETATM    2  N2  UNL     1     -11.582  -2.303 126.858  1.00  0.00    -0.152 N 
ATOM      3  H2  UNL     1     -11.134  -3.109 126.424  1.00  0.00     0.188 HD
HETATM    4  C2  UNL     1     -12.068  -2.242 128.117  1.00  0.00     0.262 A 
HETATM    5  O1  UNL     1     -12.551  -1.054 128.268  1.00  0.00    -0.185 OA
HETATM    6  N8  UNL     1     -12.410  -0.349 127.204  1.00  0.00    -0.088 N 
ATOM      7  H8  UNL     1     -12.711   0.618 127.080  1.00  0.00     0.214 HD
ENDROOT
BRANCH   4   8
HETATM    8  N3  UNL     1     -12.068  -3.264 129.095  1.00  0.00    -0.331 N 
ATOM      9  H3  UNL     1     -11.279  -3.321 129.740  1.00  0.00     0.168 HD
BRANCH   8  10
HETATM   10  C3  UNL     1     -13.107  -4.203 129.219  1.00  0.00     0.105 C 
BRANCH  10  11
HETATM   11  C4  UNL     1     -13.454  -5.069 128.088  1.00  0.00     0.245 C 
HETATM   12  N4  UNL     1     -14.180  -6.287 128.370  1.00  0.00    -0.100 NA
HETATM   13  N5  UNL     1     -14.324  -6.703 127.002  1.00  0.00    -0.019 NA
HETATM   14  N6  UNL     1     -12.998  -6.640 126.578  1.00  0.00    -0.019 NA
HETATM   15  N7  UNL     1     -12.350  -5.630 127.336  1.00  0.00    -0.100 NA
ENDBRANCH  10  11
ENDBRANCH   8  10
ENDBRANCH   4   8
BRANCH   1  16
HETATM   16  N1  UNL     1     -11.510  -0.695 125.103  1.00  0.00    -0.233 N 
ATOM     17  H12 UNL     1     -10.898   0.101 124.924  1.00  0.00     0.174 HD
ATOM     18  H11 UNL     1     -11.809  -1.039 124.191  1.00  0.00     0.174 HD
ENDBRANCH   1  16
TORSDOF 4
ENDMDL
MODEL 3
REMARK VINA RESULT: -7.383602457      3.332      4.217
REMARK  4 active torsions:
REMARK  status: ('A' for Active; 'I' for Inactive)
REMARK    1  A    between atoms: N1_1  and  C1_4 
REMARK    2  A    between atoms: C2_7  and  N3_8 
REMARK    3  A    between atoms: N3_8  and  C3_10 
REMARK    4  A    between atoms: C3_10  and  C4_11 
ROOT
HETATM    1  C1  UNL     1     -11.837  -0.963 125.800  1.00  0.00     0.699 A 
HETATM    2  N2  UNL     1     -12.075  -2.255 126.066  1.00  0.00    -0.152 N 
ATOM      3  H2  UNL     1     -12.026  -3.026 125.400  1.00  0.00     0.188 HD
HETATM    4  C2  UNL     1     -12.393  -2.352 127.375  1.00  0.00     0.262 A 
HETATM    5  O1  UNL     1     -12.343  -1.154 127.855  1.00  0.00    -0.185 OA
HETATM    6  N8  UNL     1     -12.016  -0.299 126.955  1.00  0.00    -0.088 N 
ATOM      7  H8  UNL     1     -11.911   0.707 127.093  1.00  0.00     0.214 HD
ENDROOT
BRANCH   4   8
HETATM    8  N3  UNL     1     -12.726  -3.520 128.101  1.00  0.00    -0.331 N 
ATOM      9  H3  UNL     1     -12.154  -3.771 128.908  1.00  0.00     0.168 HD
BRANCH   8  10
HETATM   10  C3  UNL     1     -13.809  -4.348 127.760  1.00  0.00     0.105 C 
BRANCH  10  11
HETATM   11  C4  UNL     1     -13.601  -5.512 126.893  1.00  0.00     0.245 C 
HETATM   12  N4  UNL     1     -13.990  -5.396 125.505  1.00  0.00    -0.100 NA
HETATM   13  N5  UNL     1     -13.535  -6.701 125.108  1.00  0.00    -0.019 NA
HETATM   14  N6  UNL     1     -14.177  -7.493 126.057  1.00  0.00    -0.019 NA
HETATM   15  N7  UNL     1     -14.329  -6.717 127.236  1.00  0.00    -0.100 NA
ENDBRANCH  10  11
ENDBRANCH   8  10
ENDBRANCH   4   8
BRANCH   1  16
HETATM   16  N1  UNL     1     -11.503  -0.388 124.703  1.00  0.00    -0.233 N 
ATOM     17  H12 UNL     1     -11.695  -0.784 123.783  1.00  0.00     0.174 HD
ATOM     18  H11 UNL     1     -11.024   0.497 124.541  1.00  0.00     0.174 HD
ENDBRANCH   1  16
TORSDOF 4
ENDMDL
MODEL 4
REMARK VINA RESULT: -7.325646492      3.956      4.879
REMARK  4 active torsions:
REMARK  status: ('A' for Active; 'I' for Inactive)
REMARK    1  A    between atoms: N1_1  and  C1_4 
REMARK    2  A    between atoms: C2_7  and  N3_8 
REMARK    3  A    between atoms: N3_8  and  C3_10 
REMARK    4  A    between atoms: C3_10  and  C4_11 
ROOT
HETATM    1  C1  UNL     1      -8.915  -1.426 125.850  1.00  0.00     0.699 A 
HETATM    2  N2  UNL     1      -9.921  -1.435 126.736  1.00  0.00    -0.152 N 
ATOM      3  H2  UNL     1     -10.324  -0.620 127.198  1.00  0.00     0.188 HD
HETATM    4  C2  UNL     1     -10.305  -2.718 126.907  1.00  0.00     0.262 A 
HETATM    5  O1  UNL     1      -9.545  -3.434 126.145  1.00  0.00    -0.185 OA
HETATM    6  N8  UNL     1      -8.706  -2.707 125.500  1.00  0.00    -0.088 N 
ATOM      7  H8  UNL     1      -8.005  -3.042 124.839  1.00  0.00     0.214 HD
ENDROOT
BRANCH   4   8
HETATM    8  N3  UNL     1     -11.329  -3.212 127.749  1.00  0.00    -0.331 N 
ATOM      9  H3  UNL     1     -11.992  -2.548 128.150  1.00  0.00     0.168 HD
BRANCH   8  10
HETATM   10  C3  UNL     1     -11.473  -4.576 128.057  1.00  0.00     0.105 C 
BRANCH  10  11
HETATM   11  C4  UNL     1     -12.755  -5.250 127.830  1.00  0.00     0.245 C 
HETATM   12  N4  UNL     1     -13.282  -6.072 128.896  1.00  0.00    -0.100 NA
HETATM   13  N5  UNL     1     -14.509  -6.418 128.233  1.00  0.00    -0.019 NA
HETATM   14  N6  UNL     1     -14.016  -6.897 127.021  1.00  0.00    -0.019 NA
HETATM   15  N7  UNL     1     -12.799  -6.217 126.752  1.00  0.00    -0.100 NA
ENDBRANCH  10  11
ENDBRANCH   8  10
ENDBRANCH   4   8
BRANCH   1  16
HETATM   16  N1  UNL     1      -8.233  -0.448 125.378  1.00  0.00    -0.233 N 
ATOM     17  H12 UNL     1      -7.700   0.197 125.962  1.00  0.00     0.174 HD
ATOM     18  H11 UNL     1      -8.097  -0.142 124.415  1.00  0.00     0.174 HD
ENDBRANCH   1  16
TORSDOF 4
ENDMDL
MODEL 5
REMARK VINA RESULT: -7.314382663      2.648      3.133
REMARK  4 active torsions:
REMARK  status: ('A' for Active; 'I' for Inactive)
REMARK    1  A    between atoms: N1_1  and  C1_4 
REMARK    2  A    between atoms: C2_7  and  N3_8 
REMARK    3  A    between atoms: N3_8  and  C3_10 
REMARK    4  A    between atoms: C3_10  and  C4_11 
ROOT
HETATM    1  C1  UNL     1     -10.825  -1.725 127.162  1.00  0.00     0.699 A 
HETATM    2  N2  UNL     1     -11.974  -2.185 126.647  1.00  0.00    -0.152 N 
ATOM      3  H2  UNL     1     -12.335  -1.991 125.714  1.00  0.00     0.188 HD
HETATM    4  C2  UNL     1     -12.566  -2.953 127.587  1.00  0.00     0.262 A 
HETATM    5  O1  UNL     1     -11.787  -2.938 128.618  1.00  0.00    -0.185 OA
HETATM    6  N8  UNL     1     -10.742  -2.222 128.408  1.00  0.00    -0.088 N 
ATOM      7  H8  UNL     1      -9.984  -2.059 129.071  1.00  0.00     0.214 HD
ENDROOT
BRANCH   4   8
HETATM    8  N3  UNL     1     -13.797  -3.643 127.492  1.00  0.00    -0.331 N 
ATOM      9  H3  UNL     1     -14.624  -3.126 127.194  1.00  0.00     0.168 HD
BRANCH   8  10
HETATM   10  C3  UNL     1     -13.930  -5.011 127.792  1.00  0.00     0.105 C 
BRANCH  10  11
HETATM   11  C4  UNL     1     -13.617  -6.020 126.775  1.00  0.00     0.245 C 
HETATM   12  N4  UNL     1     -12.231  -6.395 126.603  1.00  0.00    -0.100 NA
HETATM   13  N5  UNL     1     -12.466  -7.402 125.604  1.00  0.00    -0.019 NA
HETATM   14  N6  UNL     1     -13.220  -6.675 124.685  1.00  0.00    -0.019 NA
HETATM   15  N7  UNL     1     -13.935  -5.680 125.403  1.00  0.00    -0.100 NA
ENDBRANCH  10  11
ENDBRANCH   8  10
ENDBRANCH   4   8
BRANCH   1  16
HETATM   16  N1  UNL     1      -9.930  -0.963 126.649  1.00  0.00    -0.233 N 
ATOM     17  H12 UNL     1      -9.504  -0.183 127.150  1.00  0.00     0.174 HD
ATOM     18  H11 UNL     1      -9.503  -0.978 125.723  1.00  0.00     0.174 HD
ENDBRANCH   1  16
TORSDOF 4
ENDMDL
