MODEL 1
REMARK VINA RESULT: -6.789326965      0.000      0.000
REMARK  4 active torsions:
REMARK  status: ('A' for Active; 'I' for Inactive)
REMARK    1  A    between atoms: N1_1  and  C1_4 
REMARK    2  A    between atoms: C2_7  and  N3_8 
REMARK    3  A    between atoms: N3_8  and  N4_10 
REMARK    4  A    between atoms: N4_10  and  N5_11 
ROOT
HETATM    1  C1  UNL     1     -12.227  -0.955 127.729  1.00  0.00     0.145 A 
HETATM    2  N2  UNL     1     -12.775  -1.713 128.699  1.00  0.00    -0.173 N 
ATOM      3  H2  UNL     1     -13.594  -1.356 129.191  1.00  0.00     0.186 HD
HETATM    4  C2  UNL     1     -12.299  -2.903 129.045  1.00  0.00     0.698 A 
HETATM    5  N6  UNL     1     -11.224  -3.373 128.396  1.00  0.00    -0.173 N 
ATOM      6  H6  UNL     1     -10.852  -4.288 128.654  1.00  0.00     0.186 HD
HETATM    7  C3  UNL     1     -10.614  -2.672 127.408  1.00  0.00     0.152 A 
HETATM    8  N7  UNL     1      -9.555  -2.876 126.604  1.00  0.00    -0.336 N 
ATOM      9  H7  UNL     1      -8.957  -3.702 126.608  1.00  0.00     0.168 HD
HETATM   10  C4  UNL     1      -9.412  -1.797 125.783  1.00  0.00     0.182 A 
HETATM   11  N8  UNL     1     -10.383  -0.918 126.077  1.00  0.00    -0.346 N 
ATOM     12  H8  UNL     1     -10.534  -0.013 125.630  1.00  0.00     0.167 HD
HETATM   13  C5  UNL     1     -11.125  -1.453 127.075  1.00  0.00     0.122 A 
ENDROOT
BRANCH   4  14
HETATM   14  N3  UNL     1     -12.866  -3.717 130.067  1.00  0.00    -0.116 N 
ATOM     15  H3  UNL     1     -13.079  -3.320 130.983  1.00  0.00     0.203 HD
BRANCH  14  16
HETATM   16  N4  UNL     1     -13.127  -5.066 129.803  1.00  0.00    -0.015 NA
BRANCH  16  17
HETATM   17  N5  UNL     1     -12.097  -5.868 130.356  1.00  0.00    -0.328 N 
ATOM     18  H52 UNL     1     -11.477  -5.570 131.110  1.00  0.00     0.174 HD
ATOM     19  H51 UNL     1     -12.079  -6.773 129.887  1.00  0.00     0.174 HD
ENDBRANCH  16  17
ENDBRANCH  14  16
ENDBRANCH   4  14
BRANCH   1  20
HETATM   20  N1  UNL     1     -12.715   0.197 127.419  1.00  0.00    -0.383 N 
ATOM     21  H12 UNL     1     -13.578   0.533 127.848  1.00  0.00     0.157 HD
ATOM     22  H11 UNL     1     -12.255   0.805 126.741  1.00  0.00     0.157 HD
ENDBRANCH   1  20
TORSDOF 4
ENDMDL
MODEL 2
REMARK VINA RESULT: -6.759157779      1.321      1.488
REMARK  4 active torsions:
REMARK  status: ('A' for Active; 'I' for Inactive)
REMARK    1  A    between atoms: N1_1  and  C1_4 
REMARK    2  A    between atoms: C2_7  and  N3_8 
REMARK    3  A    between atoms: N3_8  and  N4_10 
REMARK    4  A    between atoms: N4_10  and  N5_11 
ROOT
HETATM    1  C1  UNL     1     -11.711  -1.414 126.037  1.00  0.00     0.145 A 
HETATM    2  N2  UNL     1     -12.263  -1.713 127.230  1.00  0.00    -0.173 N 
ATOM      3  H2  UNL     1     -13.183  -1.332 127.449  1.00  0.00     0.186 HD
HETATM    4  C2  UNL     1     -11.663  -2.479 128.134  1.00  0.00     0.698 A 
HETATM    5  N6  UNL     1     -10.454  -2.980 127.844  1.00  0.00    -0.173 N 
ATOM      6  H6  UNL     1      -9.986  -3.571 128.532  1.00  0.00     0.186 HD
HETATM    7  C3  UNL     1      -9.832  -2.726 126.666  1.00  0.00     0.152 A 
HETATM    8  N7  UNL     1      -8.657  -3.076 126.110  1.00  0.00    -0.336 N 
ATOM      9  H7  UNL     1      -7.948  -3.667 126.543  1.00  0.00     0.168 HD
HETATM   10  C4  UNL     1      -8.570  -2.509 124.873  1.00  0.00     0.182 A 
HETATM   11  N8  UNL     1      -9.692  -1.805 124.658  1.00  0.00    -0.346 N 
ATOM     12  H8  UNL     1      -9.917  -1.269 123.819  1.00  0.00     0.167 HD
HETATM   13  C5  UNL     1     -10.471  -1.937 125.758  1.00  0.00     0.122 A 
ENDROOT
BRANCH   4  14
HETATM   14  N3  UNL     1     -12.231  -2.804 129.399  1.00  0.00    -0.116 N 
ATOM     15  H3  UNL     1     -12.028  -2.231 130.218  1.00  0.00     0.203 HD
BRANCH  14  16
HETATM   16  N4  UNL     1     -13.070  -3.919 129.507  1.00  0.00    -0.015 NA
BRANCH  16  17
HETATM   17  N5  UNL     1     -12.630  -4.744 130.573  1.00  0.00    -0.328 N 
ATOM     18  H52 UNL     1     -12.987  -4.691 131.528  1.00  0.00     0.174 HD
ATOM     19  H51 UNL     1     -11.913  -5.386 130.236  1.00  0.00     0.174 HD
ENDBRANCH  16  17
ENDBRANCH  14  16
ENDBRANCH   4  14
BRANCH   1  20
HETATM   20  N1  UNL     1     -12.321  -0.666 125.183  1.00  0.00    -0.383 N 
ATOM     21  H12 UNL     1     -12.930   0.092 125.492  1.00  0.00     0.157 HD
ATOM     22  H11 UNL     1     -12.213  -0.808 124.179  1.00  0.00     0.157 HD
ENDBRANCH   1  20
TORSDOF 4
ENDMDL
MODEL 3
REMARK VINA RESULT: -6.706608658      1.438      4.631
REMARK  4 active torsions:
REMARK  status: ('A' for Active; 'I' for Inactive)
REMARK    1  A    between atoms: N1_1  and  C1_4 
REMARK    2  A    between atoms: C2_7  and  N3_8 
REMARK    3  A    between atoms: N3_8  and  N4_10 
REMARK    4  A    between atoms: N4_10  and  N5_11 
ROOT
HETATM    1  C1  UNL     1     -11.943  -0.803 127.378  1.00  0.00     0.145 A 
HETATM    2  N2  UNL     1     -10.810  -0.695 126.656  1.00  0.00    -0.173 N 
ATOM      3  H2  UNL     1     -10.626   0.182 126.168  1.00  0.00     0.186 HD
HETATM    4  C2  UNL     1      -9.921  -1.676 126.551  1.00  0.00     0.698 A 
HETATM    5  N6  UNL     1     -10.162  -2.827 127.195  1.00  0.00    -0.173 N 
ATOM      6  H6  UNL     1      -9.484  -3.586 127.120  1.00  0.00     0.186 HD
HETATM    7  C3  UNL     1     -11.279  -3.015 127.941  1.00  0.00     0.152 A 
HETATM    8  N7  UNL     1     -11.779  -4.024 128.677  1.00  0.00    -0.336 N 
ATOM      9  H7  UNL     1     -11.341  -4.935 128.810  1.00  0.00     0.168 HD
HETATM   10  C4  UNL     1     -12.968  -3.630 129.215  1.00  0.00     0.182 A 
HETATM   11  N8  UNL     1     -13.210  -2.372 128.814  1.00  0.00    -0.346 N 
ATOM     12  H8  UNL     1     -14.025  -1.808 129.055  1.00  0.00     0.167 HD
HETATM   13  C5  UNL     1     -12.173  -1.990 128.031  1.00  0.00     0.122 A 
ENDROOT
BRANCH   4  14
HETATM   14  N3  UNL     1      -8.719  -1.579 125.792  1.00  0.00    -0.116 N 
ATOM     15  H3  UNL     1      -8.203  -2.420 125.534  1.00  0.00     0.203 HD
BRANCH  14  16
HETATM   16  N4  UNL     1      -8.254  -0.317 125.405  1.00  0.00    -0.015 NA
BRANCH  16  17
HETATM   17  N5  UNL     1      -7.620  -0.411 124.141  1.00  0.00    -0.328 N 
ATOM     18  H52 UNL     1      -7.935  -1.015 123.382  1.00  0.00     0.174 HD
ATOM     19  H51 UNL     1      -6.813   0.213 124.115  1.00  0.00     0.174 HD
ENDBRANCH  16  17
ENDBRANCH  14  16
ENDBRANCH   4  14
BRANCH   1  20
HETATM   20  N1  UNL     1     -12.785   0.170 127.458  1.00  0.00    -0.383 N 
ATOM     21  H12 UNL     1     -12.494   1.130 127.272  1.00  0.00     0.157 HD
ATOM     22  H11 UNL     1     -13.761   0.009 127.707  1.00  0.00     0.157 HD
ENDBRANCH   1  20
TORSDOF 4
ENDMDL
MODEL 4
REMARK VINA RESULT: -6.601639730      1.280      4.235
REMARK  4 active torsions:
REMARK  status: ('A' for Active; 'I' for Inactive)
REMARK    1  A    between atoms: N1_1  and  C1_4 
REMARK    2  A    between atoms: C2_7  and  N3_8 
REMARK    3  A    between atoms: N3_8  and  N4_10 
REMARK    4  A    between atoms: N4_10  and  N5_11 
ROOT
HETATM    1  C1  UNL     1     -11.831  -0.891 127.341  1.00  0.00     0.145 A 
HETATM    2  N2  UNL     1     -10.717  -0.906 126.583  1.00  0.00    -0.173 N 
ATOM      3  H2  UNL     1     -10.499  -0.082 126.023  1.00  0.00     0.186 HD
HETATM    4  C2  UNL     1      -9.891  -1.944 126.531  1.00  0.00     0.698 A 
HETATM    5  N6  UNL     1     -10.178  -3.026 127.269  1.00  0.00    -0.173 N 
ATOM      6  H6  UNL     1      -9.548  -3.827 127.237  1.00  0.00     0.186 HD
HETATM    7  C3  UNL     1     -11.280  -3.088 128.058  1.00  0.00     0.152 A 
HETATM    8  N7  UNL     1     -11.813  -4.007 128.884  1.00  0.00    -0.336 N 
ATOM      9  H7  UNL     1     -11.424  -4.930 129.076  1.00  0.00     0.168 HD
HETATM   10  C4  UNL     1     -12.960  -3.502 129.422  1.00  0.00     0.182 A 
HETATM   11  N8  UNL     1     -13.141  -2.266 128.930  1.00  0.00    -0.346 N 
ATOM     12  H8  UNL     1     -13.914  -1.637 129.147  1.00  0.00     0.167 HD
HETATM   13  C5  UNL     1     -12.109  -2.009 128.091  1.00  0.00     0.122 A 
ENDROOT
BRANCH   4  14
HETATM   14  N3  UNL     1      -8.710  -1.978 125.735  1.00  0.00    -0.116 N 
ATOM     15  H3  UNL     1      -7.980  -1.277 125.866  1.00  0.00     0.203 HD
BRANCH  14  16
HETATM   16  N4  UNL     1      -8.561  -2.981 124.771  1.00  0.00    -0.015 NA
BRANCH  16  17
HETATM   17  N5  UNL     1      -9.633  -2.916 123.847  1.00  0.00    -0.328 N 
ATOM     18  H52 UNL     1     -10.561  -2.551 124.065  1.00  0.00     0.174 HD
ATOM     19  H51 UNL     1      -9.332  -3.285 122.945  1.00  0.00     0.174 HD
ENDBRANCH  16  17
ENDBRANCH  14  16
ENDBRANCH   4  14
BRANCH   1  20
HETATM   20  N1  UNL     1     -12.613   0.134 127.367  1.00  0.00    -0.383 N 
ATOM     21  H12 UNL     1     -13.034   0.494 126.510  1.00  0.00     0.157 HD
ATOM     22  H11 UNL     1     -12.833   0.613 128.241  1.00  0.00     0.157 HD
ENDBRANCH   1  20
TORSDOF 4
ENDMDL
MODEL 5
REMARK VINA RESULT: -6.560947792      2.160      3.046
REMARK  4 active torsions:
REMARK  status: ('A' for Active; 'I' for Inactive)
REMARK    1  A    between atoms: N1_1  and  C1_4 
REMARK    2  A    between atoms: C2_7  and  N3_8 
REMARK    3  A    between atoms: N3_8  and  N4_10 
REMARK    4  A    between atoms: N4_10  and  N5_11 
ROOT
HETATM    1  C1  UNL     1     -11.123  -1.019 125.186  1.00  0.00     0.145 A 
HETATM    2  N2  UNL     1     -11.221  -1.920 126.184  1.00  0.00    -0.173 N 
ATOM      3  H2  UNL     1     -12.139  -2.096 126.592  1.00  0.00     0.186 HD
HETATM    4  C2  UNL     1     -10.178  -2.589 126.660  1.00  0.00     0.698 A 
HETATM    5  N6  UNL     1      -8.972  -2.359 126.121  1.00  0.00    -0.173 N 
ATOM      6  H6  UNL     1      -8.165  -2.870 126.480  1.00  0.00     0.186 HD
HETATM    7  C3  UNL     1      -8.791  -1.468 125.115  1.00  0.00     0.152 A 
HETATM    8  N7  UNL     1      -7.737  -1.037 124.397  1.00  0.00    -0.336 N 
ATOM      9  H7  UNL     1      -6.774  -1.353 124.509  1.00  0.00     0.168 HD
HETATM   10  C4  UNL     1      -8.168  -0.110 123.496  1.00  0.00     0.182 A 
HETATM   11  N8  UNL     1      -9.492   0.038 123.652  1.00  0.00    -0.346 N 
ATOM     12  H8  UNL     1     -10.097   0.665 123.120  1.00  0.00     0.167 HD
HETATM   13  C5  UNL     1      -9.879  -0.796 124.647  1.00  0.00     0.122 A 
ENDROOT
BRANCH   4  14
HETATM   14  N3  UNL     1     -10.263  -3.544 127.713  1.00  0.00    -0.116 N 
ATOM     15  H3  UNL     1     -10.015  -3.283 128.668  1.00  0.00     0.203 HD
BRANCH  14  16
HETATM   16  N4  UNL     1     -10.691  -4.845 127.426  1.00  0.00    -0.015 NA
BRANCH  16  17
HETATM   17  N5  UNL     1     -11.109  -5.484 128.620  1.00  0.00    -0.328 N 
ATOM     18  H52 UNL     1     -11.477  -4.995 129.437  1.00  0.00     0.174 HD
ATOM     19  H51 UNL     1     -10.984  -6.492 128.532  1.00  0.00     0.174 HD
ENDBRANCH  16  17
ENDBRANCH  14  16
ENDBRANCH   4  14
BRANCH   1  20
HETATM   20  N1  UNL     1     -12.158  -0.386 124.748  1.00  0.00    -0.383 N 
ATOM     21  H12 UNL     1     -13.013  -0.334 125.302  1.00  0.00     0.157 HD
ATOM     22  H11 UNL     1     -12.151   0.080 123.841  1.00  0.00     0.157 HD
ENDBRANCH   1  20
TORSDOF 4
ENDMDL
