MODEL 1
REMARK VINA RESULT: -6.557598395      0.000      0.000
REMARK  4 active torsions:
REMARK  status: ('A' for Active; 'I' for Inactive)
REMARK    1  A    between atoms: C5_6  and  C6_7 
REMARK    2  A    between atoms: C6_7  and  N1_8 
REMARK    3  A    between atoms: C6_7  and  C12_15 
REMARK    4  A    between atoms: N1_8  and  N2_9 
ROOT
HETATM    1  C6  UNL     1      46.042  11.336   1.184  1.00  0.00     0.150 C 
ENDROOT
BRANCH   1   2
HETATM    2  C5  UNL     1      45.808  12.645   1.849  1.00  0.00    -0.033 A 
HETATM    3  C4  UNL     1      44.805  13.498   1.470  1.00  0.00     0.009 A 
HETATM    4  C3  UNL     1      44.582  14.729   2.092  1.00  0.00     0.004 A 
HETATM    5  C2  UNL     1      45.411  15.077   3.118  1.00  0.00     0.042 A 
HETATM    6  C1  UNL     1      46.426  14.243   3.521  1.00  0.00     0.117 A 
HETATM    7  F1  UNL     1      47.271  14.568   4.546  1.00  0.00    -0.206 F 
HETATM    8  C15 UNL     1      46.619  13.048   2.893  1.00  0.00     0.051 A 
ENDBRANCH   1   2
BRANCH   1   9
HETATM    9  N1  UNL     1      45.811  11.484  -0.250  1.00  0.00    -0.153 NA
BRANCH   9  10
HETATM   10  N2  UNL     1      44.653  10.832  -0.650  1.00  0.00    -0.234 NA
HETATM   11  C7  UNL     1      44.943   9.408  -0.679  1.00  0.00     0.109 C 
HETATM   12  C8  UNL     1      43.604   8.705  -0.846  1.00  0.00     0.016 C 
HETATM   13  C9  UNL     1      43.156   8.977  -2.269  1.00  0.00     0.002 C 
HETATM   14  C10 UNL     1      43.911  10.126  -2.888  1.00  0.00     0.016 C 
HETATM   15  C11 UNL     1      44.152  11.256  -1.920  1.00  0.00     0.109 C 
ENDBRANCH   9  10
ENDBRANCH   1   9
BRANCH   1  16
HETATM   16  C12 UNL     1      47.454  10.935   1.483  1.00  0.00     0.125 C 
HETATM   17  C13 UNL     1      47.417   9.540   2.072  1.00  0.00     0.147 C 
HETATM   18  N3  UNL     1      48.673   9.009   1.643  1.00  0.00    -0.384 N 
HETATM   19  C14 UNL     1      48.965   9.671   0.419  1.00  0.00     0.171 C 
ATOM     20  H3  UNL     1      49.240   8.304   2.115  1.00  0.00     0.160 HD
HETATM   21  N4  UNL     1      48.273  10.763   0.329  1.00  0.00    -0.378 N 
ATOM     22  H4  UNL     1      48.309  11.411  -0.458  1.00  0.00     0.160 HD
ENDBRANCH   1  16
TORSDOF 4
ENDMDL
MODEL 2
REMARK VINA RESULT: -6.356590425      1.051      1.491
REMARK  4 active torsions:
REMARK  status: ('A' for Active; 'I' for Inactive)
REMARK    1  A    between atoms: C5_6  and  C6_7 
REMARK    2  A    between atoms: C6_7  and  N1_8 
REMARK    3  A    between atoms: C6_7  and  C12_15 
REMARK    4  A    between atoms: N1_8  and  N2_9 
ROOT
HETATM    1  C6  UNL     1      46.116  11.075   1.263  1.00  0.00     0.150 C 
ENDROOT
BRANCH   1   2
HETATM    2  C5  UNL     1      45.994  12.392   1.943  1.00  0.00    -0.033 A 
HETATM    3  C4  UNL     1      46.792  12.757   2.996  1.00  0.00     0.009 A 
HETATM    4  C3  UNL     1      46.680  13.994   3.637  1.00  0.00     0.004 A 
HETATM    5  C2  UNL     1      45.730  14.858   3.180  1.00  0.00     0.042 A 
HETATM    6  C1  UNL     1      44.915  14.521   2.126  1.00  0.00     0.117 A 
HETATM    7  F1  UNL     1      43.953  15.369   1.649  1.00  0.00    -0.206 F 
HETATM    8  C15 UNL     1      45.048  13.306   1.521  1.00  0.00     0.051 A 
ENDBRANCH   1   2
BRANCH   1   9
HETATM    9  N1  UNL     1      45.921  11.263  -0.171  1.00  0.00    -0.153 NA
BRANCH   9  10
HETATM   10  N2  UNL     1      44.714  10.724  -0.596  1.00  0.00    -0.234 NA
HETATM   11  C7  UNL     1      44.930   9.306  -0.833  1.00  0.00     0.109 C 
HETATM   12  C8  UNL     1      43.551   8.692  -1.025  1.00  0.00     0.016 C 
HETATM   13  C9  UNL     1      43.054   9.178  -2.373  1.00  0.00     0.002 C 
HETATM   14  C10 UNL     1      43.836  10.368  -2.868  1.00  0.00     0.016 C 
HETATM   15  C11 UNL     1      44.178  11.341  -1.769  1.00  0.00     0.109 C 
ENDBRANCH   9  10
ENDBRANCH   1   9
BRANCH   1  16
HETATM   16  C12 UNL     1      47.481  10.543   1.575  1.00  0.00     0.125 C 
HETATM   17  C13 UNL     1      47.323   9.093   1.982  1.00  0.00     0.147 C 
HETATM   18  N3  UNL     1      48.564   8.530   1.548  1.00  0.00    -0.384 N 
HETATM   19  C14 UNL     1      48.964   9.314   0.432  1.00  0.00     0.171 C 
ATOM     20  H3  UNL     1      49.058   7.735   1.954  1.00  0.00     0.160 HD
HETATM   21  N4  UNL     1      48.349  10.455   0.447  1.00  0.00    -0.378 N 
ATOM     22  H4  UNL     1      48.470  11.190  -0.251  1.00  0.00     0.160 HD
ENDBRANCH   1  16
TORSDOF 4
ENDMDL
MODEL 3
REMARK VINA RESULT: -6.334816487      3.697      5.964
REMARK  4 active torsions:
REMARK  status: ('A' for Active; 'I' for Inactive)
REMARK    1  A    between atoms: C5_6  and  C6_7 
REMARK    2  A    between atoms: C6_7  and  N1_8 
REMARK    3  A    between atoms: C6_7  and  C12_15 
REMARK    4  A    between atoms: N1_8  and  N2_9 
ROOT
HETATM    1  C6  UNL     1      45.416  14.723   2.198  1.00  0.00     0.150 C 
ENDROOT
BRANCH   1   2
HETATM    2  C5  UNL     1      45.670  13.263   2.078  1.00  0.00    -0.033 A 
HETATM    3  C4  UNL     1      46.670  12.627   2.767  1.00  0.00     0.009 A 
HETATM    4  C3  UNL     1      46.912  11.256   2.656  1.00  0.00     0.004 A 
HETATM    5  C2  UNL     1      46.107  10.538   1.822  1.00  0.00     0.042 A 
HETATM    6  C1  UNL     1      45.096  11.146   1.118  1.00  0.00     0.117 A 
HETATM    7  F1  UNL     1      44.275  10.450   0.274  1.00  0.00    -0.206 F 
HETATM    8  C15 UNL     1      44.885  12.488   1.246  1.00  0.00     0.051 A 
ENDBRANCH   1   2
BRANCH   1   9
HETATM    9  N1  UNL     1      43.988  14.971   2.024  1.00  0.00    -0.153 NA
BRANCH   9  10
HETATM   10  N2  UNL     1      43.738  15.743   0.898  1.00  0.00    -0.234 NA
HETATM   11  C7  UNL     1      44.219  15.001  -0.255  1.00  0.00     0.109 C 
HETATM   12  C8  UNL     1      43.691  15.730  -1.482  1.00  0.00     0.016 C 
HETATM   13  C9  UNL     1      44.475  17.024  -1.576  1.00  0.00     0.002 C 
HETATM   14  C10 UNL     1      45.176  17.355  -0.283  1.00  0.00     0.016 C 
HETATM   15  C11 UNL     1      44.341  17.039   0.932  1.00  0.00     0.109 C 
ENDBRANCH   9  10
ENDBRANCH   1   9
BRANCH   1  16
HETATM   16  C12 UNL     1      45.893  15.143   3.554  1.00  0.00     0.125 C 
HETATM   17  C13 UNL     1      46.902  16.255   3.357  1.00  0.00     0.147 C 
HETATM   18  N3  UNL     1      46.728  17.023   4.551  1.00  0.00    -0.384 N 
HETATM   19  C14 UNL     1      45.369  16.834   4.926  1.00  0.00     0.171 C 
ATOM     20  H3  UNL     1      47.429  17.586   5.032  1.00  0.00     0.160 HD
HETATM   21  N4  UNL     1      44.897  15.768   4.360  1.00  0.00    -0.378 N 
ATOM     22  H4  UNL     1      43.944  15.423   4.475  1.00  0.00     0.160 HD
ENDBRANCH   1  16
TORSDOF 4
ENDMDL
MODEL 4
REMARK VINA RESULT: -6.328027098      0.534      1.206
REMARK  4 active torsions:
REMARK  status: ('A' for Active; 'I' for Inactive)
REMARK    1  A    between atoms: C5_6  and  C6_7 
REMARK    2  A    between atoms: C6_7  and  N1_8 
REMARK    3  A    between atoms: C6_7  and  C12_15 
REMARK    4  A    between atoms: N1_8  and  N2_9 
ROOT
HETATM    1  C6  UNL     1      46.344  11.062   0.896  1.00  0.00     0.150 C 
ENDROOT
BRANCH   1   2
HETATM    2  C5  UNL     1      45.986  12.331   1.581  1.00  0.00    -0.033 A 
HETATM    3  C4  UNL     1      44.974  13.147   1.146  1.00  0.00     0.009 A 
HETATM    4  C3  UNL     1      44.634  14.340   1.788  1.00  0.00     0.004 A 
HETATM    5  C2  UNL     1      45.353  14.689   2.893  1.00  0.00     0.042 A 
HETATM    6  C1  UNL     1      46.373  13.893   3.354  1.00  0.00     0.117 A 
HETATM    7  F1  UNL     1      47.110  14.220   4.459  1.00  0.00    -0.206 F 
HETATM    8  C15 UNL     1      46.682  12.734   2.706  1.00  0.00     0.051 A 
ENDBRANCH   1   2
BRANCH   1   9
HETATM    9  N1  UNL     1      46.311  11.277  -0.548  1.00  0.00    -0.153 NA
BRANCH   9  10
HETATM   10  N2  UNL     1      45.568  10.296  -1.192  1.00  0.00    -0.234 NA
HETATM   11  C7  UNL     1      44.341  10.918  -1.661  1.00  0.00     0.109 C 
HETATM   12  C8  UNL     1      43.683   9.910  -2.591  1.00  0.00     0.016 C 
HETATM   13  C9  UNL     1      43.166   8.791  -1.708  1.00  0.00     0.002 C 
HETATM   14  C10 UNL     1      43.796   8.817  -0.338  1.00  0.00     0.016 C 
HETATM   15  C11 UNL     1      45.263   9.163  -0.376  1.00  0.00     0.109 C 
ENDBRANCH   9  10
ENDBRANCH   1   9
BRANCH   1  16
HETATM   16  C12 UNL     1      47.711  10.675   1.370  1.00  0.00     0.125 C 
HETATM   17  C13 UNL     1      47.576   9.379   2.143  1.00  0.00     0.147 C 
HETATM   18  N3  UNL     1      48.844   8.763   1.904  1.00  0.00    -0.384 N 
HETATM   19  C14 UNL     1      49.260   9.237   0.630  1.00  0.00     0.171 C 
ATOM     20  H3  UNL     1      49.344   8.120   2.518  1.00  0.00     0.160 HD
HETATM   21  N4  UNL     1      48.617  10.321   0.328  1.00  0.00    -0.378 N 
ATOM     22  H4  UNL     1      48.741  10.849  -0.536  1.00  0.00     0.160 HD
ENDBRANCH   1  16
TORSDOF 4
ENDMDL
MODEL 5
REMARK VINA RESULT: -6.283218903      2.310      4.519
REMARK  4 active torsions:
REMARK  status: ('A' for Active; 'I' for Inactive)
REMARK    1  A    between atoms: C5_6  and  C6_7 
REMARK    2  A    between atoms: C6_7  and  N1_8 
REMARK    3  A    between atoms: C6_7  and  C12_15 
REMARK    4  A    between atoms: N1_8  and  N2_9 
ROOT
HETATM    1  C6  UNL     1      45.812  14.376   1.994  1.00  0.00     0.150 C 
ENDROOT
BRANCH   1   2
HETATM    2  C5  UNL     1      45.999  15.266   3.170  1.00  0.00    -0.033 A 
HETATM    3  C4  UNL     1      44.953  15.702   3.941  1.00  0.00     0.009 A 
HETATM    4  C3  UNL     1      45.125  16.538   5.047  1.00  0.00     0.004 A 
HETATM    5  C2  UNL     1      46.396  16.924   5.355  1.00  0.00     0.042 A 
HETATM    6  C1  UNL     1      47.465  16.504   4.601  1.00  0.00     0.117 A 
HETATM    7  F1  UNL     1      48.750  16.877   4.887  1.00  0.00    -0.206 F 
HETATM    8  C15 UNL     1      47.265  15.688   3.526  1.00  0.00     0.051 A 
ENDBRANCH   1   2
BRANCH   1   9
HETATM    9  N1  UNL     1      45.761  12.990   2.451  1.00  0.00    -0.153 NA
BRANCH   9  10
HETATM   10  N2  UNL     1      45.879  12.100   1.392  1.00  0.00    -0.234 NA
HETATM   11  C7  UNL     1      44.771  11.164   1.486  1.00  0.00     0.109 C 
HETATM   12  C8  UNL     1      44.761  10.383   0.180  1.00  0.00     0.016 C 
HETATM   13  C9  UNL     1      45.969   9.467   0.225  1.00  0.00     0.002 C 
HETATM   14  C10 UNL     1      46.962   9.893   1.276  1.00  0.00     0.016 C 
HETATM   15  C11 UNL     1      47.119  11.389   1.360  1.00  0.00     0.109 C 
ENDBRANCH   9  10
ENDBRANCH   1   9
BRANCH   1  16
HETATM   16  C12 UNL     1      44.536  14.789   1.326  1.00  0.00     0.125 C 
HETATM   17  C13 UNL     1      44.614  16.282   1.080  1.00  0.00     0.147 C 
HETATM   18  N3  UNL     1      43.822  16.424  -0.102  1.00  0.00    -0.384 N 
HETATM   19  C14 UNL     1      43.960  15.193  -0.800  1.00  0.00     0.171 C 
ATOM     20  H3  UNL     1      43.274  17.237  -0.385  1.00  0.00     0.160 HD
HETATM   21  N4  UNL     1      44.365  14.267   0.011  1.00  0.00    -0.378 N 
ATOM     22  H4  UNL     1      44.538  13.297  -0.255  1.00  0.00     0.160 HD
ENDBRANCH   1  16
TORSDOF 4
ENDMDL
