MODEL 1
REMARK VINA RESULT: -6.104137331      0.000      0.000
REMARK  4 active torsions:
REMARK  status: ('A' for Active; 'I' for Inactive)
REMARK    1  A    between atoms: C2_2  and  C3_3 
REMARK    2  A    between atoms: C3_3  and  C4_4 
REMARK    3  A    between atoms: C4_4  and  C5_5 
REMARK    4  A    between atoms: C8_14  and  N3_15 
ROOT
HETATM    1  C5  UNL     1      45.341  14.664   2.426  1.00  0.00     0.084 A 
HETATM    2  N1  UNL     1      44.676  15.456   1.583  1.00  0.00    -0.331 N 
ATOM      3  H1  UNL     1      44.423  16.392   1.901  1.00  0.00     0.168 HD
HETATM    4  C6  UNL     1      44.321  15.093   0.342  1.00  0.00     0.126 A 
HETATM    5  N2  UNL     1      43.689  15.850  -0.455  1.00  0.00    -0.384 N 
ATOM      6  H21 UNL     1      43.419  15.573  -1.398  1.00  0.00     0.157 HD
ATOM      7  H22 UNL     1      43.425  16.793  -0.171  1.00  0.00     0.157 HD
HETATM    8  C7  UNL     1      44.685  13.796  -0.048  1.00  0.00     0.121 A 
HETATM    9 CL1  UNL     1      44.241  13.302  -1.648  1.00  0.00    -0.076 Cl
HETATM   10  C8  UNL     1      45.365  12.965   0.801  1.00  0.00     0.130 A 
HETATM   11  N5  UNL     1      45.669  13.436   2.010  1.00  0.00    -0.331 N 
ATOM     12  H5  UNL     1      46.178  12.828   2.651  1.00  0.00     0.168 HD
ENDROOT
BRANCH  10  13
HETATM   13  N3  UNL     1      45.660  11.647   0.365  1.00  0.00    -0.362 N 
HETATM   14  C9  UNL     1      44.784  10.571   0.682  1.00  0.00     0.154 C 
HETATM   15  C10 UNL     1      44.900   9.510  -0.395  1.00  0.00     0.291 C 
HETATM   16  N4  UNL     1      46.288   9.107  -0.494  1.00  0.00     0.087 N 
HETATM   17  C11 UNL     1      46.757   8.414   0.685  1.00  0.00     0.310 C 
HETATM   18  C12 UNL     1      47.144  10.150  -0.938  1.00  0.00     0.291 C 
HETATM   19  C13 UNL     1      46.881  11.509  -0.410  1.00  0.00     0.154 C 
ENDBRANCH  10  13
BRANCH   1  20
HETATM   20  C4  UNL     1      45.645  15.178   3.778  1.00  0.00     0.076 C 
BRANCH  20  21
HETATM   21  C3  UNL     1      47.018  14.853   4.256  1.00  0.00     0.007 C 
BRANCH  21  22
HETATM   22  C2  UNL     1      47.998  15.986   4.012  1.00  0.00    -0.004 C 
HETATM   23  C1  UNL     1      47.764  17.183   4.892  1.00  0.00     0.005 C 
ENDBRANCH  21  22
ENDBRANCH  20  21
ENDBRANCH   1  20
TORSDOF 4
ENDMDL
MODEL 2
REMARK VINA RESULT: -6.073439404      0.493      1.339
REMARK  4 active torsions:
REMARK  status: ('A' for Active; 'I' for Inactive)
REMARK    1  A    between atoms: C2_2  and  C3_3 
REMARK    2  A    between atoms: C3_3  and  C4_4 
REMARK    3  A    between atoms: C4_4  and  C5_5 
REMARK    4  A    between atoms: C8_14  and  N3_15 
ROOT
HETATM    1  C5  UNL     1      45.328  14.604   2.454  1.00  0.00     0.084 A 
HETATM    2  N1  UNL     1      44.662  15.420   1.634  1.00  0.00    -0.331 N 
ATOM      3  H1  UNL     1      44.393  16.340   1.985  1.00  0.00     0.168 HD
HETATM    4  C6  UNL     1      44.326  15.101   0.376  1.00  0.00     0.126 A 
HETATM    5  N2  UNL     1      43.694  15.879  -0.398  1.00  0.00    -0.384 N 
ATOM      6  H21 UNL     1      43.439  15.636  -1.355  1.00  0.00     0.157 HD
ATOM      7  H22 UNL     1      43.414  16.807  -0.082  1.00  0.00     0.157 HD
HETATM    8  C7  UNL     1      44.712  13.825  -0.059  1.00  0.00     0.121 A 
HETATM    9 CL1  UNL     1      44.294  13.387  -1.683  1.00  0.00    -0.076 Cl
HETATM   10  C8  UNL     1      45.394  12.970   0.765  1.00  0.00     0.130 A 
HETATM   11  N5  UNL     1      45.677  13.398   1.995  1.00  0.00    -0.331 N 
ATOM     12  H5  UNL     1      46.187  12.772   2.619  1.00  0.00     0.168 HD
ENDROOT
BRANCH  10  13
HETATM   13  N3  UNL     1      45.712  11.674   0.283  1.00  0.00    -0.362 N 
HETATM   14  C9  UNL     1      46.971  11.423  -0.331  1.00  0.00     0.154 C 
HETATM   15  C10 UNL     1      47.339   9.968  -0.119  1.00  0.00     0.291 C 
HETATM   16  N4  UNL     1      46.271   9.143  -0.646  1.00  0.00     0.087 N 
HETATM   17  C11 UNL     1      46.151   9.232  -2.084  1.00  0.00     0.310 C 
HETATM   18  C12 UNL     1      45.046   9.299   0.054  1.00  0.00     0.291 C 
HETATM   19  C13 UNL     1      44.681  10.670   0.478  1.00  0.00     0.154 C 
ENDBRANCH  10  13
BRANCH   1  20
HETATM   20  C4  UNL     1      45.609  15.070   3.829  1.00  0.00     0.076 C 
BRANCH  20  21
HETATM   21  C3  UNL     1      46.984  14.754   4.307  1.00  0.00     0.007 C 
BRANCH  21  22
HETATM   22  C2  UNL     1      47.972  15.864   3.999  1.00  0.00    -0.004 C 
HETATM   23  C1  UNL     1      47.745  17.111   4.808  1.00  0.00     0.005 C 
ENDBRANCH  21  22
ENDBRANCH  20  21
ENDBRANCH   1  20
TORSDOF 4
ENDMDL
MODEL 3
REMARK VINA RESULT: -6.025841492      2.461      5.133
REMARK  4 active torsions:
REMARK  status: ('A' for Active; 'I' for Inactive)
REMARK    1  A    between atoms: C2_2  and  C3_3 
REMARK    2  A    between atoms: C3_3  and  C4_4 
REMARK    3  A    between atoms: C4_4  and  C5_5 
REMARK    4  A    between atoms: C8_14  and  N3_15 
ROOT
HETATM    1  C5  UNL     1      44.688  15.519   2.018  1.00  0.00     0.084 A 
HETATM    2  N1  UNL     1      44.857  14.197   2.082  1.00  0.00    -0.331 N 
ATOM      3  H1  UNL     1      45.078  13.783   2.989  1.00  0.00     0.168 HD
HETATM    4  C6  UNL     1      44.753  13.380   1.024  1.00  0.00     0.126 A 
HETATM    5  N2  UNL     1      44.914  12.125   1.091  1.00  0.00    -0.384 N 
ATOM      6  H21 UNL     1      44.835  11.503   0.286  1.00  0.00     0.157 HD
ATOM      7  H22 UNL     1      45.131  11.679   1.982  1.00  0.00     0.157 HD
HETATM    8  C7  UNL     1      44.454  13.994  -0.200  1.00  0.00     0.121 A 
HETATM    9 CL1  UNL     1      44.309  12.961  -1.585  1.00  0.00    -0.076 Cl
HETATM   10  C8  UNL     1      44.278  15.349  -0.291  1.00  0.00     0.130 A 
HETATM   11  N5  UNL     1      44.402  16.060   0.829  1.00  0.00    -0.331 N 
ATOM     12  H5  UNL     1      44.271  17.071   0.776  1.00  0.00     0.168 HD
ENDROOT
BRANCH  10  13
HETATM   13  N3  UNL     1      44.027  15.915  -1.568  1.00  0.00    -0.362 N 
HETATM   14  C9  UNL     1      45.095  16.455  -2.338  1.00  0.00     0.154 C 
HETATM   15  C10 UNL     1      44.745  16.342  -3.809  1.00  0.00     0.291 C 
HETATM   16  N4  UNL     1      43.481  17.014  -4.033  1.00  0.00     0.087 N 
HETATM   17  C11 UNL     1      43.564  18.444  -3.837  1.00  0.00     0.310 C 
HETATM   18  C12 UNL     1      42.392  16.394  -3.366  1.00  0.00     0.291 C 
HETATM   19  C13 UNL     1      42.641  15.882  -1.999  1.00  0.00     0.154 C 
ENDBRANCH  10  13
BRANCH   1  20
HETATM   20  C4  UNL     1      44.861  16.308   3.256  1.00  0.00     0.076 C 
BRANCH  20  21
HETATM   21  C3  UNL     1      46.182  16.990   3.361  1.00  0.00     0.007 C 
BRANCH  21  22
HETATM   22  C2  UNL     1      47.310  16.022   3.664  1.00  0.00    -0.004 C 
HETATM   23  C1  UNL     1      48.422  16.630   4.473  1.00  0.00     0.005 C 
ENDBRANCH  21  22
ENDBRANCH  20  21
ENDBRANCH   1  20
TORSDOF 4
ENDMDL
MODEL 4
REMARK VINA RESULT: -5.810924617      2.709      3.766
REMARK  4 active torsions:
REMARK  status: ('A' for Active; 'I' for Inactive)
REMARK    1  A    between atoms: C2_2  and  C3_3 
REMARK    2  A    between atoms: C3_3  and  C4_4 
REMARK    3  A    between atoms: C4_4  and  C5_5 
REMARK    4  A    between atoms: C8_14  and  N3_15 
ROOT
HETATM    1  C5  UNL     1      46.606  12.262   2.479  1.00  0.00     0.084 A 
HETATM    2  N1  UNL     1      45.636  12.267   1.562  1.00  0.00    -0.331 N 
ATOM      3  H1  UNL     1      45.009  13.071   1.528  1.00  0.00     0.168 HD
HETATM    4  C6  UNL     1      45.437  11.274   0.683  1.00  0.00     0.126 A 
HETATM    5  N2  UNL     1      44.515  11.283  -0.187  1.00  0.00    -0.384 N 
ATOM      6  H21 UNL     1      44.364  10.528  -0.856  1.00  0.00     0.157 HD
ATOM      7  H22 UNL     1      43.875  12.074  -0.251  1.00  0.00     0.157 HD
HETATM    8  C7  UNL     1      46.319  10.187   0.772  1.00  0.00     0.121 A 
HETATM    9 CL1  UNL     1      46.087   8.891  -0.356  1.00  0.00    -0.076 Cl
HETATM   10  C8  UNL     1      47.319  10.159   1.706  1.00  0.00     0.130 A 
HETATM   11  N5  UNL     1      47.423  11.205   2.525  1.00  0.00    -0.331 N 
ATOM     12  H5  UNL     1      48.166  11.198   3.225  1.00  0.00     0.168 HD
ENDROOT
BRANCH  10  13
HETATM   13  N3  UNL     1      48.147   9.008   1.778  1.00  0.00    -0.362 N 
HETATM   14  C9  UNL     1      47.863   7.976   2.715  1.00  0.00     0.154 C 
HETATM   15  C10 UNL     1      48.379   6.660   2.166  1.00  0.00     0.291 C 
HETATM   16  N4  UNL     1      49.793   6.804   1.884  1.00  0.00     0.087 N 
HETATM   17  C11 UNL     1      50.588   6.982   3.078  1.00  0.00     0.310 C 
HETATM   18  C12 UNL     1      50.066   7.743   0.854  1.00  0.00     0.291 C 
HETATM   19  C13 UNL     1      49.254   8.981   0.839  1.00  0.00     0.154 C 
ENDBRANCH  10  13
BRANCH   1  20
HETATM   20  C4  UNL     1      46.695  13.407   3.409  1.00  0.00     0.076 C 
BRANCH  20  21
HETATM   21  C3  UNL     1      45.883  14.587   2.997  1.00  0.00     0.007 C 
BRANCH  21  22
HETATM   22  C2  UNL     1      46.555  15.902   3.349  1.00  0.00    -0.004 C 
HETATM   23  C1  UNL     1      47.872  15.733   4.055  1.00  0.00     0.005 C 
ENDBRANCH  21  22
ENDBRANCH  20  21
ENDBRANCH   1  20
TORSDOF 4
ENDMDL
MODEL 5
REMARK VINA RESULT: -5.726700750      2.517      4.747
REMARK  4 active torsions:
REMARK  status: ('A' for Active; 'I' for Inactive)
REMARK    1  A    between atoms: C2_2  and  C3_3 
REMARK    2  A    between atoms: C3_3  and  C4_4 
REMARK    3  A    between atoms: C4_4  and  C5_5 
REMARK    4  A    between atoms: C8_14  and  N3_15 
ROOT
HETATM    1  C5  UNL     1      44.616  15.406   1.832  1.00  0.00     0.084 A 
HETATM    2  N1  UNL     1      44.858  14.106   2.012  1.00  0.00    -0.331 N 
ATOM      3  H1  UNL     1      45.094  13.786   2.951  1.00  0.00     0.168 HD
HETATM    4  C6  UNL     1      44.807  13.196   1.028  1.00  0.00     0.126 A 
HETATM    5  N2  UNL     1      45.037  11.963   1.204  1.00  0.00    -0.384 N 
ATOM      6  H21 UNL     1      44.999  11.270   0.456  1.00  0.00     0.157 HD
ATOM      7  H22 UNL     1      45.272  11.608   2.131  1.00  0.00     0.157 HD
HETATM    8  C7  UNL     1      44.484  13.684  -0.246  1.00  0.00     0.121 A 
HETATM    9 CL1  UNL     1      44.408  12.528  -1.535  1.00  0.00    -0.076 Cl
HETATM   10  C8  UNL     1      44.234  15.014  -0.455  1.00  0.00     0.130 A 
HETATM   11  N5  UNL     1      44.309  15.825   0.599  1.00  0.00    -0.331 N 
ATOM     12  H5  UNL     1      44.123  16.819   0.458  1.00  0.00     0.168 HD
ENDROOT
BRANCH  10  13
HETATM   13  N3  UNL     1      43.962  15.452  -1.777  1.00  0.00    -0.362 N 
HETATM   14  C9  UNL     1      42.624  15.500  -2.258  1.00  0.00     0.154 C 
HETATM   15  C10 UNL     1      42.521  16.580  -3.317  1.00  0.00     0.291 C 
HETATM   16  N4  UNL     1      43.493  16.300  -4.354  1.00  0.00     0.087 N 
HETATM   17  C11 UNL     1      43.188  15.098  -5.098  1.00  0.00     0.310 C 
HETATM   18  C12 UNL     1      44.836  16.382  -3.900  1.00  0.00     0.291 C 
HETATM   19  C13 UNL     1      45.126  15.842  -2.552  1.00  0.00     0.154 C 
ENDBRANCH  10  13
BRANCH   1  20
HETATM   20  C4  UNL     1      44.735  16.308   2.997  1.00  0.00     0.076 C 
BRANCH  20  21
HETATM   21  C3  UNL     1      45.989  17.114   3.014  1.00  0.00     0.007 C 
BRANCH  21  22
HETATM   22  C2  UNL     1      46.809  16.878   4.269  1.00  0.00    -0.004 C 
HETATM   23  C1  UNL     1      47.996  15.981   4.050  1.00  0.00     0.005 C 
ENDBRANCH  21  22
ENDBRANCH  20  21
ENDBRANCH   1  20
TORSDOF 4
ENDMDL
