MODEL 1
REMARK VINA RESULT: -6.595978921      0.000      0.000
REMARK  4 active torsions:
REMARK  status: ('A' for Active; 'I' for Inactive)
REMARK    1  A    between atoms: C2_2  and  S1_4 
REMARK    2  A    between atoms: S1_4  and  C4_5 
REMARK    3  A    between atoms: N2_9  and  C6_11 
REMARK    4  A    between atoms: C6_11  and  C7_12 
ROOT
HETATM    1  C4  UNL     1      46.904   9.757   0.857  1.00  0.00     0.145 A 
HETATM    2  N1  UNL     1      47.334  10.571   1.849  1.00  0.00    -0.323 N 
ATOM      3  H1  UNL     1      48.257  10.402   2.248  1.00  0.00     0.169 HD
HETATM    4  C5  UNL     1      46.607  11.584   2.330  1.00  0.00     0.104 A 
HETATM    5  N2  UNL     1      47.095  12.312   3.279  1.00  0.00    -0.376 N 
ATOM      6  H2  UNL     1      48.025  12.086   3.632  1.00  0.00     0.161 HD
HETATM    7  C12 UNL     1      45.367  11.796   1.783  1.00  0.00     0.065 A 
HETATM    8  C13 UNL     1      44.910  10.972   0.764  1.00  0.00     0.094 A 
HETATM    9  N4  UNL     1      45.704   9.991   0.352  1.00  0.00    -0.347 N 
ATOM     10  H4  UNL     1      45.370   9.383  -0.396  1.00  0.00     0.167 HD
ENDROOT
BRANCH   5  11
HETATM   11  C6  UNL     1      46.395  13.426   3.867  1.00  0.00     0.128 C 
BRANCH  11  12
HETATM   12  C7  UNL     1      46.856  14.750   3.291  1.00  0.00     0.041 C 
HETATM   13  C8  UNL     1      45.697  15.599   2.872  1.00  0.00     0.036 C 
HETATM   14  C9  UNL     1      46.025  17.089   2.978  1.00  0.00     0.233 C 
HETATM   15  N3  UNL     1      46.285  17.446   4.359  1.00  0.00    -0.072 N 
HETATM   16  C10 UNL     1      46.639  16.299   5.161  1.00  0.00     0.269 C 
ATOM     17  H32 UNL     1      46.995  18.176   4.424  1.00  0.00     0.277 HD
ATOM     18  H31 UNL     1      45.497  17.951   4.764  1.00  0.00     0.277 HD
HETATM   19  C11 UNL     1      47.641  15.479   4.373  1.00  0.00     0.201 C 
HETATM   20  F1  UNL     1      48.572  16.283   3.757  1.00  0.00    -0.247 F 
ENDBRANCH  11  12
ENDBRANCH   5  11
BRANCH   1  21
HETATM   21  S1  UNL     1      48.011   8.473   0.350  1.00  0.00    -0.090 SA
BRANCH  21  22
HETATM   22  C2  UNL     1      49.154   7.960   1.631  1.00  0.00     0.047 C 
HETATM   23  C1  UNL     1      50.296   7.124   1.082  1.00  0.00     0.021 C 
HETATM   24  C3  UNL     1      48.469   7.264   2.792  1.00  0.00     0.021 C 
ENDBRANCH  21  22
ENDBRANCH   1  21
TORSDOF 4
ENDMDL
MODEL 2
REMARK VINA RESULT: -6.537710287      3.091      4.441
REMARK  4 active torsions:
REMARK  status: ('A' for Active; 'I' for Inactive)
REMARK    1  A    between atoms: C2_2  and  S1_4 
REMARK    2  A    between atoms: S1_4  and  C4_5 
REMARK    3  A    between atoms: N2_9  and  C6_11 
REMARK    4  A    between atoms: C6_11  and  C7_12 
ROOT
HETATM    1  C4  UNL     1      44.843  11.764  -1.191  1.00  0.00     0.145 A 
HETATM    2  N1  UNL     1      44.707  13.033  -0.742  1.00  0.00    -0.323 N 
ATOM      3  H1  UNL     1      44.608  13.782  -1.426  1.00  0.00     0.169 HD
HETATM    4  C5  UNL     1      44.695  13.351   0.556  1.00  0.00     0.104 A 
HETATM    5  N2  UNL     1      44.559  14.590   0.898  1.00  0.00    -0.376 N 
ATOM      6  H2  UNL     1      44.466  15.287   0.160  1.00  0.00     0.161 HD
HETATM    7  C12 UNL     1      44.830  12.332   1.464  1.00  0.00     0.065 A 
HETATM    8  C13 UNL     1      44.971  11.024   1.021  1.00  0.00     0.094 A 
HETATM    9  N4  UNL     1      44.971  10.806  -0.288  1.00  0.00    -0.347 N 
ATOM     10  H4  UNL     1      45.075   9.846  -0.616  1.00  0.00     0.167 HD
ENDROOT
BRANCH   5  11
HETATM   11  C6  UNL     1      44.533  15.038   2.268  1.00  0.00     0.128 C 
BRANCH  11  12
HETATM   12  C7  UNL     1      45.859  15.638   2.690  1.00  0.00     0.041 C 
HETATM   13  C8  UNL     1      45.687  17.026   3.225  1.00  0.00     0.036 C 
HETATM   14  C9  UNL     1      46.758  17.365   4.261  1.00  0.00     0.233 C 
HETATM   15  N3  UNL     1      46.635  16.492   5.412  1.00  0.00    -0.072 N 
HETATM   16  C10 UNL     1      45.911  15.281   5.101  1.00  0.00     0.269 C 
ATOM     17  H32 UNL     1      47.548  16.283   5.816  1.00  0.00     0.277 HD
ATOM     18  H31 UNL     1      46.216  16.980   6.203  1.00  0.00     0.277 HD
HETATM   19  C11 UNL     1      46.443  14.753   3.783  1.00  0.00     0.201 C 
HETATM   20  F1  UNL     1      47.814  14.848   3.723  1.00  0.00    -0.247 F 
ENDBRANCH  11  12
ENDBRANCH   5  11
BRANCH   1  21
HETATM   21  S1  UNL     1      44.831  11.540  -2.947  1.00  0.00    -0.090 SA
BRANCH  21  22
HETATM   22  C2  UNL     1      43.226  11.087  -3.603  1.00  0.00     0.047 C 
HETATM   23  C1  UNL     1      42.252  12.251  -3.595  1.00  0.00     0.021 C 
HETATM   24  C3  UNL     1      42.633   9.865  -2.928  1.00  0.00     0.021 C 
ENDBRANCH  21  22
ENDBRANCH   1  21
TORSDOF 4
ENDMDL
MODEL 3
REMARK VINA RESULT: -6.535546471      1.287      1.643
REMARK  4 active torsions:
REMARK  status: ('A' for Active; 'I' for Inactive)
REMARK    1  A    between atoms: C2_2  and  S1_4 
REMARK    2  A    between atoms: S1_4  and  C4_5 
REMARK    3  A    between atoms: N2_9  and  C6_11 
REMARK    4  A    between atoms: C6_11  and  C7_12 
ROOT
HETATM    1  C4  UNL     1      47.130   9.533   1.110  1.00  0.00     0.145 A 
HETATM    2  N1  UNL     1      47.308  10.669   1.821  1.00  0.00    -0.323 N 
ATOM      3  H1  UNL     1      48.165  10.771   2.364  1.00  0.00     0.169 HD
HETATM    4  C5  UNL     1      46.417  11.664   1.847  1.00  0.00     0.104 A 
HETATM    5  N2  UNL     1      46.668  12.715   2.554  1.00  0.00    -0.376 N 
ATOM      6  H2  UNL     1      47.545  12.750   3.073  1.00  0.00     0.161 HD
HETATM    7  C12 UNL     1      45.268  11.510   1.112  1.00  0.00     0.065 A 
HETATM    8  C13 UNL     1      45.068  10.351   0.375  1.00  0.00     0.094 A 
HETATM    9  N4  UNL     1      46.011   9.418   0.412  1.00  0.00    -0.347 N 
ATOM     10  H4  UNL     1      45.866   8.565  -0.127  1.00  0.00     0.167 HD
ENDROOT
BRANCH   5  11
HETATM   11  C6  UNL     1      45.774  13.842   2.648  1.00  0.00     0.128 C 
BRANCH  11  12
HETATM   12  C7  UNL     1      46.044  14.675   3.886  1.00  0.00     0.041 C 
HETATM   13  C8  UNL     1      47.443  15.205   3.895  1.00  0.00     0.036 C 
HETATM   14  C9  UNL     1      47.536  16.532   4.648  1.00  0.00     0.233 C 
HETATM   15  N3  UNL     1      46.746  17.544   3.977  1.00  0.00    -0.072 N 
HETATM   16  C10 UNL     1      45.740  16.968   3.115  1.00  0.00     0.269 C 
ATOM     17  H32 UNL     1      46.332  18.193   4.646  1.00  0.00     0.277 HD
ATOM     18  H31 UNL     1      47.340  18.197   3.466  1.00  0.00     0.277 HD
HETATM   19  C11 UNL     1      45.069  15.844   3.881  1.00  0.00     0.201 C 
HETATM   20  F1  UNL     1      44.827  16.204   5.186  1.00  0.00    -0.247 F 
ENDBRANCH  11  12
ENDBRANCH   5  11
BRANCH   1  21
HETATM   21  S1  UNL     1      48.426   8.331   1.197  1.00  0.00    -0.090 SA
BRANCH  21  22
HETATM   22  C2  UNL     1      48.976   7.985   2.866  1.00  0.00     0.047 C 
HETATM   23  C1  UNL     1      50.327   7.293   2.896  1.00  0.00     0.021 C 
HETATM   24  C3  UNL     1      47.949   7.224   3.684  1.00  0.00     0.021 C 
ENDBRANCH  21  22
ENDBRANCH   1  21
TORSDOF 4
ENDMDL
MODEL 4
REMARK VINA RESULT: -6.528501595      1.915      2.494
REMARK  4 active torsions:
REMARK  status: ('A' for Active; 'I' for Inactive)
REMARK    1  A    between atoms: C2_2  and  S1_4 
REMARK    2  A    between atoms: S1_4  and  C4_5 
REMARK    3  A    between atoms: N2_9  and  C6_11 
REMARK    4  A    between atoms: C6_11  and  C7_12 
ROOT
HETATM    1  C4  UNL     1      45.004  10.937  -0.245  1.00  0.00     0.145 A 
HETATM    2  N1  UNL     1      44.936  11.637   0.910  1.00  0.00    -0.323 N 
ATOM      3  H1  UNL     1      45.003  11.127   1.791  1.00  0.00     0.169 HD
HETATM    4  C5  UNL     1      44.785  12.964   0.954  1.00  0.00     0.104 A 
HETATM    5  N2  UNL     1      44.729  13.553   2.103  1.00  0.00    -0.376 N 
ATOM      6  H2  UNL     1      44.802  12.980   2.943  1.00  0.00     0.161 HD
HETATM    7  C12 UNL     1      44.695  13.636  -0.238  1.00  0.00     0.065 A 
HETATM    8  C13 UNL     1      44.764  12.935  -1.435  1.00  0.00     0.094 A 
HETATM    9  N4  UNL     1      44.915  11.617  -1.377  1.00  0.00    -0.347 N 
ATOM     10  H4  UNL     1      44.965  11.099  -2.254  1.00  0.00     0.167 HD
ENDROOT
BRANCH   5  11
HETATM   11  C6  UNL     1      44.569  14.976   2.259  1.00  0.00     0.128 C 
BRANCH  11  12
HETATM   12  C7  UNL     1      45.862  15.648   2.675  1.00  0.00     0.041 C 
HETATM   13  C8  UNL     1      45.617  17.019   3.222  1.00  0.00     0.036 C 
HETATM   14  C9  UNL     1      46.677  17.411   4.252  1.00  0.00     0.233 C 
HETATM   15  N3  UNL     1      46.614  16.524   5.396  1.00  0.00    -0.072 N 
HETATM   16  C10 UNL     1      45.957  15.276   5.083  1.00  0.00     0.269 C 
ATOM     17  H32 UNL     1      47.541  16.365   5.791  1.00  0.00     0.277 HD
ATOM     18  H31 UNL     1      46.175  16.982   6.195  1.00  0.00     0.277 HD
HETATM   19  C11 UNL     1      46.505  14.789   3.755  1.00  0.00     0.201 C 
HETATM   20  F1  UNL     1      47.868  14.962   3.684  1.00  0.00    -0.247 F 
ENDBRANCH  11  12
ENDBRANCH   5  11
BRANCH   1  21
HETATM   21  S1  UNL     1      45.211   9.185  -0.101  1.00  0.00    -0.090 SA
BRANCH  21  22
HETATM   22  C2  UNL     1      46.921   8.673   0.055  1.00  0.00     0.047 C 
HETATM   23  C1  UNL     1      47.209   8.030   1.399  1.00  0.00     0.021 C 
HETATM   24  C3  UNL     1      47.904   9.789  -0.246  1.00  0.00     0.021 C 
ENDBRANCH  21  22
ENDBRANCH   1  21
TORSDOF 4
ENDMDL
MODEL 5
REMARK VINA RESULT: -6.509357189      2.984      3.819
REMARK  4 active torsions:
REMARK  status: ('A' for Active; 'I' for Inactive)
REMARK    1  A    between atoms: C2_2  and  S1_4 
REMARK    2  A    between atoms: S1_4  and  C4_5 
REMARK    3  A    between atoms: N2_9  and  C6_11 
REMARK    4  A    between atoms: C6_11  and  C7_12 
ROOT
HETATM    1  C4  UNL     1      44.596  12.427  -1.546  1.00  0.00     0.145 A 
HETATM    2  N1  UNL     1      44.655  12.644  -0.213  1.00  0.00    -0.323 N 
ATOM      3  H1  UNL     1      44.782  11.843   0.405  1.00  0.00     0.169 HD
HETATM    4  C5  UNL     1      44.554  13.859   0.335  1.00  0.00     0.104 A 
HETATM    5  N2  UNL     1      44.621  13.977   1.620  1.00  0.00    -0.376 N 
ATOM      6  H2  UNL     1      44.749  13.132   2.177  1.00  0.00     0.161 HD
HETATM    7  C12 UNL     1      44.383  14.927  -0.508  1.00  0.00     0.065 A 
HETATM    8  C13 UNL     1      44.321  14.723  -1.880  1.00  0.00     0.094 A 
HETATM    9  N4  UNL     1      44.430  13.479  -2.331  1.00  0.00    -0.347 N 
ATOM     10  H4  UNL     1      44.384  13.326  -3.338  1.00  0.00     0.167 HD
ENDROOT
BRANCH   5  11
HETATM   11  C6  UNL     1      44.525  15.239   2.309  1.00  0.00     0.128 C 
BRANCH  11  12
HETATM   12  C7  UNL     1      45.886  15.760   2.726  1.00  0.00     0.041 C 
HETATM   13  C8  UNL     1      45.792  17.135   3.309  1.00  0.00     0.036 C 
HETATM   14  C9  UNL     1      46.896  17.387   4.336  1.00  0.00     0.233 C 
HETATM   15  N3  UNL     1      46.749  16.482   5.460  1.00  0.00    -0.072 N 
HETATM   16  C10 UNL     1      45.961  15.319   5.123  1.00  0.00     0.269 C 
ATOM     17  H32 UNL     1      47.657  16.216   5.840  1.00  0.00     0.277 HD
ATOM     18  H31 UNL     1      46.367  16.964   6.274  1.00  0.00     0.277 HD
HETATM   19  C11 UNL     1      46.443  14.811   3.779  1.00  0.00     0.201 C 
HETATM   20  F1  UNL     1      47.816  14.840   3.697  1.00  0.00    -0.247 F 
ENDBRANCH  11  12
ENDBRANCH   5  11
BRANCH   1  21
HETATM   21  S1  UNL     1      44.754  10.747  -2.083  1.00  0.00    -0.090 SA
BRANCH  21  22
HETATM   22  C2  UNL     1      44.125   9.553  -0.905  1.00  0.00     0.047 C 
HETATM   23  C1  UNL     1      45.236   8.867  -0.132  1.00  0.00     0.021 C 
HETATM   24  C3  UNL     1      43.181   8.542  -1.530  1.00  0.00     0.021 C 
ENDBRANCH  21  22
ENDBRANCH   1  21
TORSDOF 4
ENDMDL
