MODEL 1
REMARK VINA RESULT: -6.993474490      0.000      0.000
REMARK  4 active torsions:
REMARK  status: ('A' for Active; 'I' for Inactive)
REMARK    1  A    between atoms: C3_3  and  C4_4 
REMARK    2  A    between atoms: C6_6  and  N1_7 
REMARK    3  A    between atoms: N1_7  and  C7_9 
REMARK    4  A    between atoms: C7_9  and  C8_10 
ROOT
HETATM    1  C4  UNL     1      45.172  11.535   0.849  1.00  0.00     0.028 C 
HETATM    2  C5  UNL     1      46.675  11.495   1.171  1.00  0.00     0.034 C 
HETATM    3  C6  UNL     1      46.188  12.247   2.441  1.00  0.00     0.077 C 
HETATM    4  C12 UNL     1      45.276  12.960   1.435  1.00  0.00     0.034 C 
ENDROOT
BRANCH   3   5
HETATM    5  N1  UNL     1      47.094  12.927   3.207  1.00  0.00    -0.417 N 
ATOM      6  H1  UNL     1      48.083  12.716   3.082  1.00  0.00     0.153 HD
BRANCH   5   7
HETATM    7  C7  UNL     1      46.739  13.902   4.159  1.00  0.00     0.120 C 
BRANCH   7   8
HETATM    8  C8  UNL     1      46.930  15.289   3.539  1.00  0.00     0.030 C 
HETATM    9  C9  UNL     1      48.149  15.960   4.176  1.00  0.00     0.035 C 
HETATM   10  C10 UNL     1      47.494  17.104   4.924  1.00  0.00     0.232 C 
HETATM   11  N2  UNL     1      46.436  17.494   3.995  1.00  0.00    -0.075 N 
HETATM   12  C11 UNL     1      45.781  16.204   3.775  1.00  0.00     0.238 C 
ATOM     13  H22 UNL     1      45.827  18.248   4.312  1.00  0.00     0.277 HD
ATOM     14  H21 UNL     1      46.745  17.981   3.154  1.00  0.00     0.277 HD
ENDBRANCH   7   8
ENDBRANCH   5   7
ENDBRANCH   3   5
BRANCH   1  15
HETATM   15  C3  UNL     1      44.733  11.362  -0.492  1.00  0.00     0.010 A 
HETATM   16  C2  UNL     1      44.331  10.101  -0.987  1.00  0.00     0.034 A 
HETATM   17  C1  UNL     1      44.307   8.815  -0.225  1.00  0.00     0.070 C 
HETATM   18  N4  UNL     1      43.973  10.203  -2.253  1.00  0.00    -0.299 N 
HETATM   19  N3  UNL     1      44.123  11.477  -2.610  1.00  0.00    -0.287 N 
HETATM   20  C14 UNL     1      43.492   9.188  -3.180  1.00  0.00     0.177 C 
HETATM   21  C13 UNL     1      44.586  12.199  -1.550  1.00  0.00     0.126 A 
ATOM     22  H3  UNL     1      43.922  11.855  -3.536  1.00  0.00     0.188 HD
HETATM   23 CL1  UNL     1      44.936  13.899  -1.553  1.00  0.00    -0.062 Cl
ENDBRANCH   1  15
TORSDOF 4
ENDMDL
MODEL 2
REMARK VINA RESULT: -6.944496082      1.446      2.118
REMARK  4 active torsions:
REMARK  status: ('A' for Active; 'I' for Inactive)
REMARK    1  A    between atoms: C3_3  and  C4_4 
REMARK    2  A    between atoms: C6_6  and  N1_7 
REMARK    3  A    between atoms: N1_7  and  C7_9 
REMARK    4  A    between atoms: C7_9  and  C8_10 
ROOT
HETATM    1  C4  UNL     1      45.423  12.408   0.358  1.00  0.00     0.028 C 
HETATM    2  C5  UNL     1      44.809  12.361   1.766  1.00  0.00     0.034 C 
HETATM    3  C6  UNL     1      46.245  12.806   2.158  1.00  0.00     0.077 C 
HETATM    4  C12 UNL     1      46.646  11.797   1.075  1.00  0.00     0.034 C 
ENDROOT
BRANCH   3   5
HETATM    5  N1  UNL     1      46.657  12.679   3.455  1.00  0.00    -0.417 N 
ATOM      6  H1  UNL     1      46.969  11.762   3.772  1.00  0.00     0.153 HD
BRANCH   5   7
HETATM    7  C7  UNL     1      46.674  13.741   4.379  1.00  0.00     0.120 C 
BRANCH   7   8
HETATM    8  C8  UNL     1      46.740  15.063   3.610  1.00  0.00     0.030 C 
HETATM    9  C9  UNL     1      47.989  15.834   4.043  1.00  0.00     0.035 C 
HETATM   10  C10 UNL     1      47.367  17.027   4.742  1.00  0.00     0.232 C 
HETATM   11  N2  UNL     1      46.202  17.286   3.900  1.00  0.00    -0.075 N 
HETATM   12  C11 UNL     1      45.584  15.960   3.879  1.00  0.00     0.238 C 
ATOM     13  H22 UNL     1      45.598  18.049   4.205  1.00  0.00     0.277 HD
ATOM     14  H21 UNL     1      46.401  17.694   2.986  1.00  0.00     0.277 HD
ENDBRANCH   7   8
ENDBRANCH   5   7
ENDBRANCH   3   5
BRANCH   1  15
HETATM   15  C3  UNL     1      44.808  11.694  -0.706  1.00  0.00     0.010 A 
HETATM   16  C2  UNL     1      44.350  12.345  -1.873  1.00  0.00     0.034 A 
HETATM   17  C1  UNL     1      44.431  13.809  -2.163  1.00  0.00     0.070 C 
HETATM   18  N4  UNL     1      43.817  11.469  -2.704  1.00  0.00    -0.299 N 
HETATM   19  N3  UNL     1      43.905  10.270  -2.130  1.00  0.00    -0.287 N 
HETATM   20  C14 UNL     1      43.217  11.658  -4.017  1.00  0.00     0.177 C 
HETATM   21  C13 UNL     1      44.506  10.387  -0.912  1.00  0.00     0.126 A 
ATOM     22  H3  UNL     1      43.573   9.396  -2.540  1.00  0.00     0.188 HD
HETATM   23 CL1  UNL     1      44.824   9.088   0.194  1.00  0.00    -0.062 Cl
ENDBRANCH   1  15
TORSDOF 4
ENDMDL
MODEL 3
REMARK VINA RESULT: -6.750340219      1.732      7.382
REMARK  4 active torsions:
REMARK  status: ('A' for Active; 'I' for Inactive)
REMARK    1  A    between atoms: C3_3  and  C4_4 
REMARK    2  A    between atoms: C6_6  and  N1_7 
REMARK    3  A    between atoms: N1_7  and  C7_9 
REMARK    4  A    between atoms: C7_9  and  C8_10 
ROOT
HETATM    1  C4  UNL     1      44.901  13.620   1.998  1.00  0.00     0.028 C 
HETATM    2  C5  UNL     1      44.658  13.366   0.502  1.00  0.00     0.034 C 
HETATM    3  C6  UNL     1      44.827  11.890   0.960  1.00  0.00     0.077 C 
HETATM    4  C12 UNL     1      45.940  12.490   1.830  1.00  0.00     0.034 C 
ENDROOT
BRANCH   3   5
HETATM    5  N1  UNL     1      45.079  10.922   0.029  1.00  0.00    -0.417 N 
ATOM      6  H1  UNL     1      45.719  11.143  -0.733  1.00  0.00     0.153 HD
BRANCH   5   7
HETATM    7  C7  UNL     1      44.504   9.637   0.060  1.00  0.00     0.120 C 
BRANCH   7   8
HETATM    8  C8  UNL     1      44.313   9.147  -1.378  1.00  0.00     0.030 C 
HETATM    9  C9  UNL     1      44.451  10.333  -2.335  1.00  0.00     0.035 C 
HETATM   10  C10 UNL     1      43.039  10.435  -2.877  1.00  0.00     0.232 C 
HETATM   11  N2  UNL     1      42.662   9.028  -2.983  1.00  0.00    -0.075 N 
HETATM   12  C11 UNL     1      42.967   8.565  -1.629  1.00  0.00     0.238 C 
ATOM     13  H22 UNL     1      41.711   8.849  -3.306  1.00  0.00     0.277 HD
ATOM     14  H21 UNL     1      43.109   8.508  -3.738  1.00  0.00     0.277 HD
ENDBRANCH   7   8
ENDBRANCH   5   7
ENDBRANCH   3   5
BRANCH   1  15
HETATM   15  C3  UNL     1      45.329  14.903   2.436  1.00  0.00     0.010 A 
HETATM   16  C2  UNL     1      46.206  15.061   3.533  1.00  0.00     0.034 A 
HETATM   17  C1  UNL     1      46.791  13.967   4.366  1.00  0.00     0.070 C 
HETATM   18  N4  UNL     1      46.447  16.341   3.741  1.00  0.00    -0.299 N 
HETATM   19  N3  UNL     1      45.765  17.031   2.828  1.00  0.00    -0.287 N 
HETATM   20  C14 UNL     1      47.278  16.993   4.743  1.00  0.00     0.177 C 
HETATM   21  C13 UNL     1      45.077  16.171   2.024  1.00  0.00     0.126 A 
ATOM     22  H3  UNL     1      45.759  18.047   2.742  1.00  0.00     0.188 HD
HETATM   23 CL1  UNL     1      44.047  16.620   0.701  1.00  0.00    -0.062 Cl
ENDBRANCH   1  15
TORSDOF 4
ENDMDL
MODEL 4
REMARK VINA RESULT: -6.693179951      2.126      2.803
REMARK  4 active torsions:
REMARK  status: ('A' for Active; 'I' for Inactive)
REMARK    1  A    between atoms: C3_3  and  C4_4 
REMARK    2  A    between atoms: C6_6  and  N1_7 
REMARK    3  A    between atoms: N1_7  and  C7_9 
REMARK    4  A    between atoms: C7_9  and  C8_10 
ROOT
HETATM    1  C4  UNL     1      44.896  11.503   0.804  1.00  0.00     0.028 C 
HETATM    2  C5  UNL     1      45.806  12.349   1.709  1.00  0.00     0.034 C 
HETATM    3  C6  UNL     1      44.685  13.397   1.468  1.00  0.00     0.077 C 
HETATM    4  C12 UNL     1      44.732  12.836   0.042  1.00  0.00     0.034 C 
ENDROOT
BRANCH   3   5
HETATM    5  N1  UNL     1      44.929  14.716   1.737  1.00  0.00    -0.417 N 
ATOM      6  H1  UNL     1      45.633  15.197   1.178  1.00  0.00     0.153 HD
BRANCH   5   7
HETATM    7  C7  UNL     1      44.264  15.447   2.739  1.00  0.00     0.120 C 
BRANCH   7   8
HETATM    8  C8  UNL     1      45.258  16.417   3.384  1.00  0.00     0.030 C 
HETATM    9  C9  UNL     1      46.677  15.871   3.210  1.00  0.00     0.035 C 
HETATM   10  C10 UNL     1      47.048  15.565   4.648  1.00  0.00     0.232 C 
HETATM   11  N2  UNL     1      46.422  16.678   5.356  1.00  0.00    -0.075 N 
HETATM   12  C11 UNL     1      45.053  16.586   4.847  1.00  0.00     0.238 C 
ATOM     13  H22 UNL     1      46.516  16.663   6.372  1.00  0.00     0.277 HD
ATOM     14  H21 UNL     1      46.875  17.585   5.241  1.00  0.00     0.277 HD
ENDBRANCH   7   8
ENDBRANCH   5   7
ENDBRANCH   3   5
BRANCH   1  15
HETATM   15  C3  UNL     1      45.428  10.372   0.126  1.00  0.00     0.010 A 
HETATM   16  C2  UNL     1      46.538   9.657   0.629  1.00  0.00     0.034 A 
HETATM   17  C1  UNL     1      47.294   9.958   1.883  1.00  0.00     0.070 C 
HETATM   18  N4  UNL     1      46.840   8.659  -0.179  1.00  0.00    -0.299 N 
HETATM   19  N3  UNL     1      45.975   8.688  -1.191  1.00  0.00    -0.287 N 
HETATM   20  C14 UNL     1      47.892   7.656  -0.086  1.00  0.00     0.177 C 
HETATM   21  C13 UNL     1      45.107   9.726  -1.023  1.00  0.00     0.126 A 
ATOM     22  H3  UNL     1      45.963   8.033  -1.973  1.00  0.00     0.188 HD
HETATM   23 CL1  UNL     1      43.814  10.154  -2.098  1.00  0.00    -0.062 Cl
ENDBRANCH   1  15
TORSDOF 4
ENDMDL
MODEL 5
REMARK VINA RESULT: -6.639331321      1.961      2.438
REMARK  4 active torsions:
REMARK  status: ('A' for Active; 'I' for Inactive)
REMARK    1  A    between atoms: C3_3  and  C4_4 
REMARK    2  A    between atoms: C6_6  and  N1_7 
REMARK    3  A    between atoms: N1_7  and  C7_9 
REMARK    4  A    between atoms: C7_9  and  C8_10 
ROOT
HETATM    1  C4  UNL     1      44.644  11.489   0.206  1.00  0.00     0.028 C 
HETATM    2  C5  UNL     1      45.443  11.741   1.495  1.00  0.00     0.034 C 
HETATM    3  C6  UNL     1      44.741  13.123   1.388  1.00  0.00     0.077 C 
HETATM    4  C12 UNL     1      45.046  12.947  -0.105  1.00  0.00     0.034 C 
ENDROOT
BRANCH   3   5
HETATM    5  N1  UNL     1      45.225  14.180   2.106  1.00  0.00    -0.417 N 
ATOM      6  H1  UNL     1      46.232  14.244   2.248  1.00  0.00     0.153 HD
BRANCH   5   7
HETATM    7  C7  UNL     1      44.413  15.187   2.663  1.00  0.00     0.120 C 
BRANCH   7   8
HETATM    8  C8  UNL     1      45.311  16.260   3.283  1.00  0.00     0.030 C 
HETATM    9  C9  UNL     1      46.755  15.754   3.305  1.00  0.00     0.035 C 
HETATM   10  C10 UNL     1      46.994  15.624   4.797  1.00  0.00     0.232 C 
HETATM   11  N2  UNL     1      46.271  16.783   5.312  1.00  0.00    -0.075 N 
HETATM   12  C11 UNL     1      44.961  16.581   4.692  1.00  0.00     0.238 C 
ATOM     13  H22 UNL     1      46.267  16.884   6.327  1.00  0.00     0.277 HD
ATOM     14  H21 UNL     1      46.707  17.688   5.137  1.00  0.00     0.277 HD
ENDBRANCH   7   8
ENDBRANCH   5   7
ENDBRANCH   3   5
BRANCH   1  15
HETATM   15  C3  UNL     1      45.040  10.450  -0.679  1.00  0.00     0.010 A 
HETATM   16  C2  UNL     1      44.572  10.387  -2.010  1.00  0.00     0.034 A 
HETATM   17  C1  UNL     1      43.633  11.347  -2.668  1.00  0.00     0.070 C 
HETATM   18  N4  UNL     1      45.079   9.334  -2.622  1.00  0.00    -0.299 N 
HETATM   19  N3  UNL     1      45.861   8.703  -1.748  1.00  0.00    -0.287 N 
HETATM   20  C14 UNL     1      44.893   8.854  -3.984  1.00  0.00     0.177 C 
HETATM   21  C13 UNL     1      45.850   9.368  -0.558  1.00  0.00     0.126 A 
ATOM     22  H3  UNL     1      46.389   7.851  -1.940  1.00  0.00     0.188 HD
HETATM   23 CL1  UNL     1      46.716   8.906   0.873  1.00  0.00    -0.062 Cl
ENDBRANCH   1  15
TORSDOF 4
ENDMDL
