MODEL 1
REMARK VINA RESULT: -6.915163101      0.000      0.000
REMARK  4 active torsions:
REMARK  status: ('A' for Active; 'I' for Inactive)
REMARK    1  A    between atoms: C6_7  and  C7_8 
REMARK    2  A    between atoms: C7_8  and  N1_9 
REMARK    3  A    between atoms: N1_9  and  C8_12 
REMARK    4  A    between atoms: C8_12  and  C9_13 
ROOT
HETATM    1  C9  UNL     1      45.956  12.206   0.405  1.00  0.00     0.154 C 
HETATM    2  C10 UNL     1      45.976  11.180   1.605  1.00  0.00     0.102 C 
HETATM    3  C11 UNL     1      46.990  10.163   1.229  1.00  0.00     0.230 C 
HETATM    4  C12 UNL     1      47.680   9.472   2.365  1.00  0.00     0.070 C 
HETATM    5  C13 UNL     1      48.466   8.409   1.603  1.00  0.00     0.032 C 
HETATM    6  C14 UNL     1      47.482   8.024   0.542  1.00  0.00     0.236 C 
HETATM    7  N2  UNL     1      46.471   9.061   0.476  1.00  0.00    -0.043 N 
ATOM      8  H21 UNL     1      46.202   9.309  -0.476  1.00  0.00     0.280 HD
ATOM      9  H22 UNL     1      45.549   8.752   0.788  1.00  0.00     0.280 HD
HETATM   10  O1  UNL     1      47.967  10.804   0.433  1.00  0.00    -0.329 OA
HETATM   11  C15 UNL     1      47.428  11.033  -0.836  1.00  0.00     0.341 C 
HETATM   12  O2  UNL     1      46.044  11.299  -0.678  1.00  0.00    -0.360 OA
ENDROOT
BRANCH   1  13
HETATM   13  C8  UNL     1      44.617  12.927   0.415  1.00  0.00     0.264 C 
BRANCH  13  14
HETATM   14  N1  UNL     1      44.817  14.301   0.753  1.00  0.00    -0.069 N 
ATOM     15  H12 UNL     1      44.421  14.913   0.039  1.00  0.00     0.277 HD
ATOM     16  H11 UNL     1      45.799  14.559   0.666  1.00  0.00     0.277 HD
BRANCH  14  17
HETATM   17  C7  UNL     1      44.318  14.628   2.036  1.00  0.00     0.274 C 
BRANCH  17  18
HETATM   18  C6  UNL     1      45.394  15.284   2.891  1.00  0.00     0.006 A 
HETATM   19  C1  UNL     1      45.570  16.624   2.957  1.00  0.00     0.124 A 
HETATM   20  F1  UNL     1      44.739  17.444   2.342  1.00  0.00    -0.206 F 
HETATM   21  C2  UNL     1      46.711  17.186   3.535  1.00  0.00     0.043 A 
HETATM   22  C3  UNL     1      47.702  16.343   4.042  1.00  0.00     0.003 A 
HETATM   23  C4  UNL     1      47.510  14.944   3.990  1.00  0.00     0.001 A 
HETATM   24  C5  UNL     1      46.388  14.440   3.452  1.00  0.00     0.012 A 
ENDBRANCH  17  18
ENDBRANCH  14  17
ENDBRANCH  13  14
ENDBRANCH   1  13
TORSDOF 4
ENDMDL
MODEL 2
REMARK VINA RESULT: -6.872822006      1.120      1.546
REMARK  4 active torsions:
REMARK  status: ('A' for Active; 'I' for Inactive)
REMARK    1  A    between atoms: C6_7  and  C7_8 
REMARK    2  A    between atoms: C7_8  and  N1_9 
REMARK    3  A    between atoms: N1_9  and  C8_12 
REMARK    4  A    between atoms: C8_12  and  C9_13 
ROOT
HETATM    1  C9  UNL     1      46.017  12.120   0.541  1.00  0.00     0.154 C 
HETATM    2  C10 UNL     1      46.028  10.995   1.650  1.00  0.00     0.102 C 
HETATM    3  C11 UNL     1      47.097  10.052   1.235  1.00  0.00     0.230 C 
HETATM    4  C12 UNL     1      47.766   9.291   2.338  1.00  0.00     0.070 C 
HETATM    5  C13 UNL     1      48.625   8.328   1.525  1.00  0.00     0.032 C 
HETATM    6  C14 UNL     1      47.704   8.001   0.391  1.00  0.00     0.236 C 
HETATM    7  N2  UNL     1      46.654   9.002   0.369  1.00  0.00    -0.043 N 
ATOM      8  H21 UNL     1      46.416   9.321  -0.570  1.00  0.00     0.280 HD
ATOM      9  H22 UNL     1      45.734   8.634   0.611  1.00  0.00     0.280 HD
HETATM   10  O1  UNL     1      48.080  10.795   0.541  1.00  0.00    -0.329 OA
HETATM   11  C15 UNL     1      47.585  11.114  -0.727  1.00  0.00     0.341 C 
HETATM   12  O2  UNL     1      46.187  11.314  -0.610  1.00  0.00    -0.360 OA
ENDROOT
BRANCH   1  13
HETATM   13  C8  UNL     1      44.651  12.788   0.552  1.00  0.00     0.264 C 
BRANCH  13  14
HETATM   14  N1  UNL     1      44.795  14.166   0.897  1.00  0.00    -0.069 N 
ATOM     15  H12 UNL     1      44.181  14.751   0.330  1.00  0.00     0.277 HD
ATOM     16  H11 UNL     1      45.698  14.527   0.590  1.00  0.00     0.277 HD
BRANCH  14  17
HETATM   17  C7  UNL     1      44.595  14.411   2.276  1.00  0.00     0.274 C 
BRANCH  17  18
HETATM   18  C6  UNL     1      45.763  15.186   2.870  1.00  0.00     0.006 A 
HETATM   19  C1  UNL     1      46.768  14.597   3.559  1.00  0.00     0.124 A 
HETATM   20  F1  UNL     1      46.831  13.284   3.668  1.00  0.00    -0.206 F 
HETATM   21  C2  UNL     1      47.681  15.344   4.308  1.00  0.00     0.043 A 
HETATM   22  C3  UNL     1      47.541  16.733   4.361  1.00  0.00     0.003 A 
HETATM   23  C4  UNL     1      46.504  17.351   3.627  1.00  0.00     0.001 A 
HETATM   24  C5  UNL     1      45.662  16.602   2.896  1.00  0.00     0.012 A 
ENDBRANCH  17  18
ENDBRANCH  14  17
ENDBRANCH  13  14
ENDBRANCH   1  13
TORSDOF 4
ENDMDL
MODEL 3
REMARK VINA RESULT: -6.811526221      2.220      3.288
REMARK  4 active torsions:
REMARK  status: ('A' for Active; 'I' for Inactive)
REMARK    1  A    between atoms: C6_7  and  C7_8 
REMARK    2  A    between atoms: C7_8  and  N1_9 
REMARK    3  A    between atoms: N1_9  and  C8_12 
REMARK    4  A    between atoms: C8_12  and  C9_13 
ROOT
HETATM    1  C9  UNL     1      46.739  10.486   0.640  1.00  0.00     0.154 C 
HETATM    2  C10 UNL     1      45.201  10.168   0.481  1.00  0.00     0.102 C 
HETATM    3  C11 UNL     1      44.906  10.385  -0.958  1.00  0.00     0.230 C 
HETATM    4  C12 UNL     1      43.775   9.585  -1.525  1.00  0.00     0.070 C 
HETATM    5  C13 UNL     1      43.664  10.210  -2.912  1.00  0.00     0.032 C 
HETATM    6  C14 UNL     1      43.918  11.653  -2.603  1.00  0.00     0.236 C 
HETATM    7  N2  UNL     1      44.523  11.725  -1.287  1.00  0.00    -0.043 N 
ATOM      8  H21 UNL     1      45.289  12.395  -1.226  1.00  0.00     0.280 HD
ATOM      9  H22 UNL     1      43.923  12.162  -0.586  1.00  0.00     0.280 HD
HETATM   10  O1  UNL     1      46.079  10.083  -1.687  1.00  0.00    -0.329 OA
HETATM   11  C15 UNL     1      46.996  11.124  -1.507  1.00  0.00     0.341 C 
HETATM   12  O2  UNL     1      46.828  11.627  -0.192  1.00  0.00    -0.360 OA
ENDROOT
BRANCH   1  13
HETATM   13  C8  UNL     1      47.006  10.840   2.094  1.00  0.00     0.264 C 
BRANCH  13  14
HETATM   14  N1  UNL     1      47.109  12.258   2.230  1.00  0.00    -0.069 N 
ATOM     15  H12 UNL     1      46.602  12.734   1.483  1.00  0.00     0.277 HD
ATOM     16  H11 UNL     1      48.054  12.577   2.018  1.00  0.00     0.277 HD
BRANCH  14  17
HETATM   17  C7  UNL     1      46.692  12.720   3.501  1.00  0.00     0.274 C 
BRANCH  17  18
HETATM   18  C6  UNL     1      46.464  14.225   3.489  1.00  0.00     0.006 A 
HETATM   19  C1  UNL     1      45.471  14.818   2.787  1.00  0.00     0.124 A 
HETATM   20  F1  UNL     1      44.577  14.092   2.142  1.00  0.00    -0.206 F 
HETATM   21  C2  UNL     1      45.438  16.199   2.584  1.00  0.00     0.043 A 
HETATM   22  C3  UNL     1      46.467  16.987   3.105  1.00  0.00     0.003 A 
HETATM   23  C4  UNL     1      47.495  16.372   3.855  1.00  0.00     0.001 A 
HETATM   24  C5  UNL     1      47.478  15.044   4.053  1.00  0.00     0.012 A 
ENDBRANCH  17  18
ENDBRANCH  14  17
ENDBRANCH  13  14
ENDBRANCH   1  13
TORSDOF 4
ENDMDL
MODEL 4
REMARK VINA RESULT: -6.759739715      1.155      1.497
REMARK  4 active torsions:
REMARK  status: ('A' for Active; 'I' for Inactive)
REMARK    1  A    between atoms: C6_7  and  C7_8 
REMARK    2  A    between atoms: C7_8  and  N1_9 
REMARK    3  A    between atoms: N1_9  and  C8_12 
REMARK    4  A    between atoms: C8_12  and  C9_13 
ROOT
HETATM    1  C9  UNL     1      45.078  11.820  -0.338  1.00  0.00     0.154 C 
HETATM    2  C10 UNL     1      46.638  11.607  -0.225  1.00  0.00     0.102 C 
HETATM    3  C11 UNL     1      46.818  10.144  -0.048  1.00  0.00     0.230 C 
HETATM    4  C12 UNL     1      48.112   9.576  -0.543  1.00  0.00     0.070 C 
HETATM    5  C13 UNL     1      48.002   8.147  -0.023  1.00  0.00     0.032 C 
HETATM    6  C14 UNL     1      47.360   8.370   1.311  1.00  0.00     0.236 C 
HETATM    7  N2  UNL     1      46.798   9.707   1.315  1.00  0.00    -0.043 N 
ATOM      8  H21 UNL     1      45.875   9.760   1.747  1.00  0.00     0.280 HD
ATOM      9  H22 UNL     1      47.270  10.346   1.956  1.00  0.00     0.280 HD
HETATM   10  O1  UNL     1      45.757   9.496  -0.722  1.00  0.00    -0.329 OA
HETATM   11  C15 UNL     1      44.590   9.651   0.032  1.00  0.00     0.341 C 
HETATM   12  O2  UNL     1      44.646  10.919   0.664  1.00  0.00    -0.360 OA
ENDROOT
BRANCH   1  13
HETATM   13  C8  UNL     1      44.764  13.259   0.041  1.00  0.00     0.264 C 
BRANCH  13  14
HETATM   14  N1  UNL     1      44.776  13.392   1.463  1.00  0.00    -0.069 N 
ATOM     15  H12 UNL     1      45.691  13.149   1.845  1.00  0.00     0.277 HD
ATOM     16  H11 UNL     1      44.214  12.664   1.903  1.00  0.00     0.277 HD
BRANCH  14  17
HETATM   17  C7  UNL     1      44.371  14.677   1.898  1.00  0.00     0.274 C 
BRANCH  17  18
HETATM   18  C6  UNL     1      45.412  15.297   2.819  1.00  0.00     0.006 A 
HETATM   19  C1  UNL     1      45.568  16.634   2.964  1.00  0.00     0.124 A 
HETATM   20  F1  UNL     1      44.743  17.477   2.371  1.00  0.00    -0.206 F 
HETATM   21  C2  UNL     1      46.683  17.177   3.605  1.00  0.00     0.043 A 
HETATM   22  C3  UNL     1      47.672  16.320   4.094  1.00  0.00     0.003 A 
HETATM   23  C4  UNL     1      47.501  14.924   3.960  1.00  0.00     0.001 A 
HETATM   24  C5  UNL     1      46.402  14.436   3.362  1.00  0.00     0.012 A 
ENDBRANCH  17  18
ENDBRANCH  14  17
ENDBRANCH  13  14
ENDBRANCH   1  13
TORSDOF 4
ENDMDL
MODEL 5
REMARK VINA RESULT: -6.745607981      2.145      3.447
REMARK  4 active torsions:
REMARK  status: ('A' for Active; 'I' for Inactive)
REMARK    1  A    between atoms: C6_7  and  C7_8 
REMARK    2  A    between atoms: C7_8  and  N1_9 
REMARK    3  A    between atoms: N1_9  and  C8_12 
REMARK    4  A    between atoms: C8_12  and  C9_13 
ROOT
HETATM    1  C9  UNL     1      45.831  10.614   1.040  1.00  0.00     0.154 C 
HETATM    2  C10 UNL     1      45.778  11.850   0.060  1.00  0.00     0.102 C 
HETATM    3  C11 UNL     1      45.098  11.348  -1.161  1.00  0.00     0.230 C 
HETATM    4  C12 UNL     1      44.348  12.368  -1.962  1.00  0.00     0.070 C 
HETATM    5  C13 UNL     1      43.976  11.537  -3.186  1.00  0.00     0.032 C 
HETATM    6  C14 UNL     1      45.216  10.717  -3.370  1.00  0.00     0.236 C 
HETATM    7  N2  UNL     1      45.980  10.786  -2.139  1.00  0.00    -0.043 N 
ATOM      8  H21 UNL     1      46.382   9.891  -1.859  1.00  0.00     0.280 HD
ATOM      9  H22 UNL     1      46.861  11.292  -2.234  1.00  0.00     0.280 HD
HETATM   10  O1  UNL     1      44.195  10.336  -0.765  1.00  0.00    -0.329 OA
HETATM   11  C15 UNL     1      44.925   9.186  -0.450  1.00  0.00     0.341 C 
HETATM   12  O2  UNL     1      46.159   9.595   0.113  1.00  0.00    -0.360 OA
ENDROOT
BRANCH   1  13
HETATM   13  C8  UNL     1      46.959  10.841   2.035  1.00  0.00     0.264 C 
BRANCH  13  14
HETATM   14  N1  UNL     1      47.149  12.243   2.229  1.00  0.00    -0.069 N 
ATOM     15  H12 UNL     1      46.738  12.777   1.463  1.00  0.00     0.277 HD
ATOM     16  H11 UNL     1      48.128  12.500   2.104  1.00  0.00     0.277 HD
BRANCH  14  17
HETATM   17  C7  UNL     1      46.663  12.695   3.479  1.00  0.00     0.274 C 
BRANCH  17  18
HETATM   18  C6  UNL     1      46.452  14.203   3.473  1.00  0.00     0.006 A 
HETATM   19  C1  UNL     1      45.449  14.806   2.794  1.00  0.00     0.124 A 
HETATM   20  F1  UNL     1      44.532  14.091   2.170  1.00  0.00    -0.206 F 
HETATM   21  C2  UNL     1      45.427  16.188   2.592  1.00  0.00     0.043 A 
HETATM   22  C3  UNL     1      46.477  16.965   3.089  1.00  0.00     0.003 A 
HETATM   23  C4  UNL     1      47.515  16.338   3.813  1.00  0.00     0.001 A 
HETATM   24  C5  UNL     1      47.488  15.010   4.012  1.00  0.00     0.012 A 
ENDBRANCH  17  18
ENDBRANCH  14  17
ENDBRANCH  13  14
ENDBRANCH   1  13
TORSDOF 4
ENDMDL
