MODEL 1
REMARK VINA RESULT: -6.114250980      0.000      0.000
REMARK  5 active torsions:
REMARK  status: ('A' for Active; 'I' for Inactive)
REMARK    1  A    between atoms: C2_2  and  N1_3 
REMARK    2  A    between atoms: C2_2  and  C7_10 
REMARK    3  A    between atoms: N1_3  and  C3_5 
REMARK    4  A    between atoms: C7_10  and  O2_11 
REMARK    5  A    between atoms: C7_10  and  C9_15 
ROOT
HETATM    1  C7  UNL     1      44.917  13.785   1.847  1.00  0.00     0.194 C 
HETATM    2  C8  UNL     1      44.048  14.775   2.473  1.00  0.00     0.105 C 
HETATM    3  N2  UNL     1      43.353  15.573   2.953  1.00  0.00    -0.194 NA
ENDROOT
BRANCH   1   4
HETATM    4  C2  UNL     1      46.326  13.863   2.417  1.00  0.00     0.127 C 
HETATM    5  C1  UNL     1      46.550  12.439   2.998  1.00  0.00     0.036 C 
BRANCH   4   6
HETATM    6  N1  UNL     1      46.593  14.738   3.433  1.00  0.00    -0.407 N 
ATOM      7  H1  UNL     1      46.102  14.545   4.306  1.00  0.00     0.154 HD
BRANCH   6   8
HETATM    8  C3  UNL     1      47.416  15.835   3.465  1.00  0.00     0.103 C 
HETATM    9  C4  UNL     1      48.027  16.300   4.742  1.00  0.00     0.053 C 
HETATM   10  C5  UNL     1      46.937  17.130   5.385  1.00  0.00     0.169 C 
HETATM   11  O1  UNL     1      45.978  17.364   4.432  1.00  0.00    -0.389 OA
HETATM   12  C6  UNL     1      46.506  17.072   3.187  1.00  0.00     0.192 C 
ENDBRANCH   6   8
ENDBRANCH   4   6
ENDBRANCH   1   4
BRANCH   1  13
HETATM   13  O2  UNL     1      44.424  12.451   2.074  1.00  0.00    -0.370 OA
ATOM     14  H2  UNL     1      43.584  12.522   2.514  1.00  0.00     0.212 HD
ENDBRANCH   1  13
BRANCH   1  15
HETATM   15  C9  UNL     1      44.853  13.895   0.376  1.00  0.00    -0.006 A 
HETATM   16  C10 UNL     1      45.251  12.844  -0.404  1.00  0.00     0.011 A 
HETATM   17  C11 UNL     1      45.222  12.926  -1.803  1.00  0.00     0.002 A 
HETATM   18  C12 UNL     1      44.788  14.079  -2.397  1.00  0.00     0.024 A 
HETATM   19  C13 UNL     1      44.381  15.156  -1.620  1.00  0.00     0.034 A 
HETATM   20 CL1  UNL     1      43.833  16.619  -2.415  1.00  0.00    -0.084 Cl
HETATM   21  C14 UNL     1      44.419  15.045  -0.235  1.00  0.00     0.035 A 
ENDBRANCH   1  15
TORSDOF 5
ENDMDL
MODEL 2
REMARK VINA RESULT: -5.968336570      1.264      1.668
REMARK  5 active torsions:
REMARK  status: ('A' for Active; 'I' for Inactive)
REMARK    1  A    between atoms: C2_2  and  N1_3 
REMARK    2  A    between atoms: C2_2  and  C7_10 
REMARK    3  A    between atoms: N1_3  and  C3_5 
REMARK    4  A    between atoms: C7_10  and  O2_11 
REMARK    5  A    between atoms: C7_10  and  C9_15 
ROOT
HETATM    1  C7  UNL     1      44.935  13.746   1.866  1.00  0.00     0.194 C 
HETATM    2  C8  UNL     1      44.060  14.753   2.456  1.00  0.00     0.105 C 
HETATM    3  N2  UNL     1      43.361  15.564   2.908  1.00  0.00    -0.194 NA
ENDROOT
BRANCH   1   4
HETATM    4  C2  UNL     1      46.340  13.844   2.440  1.00  0.00     0.127 C 
HETATM    5  C1  UNL     1      46.575  12.430   3.040  1.00  0.00     0.036 C 
BRANCH   4   6
HETATM    6  N1  UNL     1      46.595  14.735   3.446  1.00  0.00    -0.407 N 
ATOM      7  H1  UNL     1      46.090  14.556   4.315  1.00  0.00     0.154 HD
BRANCH   6   8
HETATM    8  C3  UNL     1      47.421  15.829   3.474  1.00  0.00     0.103 C 
HETATM    9  C4  UNL     1      48.032  16.299   4.749  1.00  0.00     0.053 C 
HETATM   10  C5  UNL     1      46.943  17.136   5.386  1.00  0.00     0.169 C 
HETATM   11  O1  UNL     1      45.986  17.368   4.430  1.00  0.00    -0.389 OA
HETATM   12  C6  UNL     1      46.515  17.067   3.187  1.00  0.00     0.192 C 
ENDBRANCH   6   8
ENDBRANCH   4   6
ENDBRANCH   1   4
BRANCH   1  13
HETATM   13  O2  UNL     1      44.443  12.419   2.130  1.00  0.00    -0.370 OA
ATOM     14  H2  UNL     1      44.473  12.280   3.070  1.00  0.00     0.212 HD
ENDBRANCH   1  13
BRANCH   1  15
HETATM   15  C9  UNL     1      44.878  13.811   0.391  1.00  0.00    -0.006 A 
HETATM   16  C10 UNL     1      44.476  14.965  -0.225  1.00  0.00     0.011 A 
HETATM   17  C11 UNL     1      44.391  15.051  -1.621  1.00  0.00     0.002 A 
HETATM   18  C12 UNL     1      44.718  13.960  -2.380  1.00  0.00     0.024 A 
HETATM   19  C13 UNL     1      45.127  12.782  -1.770  1.00  0.00     0.034 A 
HETATM   20 CL1  UNL     1      45.536  11.403  -2.773  1.00  0.00    -0.084 Cl
HETATM   21  C14 UNL     1      45.202  12.726  -0.384  1.00  0.00     0.035 A 
ENDBRANCH   1  15
TORSDOF 5
ENDMDL
MODEL 3
REMARK VINA RESULT: -5.875585494      2.179      2.576
REMARK  5 active torsions:
REMARK  status: ('A' for Active; 'I' for Inactive)
REMARK    1  A    between atoms: C2_2  and  N1_3 
REMARK    2  A    between atoms: C2_2  and  C7_10 
REMARK    3  A    between atoms: N1_3  and  C3_5 
REMARK    4  A    between atoms: C7_10  and  O2_11 
REMARK    5  A    between atoms: C7_10  and  C9_15 
ROOT
HETATM    1  C7  UNL     1      45.011  13.643   1.602  1.00  0.00     0.194 C 
HETATM    2  C8  UNL     1      44.423  14.895   1.138  1.00  0.00     0.105 C 
HETATM    3  N2  UNL     1      43.957  15.885   0.749  1.00  0.00    -0.194 NA
ENDROOT
BRANCH   1   4
HETATM    4  C2  UNL     1      46.317  13.898   2.341  1.00  0.00     0.127 C 
HETATM    5  C1  UNL     1      46.577  12.551   3.071  1.00  0.00     0.036 C 
BRANCH   4   6
HETATM    6  N1  UNL     1      46.366  14.871   3.302  1.00  0.00    -0.407 N 
ATOM      7  H1  UNL     1      45.769  14.705   4.111  1.00  0.00     0.154 HD
BRANCH   6   8
HETATM    8  C3  UNL     1      47.092  16.034   3.349  1.00  0.00     0.103 C 
HETATM    9  C4  UNL     1      47.897  16.389   4.551  1.00  0.00     0.053 C 
HETATM   10  C5  UNL     1      46.889  17.009   5.493  1.00  0.00     0.169 C 
HETATM   11  O1  UNL     1      45.750  17.265   4.772  1.00  0.00    -0.389 OA
HETATM   12  C6  UNL     1      46.051  17.195   3.423  1.00  0.00     0.192 C 
ENDBRANCH   6   8
ENDBRANCH   4   6
ENDBRANCH   1   4
BRANCH   1  13
HETATM   13  O2  UNL     1      44.121  12.960   2.504  1.00  0.00    -0.370 OA
ATOM     14  H2  UNL     1      44.647  12.398   3.061  1.00  0.00     0.212 HD
ENDBRANCH   1  13
BRANCH   1  15
HETATM   15  C9  UNL     1      45.126  12.681   0.488  1.00  0.00    -0.006 A 
HETATM   16  C10 UNL     1      45.614  13.094  -0.722  1.00  0.00     0.011 A 
HETATM   17  C11 UNL     1      45.714  12.209  -1.805  1.00  0.00     0.002 A 
HETATM   18  C12 UNL     1      45.317  10.910  -1.646  1.00  0.00     0.024 A 
HETATM   19  C13 UNL     1      44.820  10.475  -0.425  1.00  0.00     0.034 A 
HETATM   20 CL1  UNL     1      44.318   8.803  -0.259  1.00  0.00    -0.084 Cl
HETATM   21  C14 UNL     1      44.733  11.374   0.630  1.00  0.00     0.035 A 
ENDBRANCH   1  15
TORSDOF 5
ENDMDL
MODEL 4
REMARK VINA RESULT: -5.866454987      2.191      2.993
REMARK  5 active torsions:
REMARK  status: ('A' for Active; 'I' for Inactive)
REMARK    1  A    between atoms: C2_2  and  N1_3 
REMARK    2  A    between atoms: C2_2  and  C7_10 
REMARK    3  A    between atoms: N1_3  and  C3_5 
REMARK    4  A    between atoms: C7_10  and  O2_11 
REMARK    5  A    between atoms: C7_10  and  C9_15 
ROOT
HETATM    1  C7  UNL     1      44.335  16.157   1.182  1.00  0.00     0.194 C 
HETATM    2  C8  UNL     1      44.840  17.018   0.119  1.00  0.00     0.105 C 
HETATM    3  N2  UNL     1      45.251  17.688  -0.737  1.00  0.00    -0.194 NA
ENDROOT
BRANCH   1   4
HETATM    4  C2  UNL     1      44.929  16.550   2.527  1.00  0.00     0.127 C 
HETATM    5  C1  UNL     1      44.195  17.878   2.861  1.00  0.00     0.036 C 
BRANCH   4   6
HETATM    6  N1  UNL     1      46.267  16.817   2.619  1.00  0.00    -0.407 N 
ATOM      7  H1  UNL     1      46.603  17.545   1.988  1.00  0.00     0.154 HD
BRANCH   6   8
HETATM    8  C3  UNL     1      47.229  16.262   3.424  1.00  0.00     0.103 C 
HETATM    9  C4  UNL     1      46.922  15.091   4.292  1.00  0.00     0.053 C 
HETATM   10  C5  UNL     1      46.285  15.707   5.520  1.00  0.00     0.169 C 
HETATM   11  O1  UNL     1      46.518  17.058   5.473  1.00  0.00    -0.389 OA
HETATM   12  C6  UNL     1      47.515  17.308   4.547  1.00  0.00     0.192 C 
ENDBRANCH   6   8
ENDBRANCH   4   6
ENDBRANCH   1   4
BRANCH   1  13
HETATM   13  O2  UNL     1      42.902  16.257   1.287  1.00  0.00    -0.370 OA
ATOM     14  H2  UNL     1      42.578  15.433   1.634  1.00  0.00     0.212 HD
ENDBRANCH   1  13
BRANCH   1  15
HETATM   15  C9  UNL     1      44.523  14.735   0.830  1.00  0.00    -0.006 A 
HETATM   16  C10 UNL     1      44.655  13.800   1.820  1.00  0.00     0.011 A 
HETATM   17  C11 UNL     1      44.857  12.446   1.518  1.00  0.00     0.002 A 
HETATM   18  C12 UNL     1      44.922  12.055   0.209  1.00  0.00     0.024 A 
HETATM   19  C13 UNL     1      44.791  12.992  -0.808  1.00  0.00     0.034 A 
HETATM   20 CL1  UNL     1      44.882  12.455  -2.475  1.00  0.00    -0.084 Cl
HETATM   21  C14 UNL     1      44.591  14.327  -0.478  1.00  0.00     0.035 A 
ENDBRANCH   1  15
TORSDOF 5
ENDMDL
MODEL 5
REMARK VINA RESULT: -5.711168935      4.687      6.692
REMARK  5 active torsions:
REMARK  status: ('A' for Active; 'I' for Inactive)
REMARK    1  A    between atoms: C2_2  and  N1_3 
REMARK    2  A    between atoms: C2_2  and  C7_10 
REMARK    3  A    between atoms: N1_3  and  C3_5 
REMARK    4  A    between atoms: C7_10  and  O2_11 
REMARK    5  A    between atoms: C7_10  and  C9_15 
ROOT
HETATM    1  C7  UNL     1      46.333  10.591   0.173  1.00  0.00     0.194 C 
HETATM    2  C8  UNL     1      45.179   9.723  -0.034  1.00  0.00     0.105 C 
HETATM    3  N2  UNL     1      44.249   9.044  -0.186  1.00  0.00    -0.194 NA
ENDROOT
BRANCH   1   4
HETATM    4  C2  UNL     1      47.473   9.830   0.834  1.00  0.00     0.127 C 
HETATM    5  C1  UNL     1      48.688  10.151  -0.079  1.00  0.00     0.036 C 
BRANCH   4   6
HETATM    6  N1  UNL     1      47.409   8.467   0.923  1.00  0.00    -0.407 N 
ATOM      7  H1  UNL     1      47.157   7.992   0.056  1.00  0.00     0.154 HD
BRANCH   6   8
HETATM    8  C3  UNL     1      47.631   7.636   1.991  1.00  0.00     0.103 C 
HETATM    9  C4  UNL     1      48.591   8.008   3.068  1.00  0.00     0.053 C 
HETATM   10  C5  UNL     1      49.938   7.605   2.508  1.00  0.00     0.169 C 
HETATM   11  O1  UNL     1      49.710   6.812   1.412  1.00  0.00    -0.389 OA
HETATM   12  C6  UNL     1      48.391   6.394   1.429  1.00  0.00     0.192 C 
ENDBRANCH   6   8
ENDBRANCH   4   6
ENDBRANCH   1   4
BRANCH   1  13
HETATM   13  O2  UNL     1      46.818  11.108  -1.080  1.00  0.00    -0.370 OA
ATOM     14  H2  UNL     1      46.294  10.727  -1.775  1.00  0.00     0.212 HD
ENDBRANCH   1  13
BRANCH   1  15
HETATM   15  C9  UNL     1      45.934  11.822   0.885  1.00  0.00    -0.006 A 
HETATM   16  C10 UNL     1      45.004  12.658   0.331  1.00  0.00     0.011 A 
HETATM   17  C11 UNL     1      44.621  13.845   0.972  1.00  0.00     0.002 A 
HETATM   18  C12 UNL     1      45.189  14.169   2.173  1.00  0.00     0.024 A 
HETATM   19  C13 UNL     1      46.135  13.332   2.749  1.00  0.00     0.034 A 
HETATM   20 CL1  UNL     1      46.844  13.781   4.288  1.00  0.00    -0.084 Cl
HETATM   21  C14 UNL     1      46.495  12.162   2.090  1.00  0.00     0.035 A 
ENDBRANCH   1  15
TORSDOF 5
ENDMDL
