MODEL 1
REMARK VINA RESULT: -8.950918980      0.000      0.000
REMARK  14 active torsions:
REMARK  status: ('A' for Active; 'I' for Inactive)
REMARK    1  A    between atoms: C2_2  and  C3_3 
REMARK    2  A    between atoms: C3_3  and  C4_4 
REMARK    3  A    between atoms: C3_3  and  N2_14 
REMARK    4  A    between atoms: C4_4  and  N1_5 
REMARK    5  A    between atoms: C4_4  and  C7_10 
REMARK       I    between atoms: N1_5  and  C5_7 
REMARK    6  A    between atoms: C7_10  and  O2_12 
REMARK    7  A    between atoms: C11_17  and  C13_19 
REMARK    8  A    between atoms: C13_19  and  C14_20 
REMARK       I    between atoms: C14_20  and  N3_22 
REMARK    9  A    between atoms: N3_22  and  C15_24 
REMARK   10  A    between atoms: C15_24  and  O4_25 
REMARK   11  A    between atoms: C15_24  and  C28_40 
REMARK   12  A    between atoms: O4_25  and  C16_26 
REMARK   13  A    between atoms: C16_26  and  C17_27 
REMARK   14  A    between atoms: C17_27  and  N4_28 
ROOT
HETATM    1  C14 UNL     1      13.327  19.308  17.387  1.00  0.00     0.220 C 
HETATM    2  O3  UNL     1      14.101  18.691  18.136  1.00  0.00    -0.274 OA
HETATM    3  N3  UNL     1      12.135  19.861  17.918  1.00  0.00    -0.334 N 
ATOM      4  H3  UNL     1      11.505  20.367  17.295  1.00  0.00     0.165 HD
ENDROOT
BRANCH   1   5
HETATM    5  C13 UNL     1      13.636  19.482  15.961  1.00  0.00     0.113 C 
BRANCH   5   6
HETATM    6  C11 UNL     1      14.574  20.582  15.625  1.00  0.00    -0.018 C 
HETATM    7  C10 UNL     1      13.955  21.662  14.812  1.00  0.00     0.031 C 
HETATM    8  C9  UNL     1      14.954  22.843  15.114  1.00  0.00     0.123 C 
HETATM    9  N2  UNL     1      15.113  22.716  16.474  1.00  0.00    -0.385 N 
HETATM   10  C31 UNL     1      15.030  21.342  16.859  1.00  0.00     0.132 C 
HETATM   11  C12 UNL     1      15.792  20.054  14.859  1.00  0.00     0.017 C 
BRANCH   9  12
HETATM   12  C3  UNL     1      15.700  23.613  17.349  1.00  0.00     0.009 C 
BRANCH  12  13
HETATM   13  C2  UNL     1      14.849  24.582  18.107  1.00  0.00     0.050 C 
HETATM   14  C1  UNL     1      14.707  24.139  19.573  1.00  0.00     0.011 C 
ENDBRANCH  12  13
BRANCH  12  15
HETATM   15  C4  UNL     1      17.070  24.044  17.000  1.00  0.00     0.158 C 
BRANCH  15  16
HETATM   16  N1  UNL     1      18.023  22.928  16.992  1.00  0.00    -0.349 N 
HETATM   17  C5  UNL     1      18.693  22.462  15.870  1.00  0.00     0.214 C 
HETATM   18  C6  UNL     1      19.658  21.343  15.885  1.00  0.00     0.117 C 
HETATM   19  O1  UNL     1      18.479  23.018  14.745  1.00  0.00    -0.274 OA
ATOM     20  H1  UNL     1      18.207  22.460  17.879  1.00  0.00     0.163 HD
ENDBRANCH  15  16
BRANCH  15  21
HETATM   21  C7  UNL     1      17.722  25.096  17.843  1.00  0.00     0.142 C 
HETATM   22  C8  UNL     1      18.431  26.177  17.100  1.00  0.00     0.042 C 
BRANCH  21  23
HETATM   23  O2  UNL     1      18.430  24.672  18.930  1.00  0.00    -0.394 OA
ATOM     24  H2  UNL     1      19.377  24.690  18.863  1.00  0.00     0.210 HD
ENDBRANCH  21  23
ENDBRANCH  15  21
ENDBRANCH  12  15
ENDBRANCH   9  12
ENDBRANCH   5   6
ENDBRANCH   1   5
BRANCH   3  25
HETATM   25  C15 UNL     1      11.777  19.727  19.337  1.00  0.00     0.226 C 
BRANCH  25  26
HETATM   26  O4  UNL     1      10.604  19.100  19.455  1.00  0.00    -0.365 OA
BRANCH  26  27
HETATM   27  C16 UNL     1      10.088  18.303  18.506  1.00  0.00     0.200 C 
BRANCH  27  28
HETATM   28  C17 UNL     1       8.764  18.634  17.919  1.00  0.00     0.298 C 
BRANCH  28  29
HETATM   29  N4  UNL     1       8.681  17.983  16.609  1.00  0.00     0.091 N 
HETATM   30  C18 UNL     1       9.954  18.024  15.931  1.00  0.00     0.272 C 
HETATM   31  C19 UNL     1       9.942  17.047  14.783  1.00  0.00     0.031 C 
HETATM   32  C20 UNL     1       8.516  16.843  14.321  1.00  0.00     0.013 C 
HETATM   33  C21 UNL     1       7.796  16.082  15.423  1.00  0.00    -0.011 C 
HETATM   34  C22 UNL     1       6.313  16.330  15.291  1.00  0.00     0.041 C 
HETATM   35  C26 UNL     1       8.048  14.618  15.258  1.00  0.00     0.041 C 
HETATM   36  C27 UNL     1       8.236  16.602  16.782  1.00  0.00     0.282 C 
HETATM   37  C23 UNL     1       5.506  15.064  15.511  1.00  0.00     0.272 C 
HETATM   38  N5  UNL     1       5.783  14.112  14.460  1.00  0.00     0.084 N 
HETATM   39  C24 UNL     1       5.306  12.789  14.818  1.00  0.00     0.309 C 
HETATM   40  C25 UNL     1       7.191  14.024  14.141  1.00  0.00     0.272 C 
ENDBRANCH  28  29
ENDBRANCH  27  28
ENDBRANCH  26  27
ENDBRANCH  25  26
BRANCH  25  41
HETATM   41  C28 UNL     1      11.627  21.215  19.838  1.00  0.00     0.026 C 
HETATM   42  C29 UNL     1      11.666  22.093  18.633  1.00  0.00     0.014 C 
HETATM   43  C30 UNL     1      10.379  21.345  20.658  1.00  0.00     0.014 C 
ENDBRANCH  25  41
ENDBRANCH   3  25
TORSDOF 14
ENDMDL
MODEL 2
REMARK VINA RESULT: -8.821988950      1.777      2.742
REMARK  14 active torsions:
REMARK  status: ('A' for Active; 'I' for Inactive)
REMARK    1  A    between atoms: C2_2  and  C3_3 
REMARK    2  A    between atoms: C3_3  and  C4_4 
REMARK    3  A    between atoms: C3_3  and  N2_14 
REMARK    4  A    between atoms: C4_4  and  N1_5 
REMARK    5  A    between atoms: C4_4  and  C7_10 
REMARK       I    between atoms: N1_5  and  C5_7 
REMARK    6  A    between atoms: C7_10  and  O2_12 
REMARK    7  A    between atoms: C11_17  and  C13_19 
REMARK    8  A    between atoms: C13_19  and  C14_20 
REMARK       I    between atoms: C14_20  and  N3_22 
REMARK    9  A    between atoms: N3_22  and  C15_24 
REMARK   10  A    between atoms: C15_24  and  O4_25 
REMARK   11  A    between atoms: C15_24  and  C28_40 
REMARK   12  A    between atoms: O4_25  and  C16_26 
REMARK   13  A    between atoms: C16_26  and  C17_27 
REMARK   14  A    between atoms: C17_27  and  N4_28 
ROOT
HETATM    1  C14 UNL     1      13.123  19.504  18.509  1.00  0.00     0.220 C 
HETATM    2  O3  UNL     1      12.944  18.538  17.750  1.00  0.00    -0.274 OA
HETATM    3  N3  UNL     1      12.082  19.908  19.382  1.00  0.00    -0.334 N 
ATOM      4  H3  UNL     1      12.239  20.703  20.002  1.00  0.00     0.165 HD
ENDROOT
BRANCH   1   5
HETATM    5  C13 UNL     1      14.403  20.226  18.521  1.00  0.00     0.113 C 
BRANCH   5   6
HETATM    6  C11 UNL     1      14.401  21.571  17.892  1.00  0.00    -0.018 C 
HETATM    7  C10 UNL     1      13.705  22.604  18.705  1.00  0.00     0.031 C 
HETATM    8  C9  UNL     1      14.347  23.910  18.100  1.00  0.00     0.123 C 
HETATM    9  N2  UNL     1      15.673  23.552  18.041  1.00  0.00    -0.385 N 
HETATM   10  C31 UNL     1      15.800  22.152  17.780  1.00  0.00     0.132 C 
HETATM   11  C12 UNL     1      13.740  21.534  16.510  1.00  0.00     0.017 C 
BRANCH   9  12
HETATM   12  C3  UNL     1      16.765  24.369  17.807  1.00  0.00     0.009 C 
BRANCH  12  13
HETATM   13  C2  UNL     1      17.990  23.810  17.157  1.00  0.00     0.050 C 
HETATM   14  C1  UNL     1      17.966  24.082  15.643  1.00  0.00     0.011 C 
ENDBRANCH  12  13
BRANCH  12  15
HETATM   15  C4  UNL     1      16.954  25.476  18.769  1.00  0.00     0.158 C 
BRANCH  15  16
HETATM   16  N1  UNL     1      18.270  26.111  18.642  1.00  0.00    -0.349 N 
HETATM   17  C5  UNL     1      18.569  27.159  17.783  1.00  0.00     0.214 C 
HETATM   18  C6  UNL     1      19.899  27.792  17.678  1.00  0.00     0.117 C 
HETATM   19  O1  UNL     1      17.653  27.622  17.029  1.00  0.00    -0.274 OA
ATOM     20  H1  UNL     1      19.023  25.754  19.230  1.00  0.00     0.163 HD
ENDBRANCH  15  16
BRANCH  15  21
HETATM   21  C7  UNL     1      16.811  25.182  20.230  1.00  0.00     0.142 C 
HETATM   22  C8  UNL     1      16.572  26.361  21.111  1.00  0.00     0.042 C 
BRANCH  21  23
HETATM   23  O2  UNL     1      17.704  24.307  20.778  1.00  0.00    -0.394 OA
ATOM     24  H2  UNL     1      17.667  24.183  21.719  1.00  0.00     0.210 HD
ENDBRANCH  21  23
ENDBRANCH  15  21
ENDBRANCH  12  15
ENDBRANCH   9  12
ENDBRANCH   5   6
ENDBRANCH   1   5
BRANCH   3  25
HETATM   25  C15 UNL     1      10.785  19.219  19.420  1.00  0.00     0.226 C 
BRANCH  25  26
HETATM   26  O4  UNL     1       9.889  19.890  18.691  1.00  0.00    -0.365 OA
BRANCH  26  27
HETATM   27  C16 UNL     1       9.317  19.399  17.580  1.00  0.00     0.200 C 
BRANCH  27  28
HETATM   28  C17 UNL     1      10.009  19.556  16.275  1.00  0.00     0.298 C 
BRANCH  28  29
HETATM   29  N4  UNL     1       9.676  18.392  15.450  1.00  0.00     0.091 N 
HETATM   30  C18 UNL     1      10.870  17.770  14.929  1.00  0.00     0.272 C 
HETATM   31  C19 UNL     1      10.534  16.396  14.409  1.00  0.00     0.031 C 
HETATM   32  C20 UNL     1       9.076  16.361  14.009  1.00  0.00     0.013 C 
HETATM   33  C21 UNL     1       8.260  16.450  15.289  1.00  0.00    -0.011 C 
HETATM   34  C22 UNL     1       6.884  16.968  14.949  1.00  0.00     0.041 C 
HETATM   35  C26 UNL     1       8.119  15.085  15.880  1.00  0.00     0.041 C 
HETATM   36  C27 UNL     1       8.907  17.438  16.246  1.00  0.00     0.282 C 
HETATM   37  C23 UNL     1       5.797  16.226  15.704  1.00  0.00     0.272 C 
HETATM   38  N5  UNL     1       5.752  14.847  15.277  1.00  0.00     0.084 N 
HETATM   39  C24 UNL     1       4.978  14.040  16.203  1.00  0.00     0.309 C 
HETATM   40  C25 UNL     1       7.067  14.259  15.141  1.00  0.00     0.272 C 
ENDBRANCH  28  29
ENDBRANCH  27  28
ENDBRANCH  26  27
ENDBRANCH  25  26
BRANCH  25  41
HETATM   41  C28 UNL     1      10.366  19.272  20.940  1.00  0.00     0.026 C 
HETATM   42  C29 UNL     1      10.187  20.709  21.299  1.00  0.00     0.014 C 
HETATM   43  C30 UNL     1       9.148  18.424  21.155  1.00  0.00     0.014 C 
ENDBRANCH  25  41
ENDBRANCH   3  25
TORSDOF 14
ENDMDL
MODEL 3
REMARK VINA RESULT: -8.747978113      0.864      1.894
REMARK  14 active torsions:
REMARK  status: ('A' for Active; 'I' for Inactive)
REMARK    1  A    between atoms: C2_2  and  C3_3 
REMARK    2  A    between atoms: C3_3  and  C4_4 
REMARK    3  A    between atoms: C3_3  and  N2_14 
REMARK    4  A    between atoms: C4_4  and  N1_5 
REMARK    5  A    between atoms: C4_4  and  C7_10 
REMARK       I    between atoms: N1_5  and  C5_7 
REMARK    6  A    between atoms: C7_10  and  O2_12 
REMARK    7  A    between atoms: C11_17  and  C13_19 
REMARK    8  A    between atoms: C13_19  and  C14_20 
REMARK       I    between atoms: C14_20  and  N3_22 
REMARK    9  A    between atoms: N3_22  and  C15_24 
REMARK   10  A    between atoms: C15_24  and  O4_25 
REMARK   11  A    between atoms: C15_24  and  C28_40 
REMARK   12  A    between atoms: O4_25  and  C16_26 
REMARK   13  A    between atoms: C16_26  and  C17_27 
REMARK   14  A    between atoms: C17_27  and  N4_28 
ROOT
HETATM    1  C14 UNL     1      12.875  18.988  17.545  1.00  0.00     0.220 C 
HETATM    2  O3  UNL     1      13.551  18.399  18.403  1.00  0.00    -0.274 OA
HETATM    3  N3  UNL     1      11.708  19.691  17.937  1.00  0.00    -0.334 N 
ATOM      4  H3  UNL     1      11.159  20.174  17.225  1.00  0.00     0.165 HD
ENDROOT
BRANCH   1   5
HETATM    5  C13 UNL     1      13.274  18.976  16.131  1.00  0.00     0.113 C 
BRANCH   5   6
HETATM    6  C11 UNL     1      14.107  20.117  15.677  1.00  0.00    -0.018 C 
HETATM    7  C10 UNL     1      13.331  21.178  14.982  1.00  0.00     0.031 C 
HETATM    8  C9  UNL     1      14.315  22.398  15.151  1.00  0.00     0.123 C 
HETATM    9  N2  UNL     1      14.679  22.265  16.470  1.00  0.00    -0.385 N 
HETATM   10  C31 UNL     1      14.710  20.885  16.842  1.00  0.00     0.132 C 
HETATM   11  C12 UNL     1      15.219  19.649  14.731  1.00  0.00     0.017 C 
BRANCH   9  12
HETATM   12  C3  UNL     1      15.352  23.178  17.263  1.00  0.00     0.009 C 
BRANCH  12  13
HETATM   13  C2  UNL     1      14.587  24.213  18.024  1.00  0.00     0.050 C 
HETATM   14  C1  UNL     1      14.730  23.981  19.538  1.00  0.00     0.011 C 
ENDBRANCH  12  13
BRANCH  12  15
HETATM   15  C4  UNL     1      16.713  23.537  16.810  1.00  0.00     0.158 C 
BRANCH  15  16
HETATM   16  N1  UNL     1      17.005  24.963  16.988  1.00  0.00    -0.349 N 
HETATM   17  C5  UNL     1      17.841  25.489  17.962  1.00  0.00     0.214 C 
HETATM   18  C6  UNL     1      18.130  26.930  18.118  1.00  0.00     0.117 C 
HETATM   19  O1  UNL     1      18.407  24.700  18.784  1.00  0.00    -0.274 OA
ATOM     20  H1  UNL     1      16.558  25.619  16.347  1.00  0.00     0.163 HD
ENDBRANCH  15  16
BRANCH  15  21
HETATM   21  C7  UNL     1      17.092  23.245  15.391  1.00  0.00     0.142 C 
HETATM   22  C8  UNL     1      18.136  22.197  15.199  1.00  0.00     0.042 C 
BRANCH  21  23
HETATM   23  O2  UNL     1      17.282  24.314  14.565  1.00  0.00    -0.394 OA
ATOM     24  H2  UNL     1      18.151  24.694  14.541  1.00  0.00     0.210 HD
ENDBRANCH  21  23
ENDBRANCH  15  21
ENDBRANCH  12  15
ENDBRANCH   9  12
ENDBRANCH   5   6
ENDBRANCH   1   5
BRANCH   3  25
HETATM   25  C15 UNL     1      11.264  19.747  19.337  1.00  0.00     0.226 C 
BRANCH  25  26
HETATM   26  O4  UNL     1       9.963  19.454  19.415  1.00  0.00    -0.365 OA
BRANCH  26  27
HETATM   27  C16 UNL     1       9.245  18.981  18.385  1.00  0.00     0.200 C 
BRANCH  27  28
HETATM   28  C17 UNL     1       8.914  17.534  18.333  1.00  0.00     0.298 C 
BRANCH  28  29
HETATM   29  N4  UNL     1       8.474  17.225  16.970  1.00  0.00     0.091 N 
HETATM   30  C18 UNL     1       9.496  17.561  16.008  1.00  0.00     0.272 C 
HETATM   31  C19 UNL     1       9.179  16.906  14.689  1.00  0.00     0.031 C 
HETATM   32  C20 UNL     1       7.686  16.681  14.593  1.00  0.00     0.013 C 
HETATM   33  C21 UNL     1       7.334  15.600  15.604  1.00  0.00    -0.011 C 
HETATM   34  C22 UNL     1       5.870  15.723  15.950  1.00  0.00     0.041 C 
HETATM   35  C26 UNL     1       7.565  14.257  14.991  1.00  0.00     0.041 C 
HETATM   36  C27 UNL     1       8.133  15.806  16.880  1.00  0.00     0.282 C 
HETATM   37  C23 UNL     1       5.193  14.367  16.034  1.00  0.00     0.272 C 
HETATM   38  N5  UNL     1       5.180  13.740  14.732  1.00  0.00     0.084 N 
HETATM   39  C24 UNL     1       4.860  12.328  14.838  1.00  0.00     0.309 C 
HETATM   40  C25 UNL     1       6.438  13.876  14.032  1.00  0.00     0.272 C 
ENDBRANCH  28  29
ENDBRANCH  27  28
ENDBRANCH  26  27
ENDBRANCH  25  26
BRANCH  25  41
HETATM   41  C28 UNL     1      11.487  21.251  19.752  1.00  0.00     0.026 C 
HETATM   42  C29 UNL     1      11.500  22.059  18.498  1.00  0.00     0.014 C 
HETATM   43  C30 UNL     1      10.436  21.661  20.740  1.00  0.00     0.014 C 
ENDBRANCH  25  41
ENDBRANCH   3  25
TORSDOF 14
ENDMDL
MODEL 4
REMARK VINA RESULT: -8.620994856      1.804      3.127
REMARK  14 active torsions:
REMARK  status: ('A' for Active; 'I' for Inactive)
REMARK    1  A    between atoms: C2_2  and  C3_3 
REMARK    2  A    between atoms: C3_3  and  C4_4 
REMARK    3  A    between atoms: C3_3  and  N2_14 
REMARK    4  A    between atoms: C4_4  and  N1_5 
REMARK    5  A    between atoms: C4_4  and  C7_10 
REMARK       I    between atoms: N1_5  and  C5_7 
REMARK    6  A    between atoms: C7_10  and  O2_12 
REMARK    7  A    between atoms: C11_17  and  C13_19 
REMARK    8  A    between atoms: C13_19  and  C14_20 
REMARK       I    between atoms: C14_20  and  N3_22 
REMARK    9  A    between atoms: N3_22  and  C15_24 
REMARK   10  A    between atoms: C15_24  and  O4_25 
REMARK   11  A    between atoms: C15_24  and  C28_40 
REMARK   12  A    between atoms: O4_25  and  C16_26 
REMARK   13  A    between atoms: C16_26  and  C17_27 
REMARK   14  A    between atoms: C17_27  and  N4_28 
ROOT
HETATM    1  C14 UNL     1      12.524  22.185  18.066  1.00  0.00     0.220 C 
HETATM    2  O3  UNL     1      13.323  21.304  17.710  1.00  0.00    -0.274 OA
HETATM    3  N3  UNL     1      11.308  21.814  18.691  1.00  0.00    -0.334 N 
ATOM      4  H3  UNL     1      10.659  22.545  18.981  1.00  0.00     0.165 HD
ENDROOT
BRANCH   1   5
HETATM    5  C13 UNL     1      12.828  23.608  17.856  1.00  0.00     0.113 C 
BRANCH   5   6
HETATM    6  C11 UNL     1      14.231  24.020  18.109  1.00  0.00    -0.018 C 
HETATM    7  C10 UNL     1      14.893  23.240  19.189  1.00  0.00     0.031 C 
HETATM    8  C9  UNL     1      16.406  23.493  18.826  1.00  0.00     0.123 C 
HETATM    9  N2  UNL     1      16.387  23.311  17.464  1.00  0.00    -0.385 N 
HETATM   10  C31 UNL     1      15.135  23.737  16.921  1.00  0.00     0.132 C 
HETATM   11  C12 UNL     1      14.312  25.505  18.483  1.00  0.00     0.017 C 
BRANCH   9  12
HETATM   12  C3  UNL     1      17.467  23.178  16.609  1.00  0.00     0.009 C 
BRANCH  12  13
HETATM   13  C2  UNL     1      18.595  24.158  16.673  1.00  0.00     0.050 C 
HETATM   14  C1  UNL     1      18.086  25.583  16.392  1.00  0.00     0.011 C 
ENDBRANCH  12  13
BRANCH  12  15
HETATM   15  C4  UNL     1      17.170  22.571  15.294  1.00  0.00     0.158 C 
BRANCH  15  16
HETATM   16  N1  UNL     1      16.911  21.130  15.387  1.00  0.00    -0.349 N 
HETATM   17  C5  UNL     1      15.720  20.512  15.033  1.00  0.00     0.214 C 
HETATM   18  C6  UNL     1      15.482  19.057  15.124  1.00  0.00     0.117 C 
HETATM   19  O1  UNL     1      14.758  21.223  14.598  1.00  0.00    -0.274 OA
ATOM     20  H1  UNL     1      17.662  20.539  15.739  1.00  0.00     0.163 HD
ENDBRANCH  15  16
BRANCH  15  21
HETATM   21  C7  UNL     1      18.186  22.706  14.203  1.00  0.00     0.142 C 
HETATM   22  C8  UNL     1      17.749  23.467  12.997  1.00  0.00     0.042 C 
BRANCH  21  23
HETATM   23  O2  UNL     1      18.897  21.588  13.872  1.00  0.00    -0.394 OA
ATOM     24  H2  UNL     1      19.801  21.549  14.159  1.00  0.00     0.210 HD
ENDBRANCH  21  23
ENDBRANCH  15  21
ENDBRANCH  12  15
ENDBRANCH   9  12
ENDBRANCH   5   6
ENDBRANCH   1   5
BRANCH   3  25
HETATM   25  C15 UNL     1      10.954  20.408  18.936  1.00  0.00     0.226 C 
BRANCH  25  26
HETATM   26  O4  UNL     1       9.686  20.189  18.580  1.00  0.00    -0.365 OA
BRANCH  26  27
HETATM   27  C16 UNL     1       9.329  19.496  17.487  1.00  0.00     0.200 C 
BRANCH  27  28
HETATM   28  C17 UNL     1      10.255  19.442  16.327  1.00  0.00     0.298 C 
BRANCH  28  29
HETATM   29  N4  UNL     1       9.844  18.320  15.479  1.00  0.00     0.091 N 
HETATM   30  C18 UNL     1      10.992  17.648  14.919  1.00  0.00     0.272 C 
HETATM   31  C19 UNL     1      10.571  16.308  14.371  1.00  0.00     0.031 C 
HETATM   32  C20 UNL     1       9.106  16.363  13.999  1.00  0.00     0.013 C 
HETATM   33  C21 UNL     1       8.320  16.462  15.297  1.00  0.00    -0.011 C 
HETATM   34  C22 UNL     1       6.969  17.064  14.998  1.00  0.00     0.041 C 
HETATM   35  C26 UNL     1       8.116  15.092  15.855  1.00  0.00     0.041 C 
HETATM   36  C27 UNL     1       9.038  17.388  16.265  1.00  0.00     0.282 C 
HETATM   37  C23 UNL     1       5.857  16.362  15.755  1.00  0.00     0.272 C 
HETATM   38  N5  UNL     1       5.728  14.999  15.293  1.00  0.00     0.084 N 
HETATM   39  C24 UNL     1       4.929  14.211  16.214  1.00  0.00     0.309 C 
HETATM   40  C25 UNL     1       7.006  14.344  15.117  1.00  0.00     0.272 C 
ENDBRANCH  28  29
ENDBRANCH  27  28
ENDBRANCH  26  27
ENDBRANCH  25  26
BRANCH  25  41
HETATM   41  C28 UNL     1      11.096  20.242  20.497  1.00  0.00     0.026 C 
HETATM   42  C29 UNL     1      10.281  21.318  21.133  1.00  0.00     0.014 C 
HETATM   43  C30 UNL     1      10.698  18.851  20.892  1.00  0.00     0.014 C 
ENDBRANCH  25  41
ENDBRANCH   3  25
TORSDOF 14
ENDMDL
MODEL 5
REMARK VINA RESULT: -8.593188110      1.936      3.323
REMARK  14 active torsions:
REMARK  status: ('A' for Active; 'I' for Inactive)
REMARK    1  A    between atoms: C2_2  and  C3_3 
REMARK    2  A    between atoms: C3_3  and  C4_4 
REMARK    3  A    between atoms: C3_3  and  N2_14 
REMARK    4  A    between atoms: C4_4  and  N1_5 
REMARK    5  A    between atoms: C4_4  and  C7_10 
REMARK       I    between atoms: N1_5  and  C5_7 
REMARK    6  A    between atoms: C7_10  and  O2_12 
REMARK    7  A    between atoms: C11_17  and  C13_19 
REMARK    8  A    between atoms: C13_19  and  C14_20 
REMARK       I    between atoms: C14_20  and  N3_22 
REMARK    9  A    between atoms: N3_22  and  C15_24 
REMARK   10  A    between atoms: C15_24  and  O4_25 
REMARK   11  A    between atoms: C15_24  and  C28_40 
REMARK   12  A    between atoms: O4_25  and  C16_26 
REMARK   13  A    between atoms: C16_26  and  C17_27 
REMARK   14  A    between atoms: C17_27  and  N4_28 
ROOT
HETATM    1  C14 UNL     1      10.682  19.402  20.226  1.00  0.00     0.220 C 
HETATM    2  O3  UNL     1      11.130  18.380  20.769  1.00  0.00    -0.274 OA
HETATM    3  N3  UNL     1       9.436  19.346  19.552  1.00  0.00    -0.334 N 
ATOM      4  H3  UNL     1       9.075  20.191  19.110  1.00  0.00     0.165 HD
ENDROOT
BRANCH   1   5
HETATM    5  C13 UNL     1      11.420  20.672  20.283  1.00  0.00     0.113 C 
BRANCH   5   6
HETATM    6  C11 UNL     1      12.171  21.047  19.060  1.00  0.00    -0.018 C 
HETATM    7  C10 UNL     1      11.515  22.121  18.267  1.00  0.00     0.031 C 
HETATM    8  C9  UNL     1      12.751  22.650  17.443  1.00  0.00     0.123 C 
HETATM    9  N2  UNL     1      13.715  22.712  18.420  1.00  0.00    -0.385 N 
HETATM   10  C31 UNL     1      13.516  21.676  19.384  1.00  0.00     0.132 C 
HETATM   11  C12 UNL     1      12.370  19.837  18.140  1.00  0.00     0.017 C 
BRANCH   9  12
HETATM   12  C3  UNL     1      14.956  23.322  18.353  1.00  0.00     0.009 C 
BRANCH  12  13
HETATM   13  C2  UNL     1      15.191  24.617  19.063  1.00  0.00     0.050 C 
HETATM   14  C1  UNL     1      14.430  25.758  18.365  1.00  0.00     0.011 C 
ENDBRANCH  12  13
BRANCH  12  15
HETATM   15  C4  UNL     1      15.721  23.081  17.111  1.00  0.00     0.158 C 
BRANCH  15  16
HETATM   16  N1  UNL     1      15.830  21.655  16.787  1.00  0.00    -0.349 N 
HETATM   17  C5  UNL     1      15.419  21.076  15.595  1.00  0.00     0.214 C 
HETATM   18  C6  UNL     1      15.547  19.637  15.284  1.00  0.00     0.117 C 
HETATM   19  O1  UNL     1      14.895  21.811  14.697  1.00  0.00    -0.274 OA
ATOM     20  H1  UNL     1      16.239  21.042  17.492  1.00  0.00     0.163 HD
ENDBRANCH  15  16
BRANCH  15  21
HETATM   21  C7  UNL     1      17.122  23.600  17.027  1.00  0.00     0.142 C 
HETATM   22  C8  UNL     1      17.584  24.009  15.669  1.00  0.00     0.042 C 
BRANCH  21  23
HETATM   23  O2  UNL     1      18.083  22.909  17.707  1.00  0.00    -0.394 OA
ATOM     24  H2  UNL     1      18.586  23.390  18.354  1.00  0.00     0.210 HD
ENDBRANCH  21  23
ENDBRANCH  15  21
ENDBRANCH  12  15
ENDBRANCH   9  12
ENDBRANCH   5   6
ENDBRANCH   1   5
BRANCH   3  25
HETATM   25  C15 UNL     1       8.650  18.107  19.469  1.00  0.00     0.226 C 
BRANCH  25  26
HETATM   26  O4  UNL     1       8.100  17.995  18.257  1.00  0.00    -0.365 OA
BRANCH  26  27
HETATM   27  C16 UNL     1       8.814  17.883  17.125  1.00  0.00     0.200 C 
BRANCH  27  28
HETATM   28  C17 UNL     1       9.324  16.548  16.717  1.00  0.00     0.298 C 
BRANCH  28  29
HETATM   29  N4  UNL     1       8.373  15.981  15.758  1.00  0.00     0.091 N 
HETATM   30  C18 UNL     1       9.051  15.162  14.782  1.00  0.00     0.272 C 
HETATM   31  C19 UNL     1       8.042  14.311  14.054  1.00  0.00     0.031 C 
HETATM   32  C20 UNL     1       6.696  15.000  14.088  1.00  0.00     0.013 C 
HETATM   33  C21 UNL     1       6.207  14.951  15.527  1.00  0.00    -0.011 C 
HETATM   34  C22 UNL     1       5.199  16.056  15.732  1.00  0.00     0.041 C 
HETATM   35  C26 UNL     1       5.531  13.642  15.774  1.00  0.00     0.041 C 
HETATM   36  C27 UNL     1       7.369  15.199  16.475  1.00  0.00     0.282 C 
HETATM   37  C23 UNL     1       4.011  15.593  16.554  1.00  0.00     0.272 C 
HETATM   38  N5  UNL     1       3.268  14.590  15.828  1.00  0.00     0.084 N 
HETATM   39  C24 UNL     1       2.347  13.889  16.704  1.00  0.00     0.309 C 
HETATM   40  C25 UNL     1       4.122  13.617  15.183  1.00  0.00     0.272 C 
ENDBRANCH  28  29
ENDBRANCH  27  28
ENDBRANCH  26  27
ENDBRANCH  25  26
BRANCH  25  41
HETATM   41  C28 UNL     1       7.511  18.302  20.543  1.00  0.00     0.026 C 
HETATM   42  C29 UNL     1       6.207  18.214  19.825  1.00  0.00     0.014 C 
HETATM   43  C30 UNL     1       7.681  17.298  21.643  1.00  0.00     0.014 C 
ENDBRANCH  25  41
ENDBRANCH   3  25
TORSDOF 14
ENDMDL
