MODEL 1
REMARK VINA RESULT: -8.951067595      0.000      0.000
REMARK  15 active torsions:
REMARK  status: ('A' for Active; 'I' for Inactive)
REMARK    1  A    between atoms: C2_2  and  O1_3 
REMARK    2  A    between atoms: O1_3  and  C3_4 
REMARK    3  A    between atoms: C3_4  and  C4_6 
REMARK    4  A    between atoms: C4_6  and  N1_7 
REMARK    5  A    between atoms: N1_7  and  N2_9 
REMARK    6  A    between atoms: N2_9  and  C5_11 
REMARK    7  A    between atoms: C6_14  and  N4_15 
REMARK    8  A    between atoms: C7_20  and  C8_21 
REMARK    9  A    between atoms: C8_21  and  N7_22 
REMARK   10  A    between atoms: N7_22  and  C9_24 
REMARK   11  A    between atoms: C10_27  and  C11_28 
REMARK   12  A    between atoms: C14_36  and  O3_37 
REMARK   13  A    between atoms: C15_39  and  N11_40 
REMARK   14  A    between atoms: C16_45  and  N13_46 
REMARK   15  A    between atoms: N13_46  and  C17_48 
ROOT
HETATM    1  C5  UNL     1      -8.611  19.309 -27.310  1.00  0.00     0.712 C 
HETATM    2  N3  UNL     1      -8.039  18.815 -28.449  1.00  0.00    -0.169 N 
ATOM      3  H3  UNL     1      -8.275  19.297 -29.317  1.00  0.00     0.186 HD
HETATM    4  C6  UNL     1      -7.187  17.751 -28.562  1.00  0.00     0.190 C 
HETATM    5  C15 UNL     1      -7.044  16.770 -27.605  1.00  0.00     0.161 C 
HETATM    6  N12 UNL     1      -7.148  16.903 -26.245  1.00  0.00    -0.173 N 
ATOM      7  H12 UNL     1      -6.912  16.072 -25.701  1.00  0.00     0.186 HD
HETATM    8  C16 UNL     1      -7.517  17.981 -25.529  1.00  0.00     0.695 C 
HETATM    9  N14 UNL     1      -8.342  18.950 -26.043  1.00  0.00    -0.021 N 
ATOM     10  H14 UNL     1      -8.839  19.495 -25.339  1.00  0.00     0.203 HD
ENDROOT
BRANCH   4  11
HETATM   11  N4  UNL     1      -6.403  17.667 -29.743  1.00  0.00    -0.197 N 
HETATM   12  N5  UNL     1      -5.096  17.749 -29.920  1.00  0.00    -0.232 N 
HETATM   13  N6  UNL     1      -4.753  17.629 -31.184  1.00  0.00    -0.284 N 
ATOM     14  H5  UNL     1      -4.428  17.889 -29.162  1.00  0.00     0.209 HD
HETATM   15  C7  UNL     1      -5.875  17.459 -31.886  1.00  0.00     0.097 A 
ATOM     16  H6  UNL     1      -3.804  17.659 -31.559  1.00  0.00     0.188 HD
HETATM   17  C14 UNL     1      -6.923  17.484 -30.959  1.00  0.00     0.191 A 
BRANCH  15  18
HETATM   18  C8  UNL     1      -5.964  17.289 -33.341  1.00  0.00     0.184 C 
BRANCH  18  19
HETATM   19  N7  UNL     1      -5.141  18.283 -33.989  1.00  0.00    -0.373 N 
ATOM     20  H7  UNL     1      -5.376  19.269 -33.870  1.00  0.00     0.161 HD
BRANCH  19  21
HETATM   21  C9  UNL     1      -4.018  17.940 -34.787  1.00  0.00     0.083 C 
HETATM   22  N8  UNL     1      -2.858  18.150 -34.315  1.00  0.00    -0.367 N 
HETATM   23  C10 UNL     1      -1.633  17.853 -35.004  1.00  0.00     0.156 C 
ATOM     24  H8  UNL     1      -2.792  18.557 -33.382  1.00  0.00     0.161 HD
HETATM   25  C12 UNL     1      -1.554  18.508 -36.389  1.00  0.00     0.107 C 
HETATM   26  S1  UNL     1      -2.969  17.845 -37.319  1.00  0.00    -0.159 SA
HETATM   27  C13 UNL     1      -4.211  17.361 -36.103  1.00  0.00     0.149 C 
BRANCH  23  28
HETATM   28  C11 UNL     1      -1.377  16.403 -35.110  1.00  0.00     0.110 C 
HETATM   29  N9  UNL     1      -1.857  15.546 -34.259  1.00  0.00    -0.389 N 
ATOM     30  H92 UNL     1      -2.430  15.883 -33.485  1.00  0.00     0.157 HD
ATOM     31  H91 UNL     1      -1.680  14.544 -34.333  1.00  0.00     0.157 HD
HETATM   32  N10 UNL     1      -0.580  15.934 -36.188  1.00  0.00    -0.086 NA
ENDBRANCH  23  28
ENDBRANCH  19  21
ENDBRANCH  18  19
ENDBRANCH  15  18
BRANCH  17  33
HETATM   33  O3  UNL     1      -8.256  17.342 -31.291  1.00  0.00    -0.343 OA
ATOM     34  H3  UNL     1      -8.848  18.014 -31.606  1.00  0.00     0.219 HD
ENDBRANCH  17  33
ENDBRANCH   4  11
BRANCH   5  35
HETATM   35  N11 UNL     1      -6.787  15.608 -28.056  1.00  0.00    -0.382 N 
ATOM     36 2H11 UNL     1      -5.953  15.509 -28.634  1.00  0.00     0.157 HD
ATOM     37 1H11 UNL     1      -7.451  14.882 -27.789  1.00  0.00     0.157 HD
ENDBRANCH   5  35
BRANCH   1  38
HETATM   38  N2  UNL     1      -9.505  20.220 -27.503  1.00  0.00    -0.135 N 
ATOM     39  H2  UNL     1      -9.793  20.800 -26.715  1.00  0.00     0.205 HD
BRANCH  38  40
HETATM   40  N1  UNL     1     -10.092  20.440 -28.749  1.00  0.00    -0.313 N 
ATOM     41  H1  UNL     1      -9.913  21.321 -29.230  1.00  0.00     0.181 HD
BRANCH  40  42
HETATM   42  C4  UNL     1     -10.951  19.457 -29.385  1.00  0.00     0.251 C 
BRANCH  42  43
HETATM   43  C3  UNL     1     -10.715  19.499 -30.852  1.00  0.00     0.278 C 
HETATM   44  O2  UNL     1     -10.983  18.493 -31.573  1.00  0.00    -0.263 OA
BRANCH  43  45
HETATM   45  O1  UNL     1     -10.200  20.622 -31.483  1.00  0.00    -0.321 OA
BRANCH  45  46
HETATM   46  C2  UNL     1      -9.434  20.454 -32.645  1.00  0.00     0.174 C 
HETATM   47  C1  UNL     1      -9.412  21.706 -33.500  1.00  0.00     0.034 C 
ENDBRANCH  45  46
ENDBRANCH  43  45
ENDBRANCH  42  43
ENDBRANCH  40  42
ENDBRANCH  38  40
ENDBRANCH   1  38
BRANCH   8  48
HETATM   48  N13 UNL     1      -7.124  18.163 -24.339  1.00  0.00    -0.217 N 
ATOM     49  H13 UNL     1      -6.187  18.560 -24.278  1.00  0.00     0.178 HD
BRANCH  48  50
HETATM   50  C17 UNL     1      -7.715  17.929 -23.082  1.00  0.00     0.036 C 
HETATM   51  C18 UNL     1      -8.514  16.652 -23.003  1.00  0.00     0.038 C 
HETATM   52  C19 UNL     1      -6.629  17.872 -22.030  1.00  0.00     0.038 C 
HETATM   53  C20 UNL     1      -8.631  19.077 -22.656  1.00  0.00     0.038 C 
ENDBRANCH  48  50
ENDBRANCH   8  48
TORSDOF 15
ENDMDL
MODEL 2
REMARK VINA RESULT: -8.813669418      2.741      6.365
REMARK  15 active torsions:
REMARK  status: ('A' for Active; 'I' for Inactive)
REMARK    1  A    between atoms: C2_2  and  O1_3 
REMARK    2  A    between atoms: O1_3  and  C3_4 
REMARK    3  A    between atoms: C3_4  and  C4_6 
REMARK    4  A    between atoms: C4_6  and  N1_7 
REMARK    5  A    between atoms: N1_7  and  N2_9 
REMARK    6  A    between atoms: N2_9  and  C5_11 
REMARK    7  A    between atoms: C6_14  and  N4_15 
REMARK    8  A    between atoms: C7_20  and  C8_21 
REMARK    9  A    between atoms: C8_21  and  N7_22 
REMARK   10  A    between atoms: N7_22  and  C9_24 
REMARK   11  A    between atoms: C10_27  and  C11_28 
REMARK   12  A    between atoms: C14_36  and  O3_37 
REMARK   13  A    between atoms: C15_39  and  N11_40 
REMARK   14  A    between atoms: C16_45  and  N13_46 
REMARK   15  A    between atoms: N13_46  and  C17_48 
ROOT
HETATM    1  C5  UNL     1      -6.833  16.500 -30.051  1.00  0.00     0.712 C 
HETATM    2  N3  UNL     1      -5.661  16.454 -30.752  1.00  0.00    -0.169 N 
ATOM      3  H3  UNL     1      -5.170  15.560 -30.752  1.00  0.00     0.186 HD
HETATM    4  C6  UNL     1      -5.069  17.468 -31.453  1.00  0.00     0.190 C 
HETATM    5  C15 UNL     1      -5.359  18.804 -31.276  1.00  0.00     0.161 C 
HETATM    6  N12 UNL     1      -6.564  19.363 -30.939  1.00  0.00    -0.173 N 
ATOM      7  H12 UNL     1      -6.595  20.383 -30.951  1.00  0.00     0.186 HD
HETATM    8  C16 UNL     1      -7.711  18.750 -30.596  1.00  0.00     0.695 C 
HETATM    9  N14 UNL     1      -7.729  17.501 -30.025  1.00  0.00    -0.021 N 
ATOM     10  H14 UNL     1      -8.570  17.299 -29.485  1.00  0.00     0.203 HD
ENDROOT
BRANCH   4  11
HETATM   11  N4  UNL     1      -4.098  17.107 -32.425  1.00  0.00    -0.197 N 
HETATM   12  N5  UNL     1      -3.009  16.365 -32.323  1.00  0.00    -0.232 N 
HETATM   13  N6  UNL     1      -2.358  16.272 -33.462  1.00  0.00    -0.284 N 
ATOM     14  H5  UNL     1      -2.707  15.914 -31.459  1.00  0.00     0.209 HD
HETATM   15  C7  UNL     1      -3.036  16.982 -34.367  1.00  0.00     0.097 A 
ATOM     16  H6  UNL     1      -1.494  15.754 -33.625  1.00  0.00     0.188 HD
HETATM   17  C14 UNL     1      -4.145  17.510 -33.697  1.00  0.00     0.191 A 
BRANCH  15  18
HETATM   18  C8  UNL     1      -2.667  17.159 -35.775  1.00  0.00     0.184 C 
BRANCH  18  19
HETATM   19  N7  UNL     1      -3.600  16.434 -36.608  1.00  0.00    -0.373 N 
ATOM     20  H7  UNL     1      -3.467  15.431 -36.736  1.00  0.00     0.161 HD
BRANCH  19  21
HETATM   21  C9  UNL     1      -4.693  17.067 -37.256  1.00  0.00     0.083 C 
HETATM   22  N8  UNL     1      -5.779  16.419 -37.373  1.00  0.00    -0.367 N 
HETATM   23  C10 UNL     1      -6.966  16.927 -38.001  1.00  0.00     0.156 C 
ATOM     24  H8  UNL     1      -5.810  15.472 -36.994  1.00  0.00     0.161 HD
HETATM   25  C12 UNL     1      -6.718  17.425 -39.431  1.00  0.00     0.107 C 
HETATM   26  S1  UNL     1      -5.479  18.748 -39.275  1.00  0.00    -0.159 SA
HETATM   27  C13 UNL     1      -4.556  18.420 -37.760  1.00  0.00     0.149 C 
BRANCH  23  28
HETATM   28  C11 UNL     1      -7.627  17.980 -37.203  1.00  0.00     0.110 C 
HETATM   29  N9  UNL     1      -8.192  19.016 -37.748  1.00  0.00    -0.389 N 
ATOM     30  H92 UNL     1      -8.178  19.113 -38.763  1.00  0.00     0.157 HD
ATOM     31  H91 UNL     1      -8.649  19.743 -37.197  1.00  0.00     0.157 HD
HETATM   32  N10 UNL     1      -7.647  17.845 -35.790  1.00  0.00    -0.086 NA
ENDBRANCH  23  28
ENDBRANCH  19  21
ENDBRANCH  18  19
ENDBRANCH  15  18
BRANCH  17  33
HETATM   33  O3  UNL     1      -5.101  18.310 -34.289  1.00  0.00    -0.343 OA
ATOM     34  H3  UNL     1      -4.962  19.010 -34.915  1.00  0.00     0.219 HD
ENDBRANCH  17  33
ENDBRANCH   4  11
BRANCH   5  35
HETATM   35  N11 UNL     1      -4.379  19.597 -31.449  1.00  0.00    -0.382 N 
ATOM     36 2H11 UNL     1      -3.773  19.419 -32.250  1.00  0.00     0.157 HD
ATOM     37 1H11 UNL     1      -4.298  20.343 -30.759  1.00  0.00     0.157 HD
ENDBRANCH   5  35
BRANCH   1  38
HETATM   38  N2  UNL     1      -7.083  15.448 -29.344  1.00  0.00    -0.135 N 
ATOM     39  H2  UNL     1      -7.356  14.589 -29.821  1.00  0.00     0.205 HD
BRANCH  38  40
HETATM   40  N1  UNL     1      -6.995  15.444 -27.951  1.00  0.00    -0.313 N 
ATOM     41  H1  UNL     1      -7.238  14.593 -27.444  1.00  0.00     0.181 HD
BRANCH  40  42
HETATM   42  C4  UNL     1      -6.568  16.610 -27.199  1.00  0.00     0.251 C 
BRANCH  42  43
HETATM   43  C3  UNL     1      -5.970  16.155 -25.917  1.00  0.00     0.278 C 
HETATM   44  O2  UNL     1      -4.764  15.770 -25.874  1.00  0.00    -0.263 OA
BRANCH  43  45
HETATM   45  O1  UNL     1      -6.694  16.132 -24.734  1.00  0.00    -0.321 OA
BRANCH  45  46
HETATM   46  C2  UNL     1      -7.483  17.244 -24.403  1.00  0.00     0.174 C 
HETATM   47  C1  UNL     1      -6.976  17.952 -23.161  1.00  0.00     0.034 C 
ENDBRANCH  45  46
ENDBRANCH  43  45
ENDBRANCH  42  43
ENDBRANCH  40  42
ENDBRANCH  38  40
ENDBRANCH   1  38
BRANCH   8  48
HETATM   48  N13 UNL     1      -8.842  19.290 -30.780  1.00  0.00    -0.217 N 
ATOM     49  H13 UNL     1      -9.182  19.805 -29.968  1.00  0.00     0.178 HD
BRANCH  48  50
HETATM   50  C17 UNL     1      -9.727  19.325 -31.876  1.00  0.00     0.036 C 
HETATM   51  C18 UNL     1      -9.644  18.115 -32.774  1.00  0.00     0.038 C 
HETATM   52  C19 UNL     1     -11.145  19.434 -31.360  1.00  0.00     0.038 C 
HETATM   53  C20 UNL     1      -9.515  20.564 -32.745  1.00  0.00     0.038 C 
ENDBRANCH  48  50
ENDBRANCH   8  48
TORSDOF 15
ENDMDL
MODEL 3
REMARK VINA RESULT: -8.675651160      2.633      5.747
REMARK  15 active torsions:
REMARK  status: ('A' for Active; 'I' for Inactive)
REMARK    1  A    between atoms: C2_2  and  O1_3 
REMARK    2  A    between atoms: O1_3  and  C3_4 
REMARK    3  A    between atoms: C3_4  and  C4_6 
REMARK    4  A    between atoms: C4_6  and  N1_7 
REMARK    5  A    between atoms: N1_7  and  N2_9 
REMARK    6  A    between atoms: N2_9  and  C5_11 
REMARK    7  A    between atoms: C6_14  and  N4_15 
REMARK    8  A    between atoms: C7_20  and  C8_21 
REMARK    9  A    between atoms: C8_21  and  N7_22 
REMARK   10  A    between atoms: N7_22  and  C9_24 
REMARK   11  A    between atoms: C10_27  and  C11_28 
REMARK   12  A    between atoms: C14_36  and  O3_37 
REMARK   13  A    between atoms: C15_39  and  N11_40 
REMARK   14  A    between atoms: C16_45  and  N13_46 
REMARK   15  A    between atoms: N13_46  and  C17_48 
ROOT
HETATM    1  C5  UNL     1      -9.958  19.471 -29.455  1.00  0.00     0.712 C 
HETATM    2  N3  UNL     1      -8.769  19.113 -30.026  1.00  0.00    -0.169 N 
ATOM      3  H3  UNL     1      -8.067  18.720 -29.398  1.00  0.00     0.186 HD
HETATM    4  C6  UNL     1      -8.410  19.219 -31.341  1.00  0.00     0.190 C 
HETATM    5  C15 UNL     1      -9.042  20.037 -32.252  1.00  0.00     0.161 C 
HETATM    6  N12 UNL     1     -10.369  20.375 -32.297  1.00  0.00    -0.173 N 
ATOM      7  H12 UNL     1     -10.659  20.919 -33.110  1.00  0.00     0.186 HD
HETATM    8  C16 UNL     1     -11.343  20.087 -31.413  1.00  0.00     0.695 C 
HETATM    9  N14 UNL     1     -11.079  19.862 -30.084  1.00  0.00    -0.021 N 
ATOM     10  H14 UNL     1     -11.874  20.019 -29.466  1.00  0.00     0.203 HD
ENDROOT
BRANCH   4  11
HETATM   11  N4  UNL     1      -7.317  18.427 -31.783  1.00  0.00    -0.197 N 
HETATM   12  N5  UNL     1      -7.246  17.500 -32.723  1.00  0.00    -0.232 N 
HETATM   13  N6  UNL     1      -6.041  16.983 -32.826  1.00  0.00    -0.284 N 
ATOM     14  H5  UNL     1      -8.036  17.217 -33.302  1.00  0.00     0.209 HD
HETATM   15  C7  UNL     1      -5.270  17.586 -31.919  1.00  0.00     0.097 A 
ATOM     16  H6  UNL     1      -5.750  16.255 -33.479  1.00  0.00     0.188 HD
HETATM   17  C14 UNL     1      -6.091  18.506 -31.259  1.00  0.00     0.191 A 
BRANCH  15  18
HETATM   18  C8  UNL     1      -3.848  17.315 -31.680  1.00  0.00     0.184 C 
BRANCH  18  19
HETATM   19  N7  UNL     1      -3.306  16.586 -32.803  1.00  0.00    -0.373 N 
ATOM     20  H7  UNL     1      -3.018  15.617 -32.667  1.00  0.00     0.161 HD
BRANCH  19  21
HETATM   21  C9  UNL     1      -3.158  17.168 -34.090  1.00  0.00     0.083 C 
HETATM   22  N8  UNL     1      -3.450  16.465 -35.105  1.00  0.00    -0.367 N 
HETATM   23  C10 UNL     1      -3.352  16.918 -36.465  1.00  0.00     0.156 C 
ATOM     24  H8  UNL     1      -3.777  15.512 -34.945  1.00  0.00     0.161 HD
HETATM   25  C12 UNL     1      -1.957  17.451 -36.817  1.00  0.00     0.107 C 
HETATM   26  S1  UNL     1      -1.665  18.836 -35.674  1.00  0.00    -0.159 SA
HETATM   27  C13 UNL     1      -2.689  18.534 -34.220  1.00  0.00     0.149 C 
BRANCH  23  28
HETATM   28  C11 UNL     1      -4.381  17.921 -36.807  1.00  0.00     0.110 C 
HETATM   29  N9  UNL     1      -4.238  18.759 -37.789  1.00  0.00    -0.389 N 
ATOM     30  H92 UNL     1      -3.383  18.730 -38.346  1.00  0.00     0.157 HD
ATOM     31  H91 UNL     1      -4.949  19.452 -38.026  1.00  0.00     0.157 HD
HETATM   32  N10 UNL     1      -5.571  17.961 -36.032  1.00  0.00    -0.086 NA
ENDBRANCH  23  28
ENDBRANCH  19  21
ENDBRANCH  18  19
ENDBRANCH  15  18
BRANCH  17  33
HETATM   33  O3  UNL     1      -5.665  19.335 -30.241  1.00  0.00    -0.343 OA
ATOM     34  H3  UNL     1      -5.893  19.285 -29.320  1.00  0.00     0.219 HD
ENDBRANCH  17  33
ENDBRANCH   4  11
BRANCH   5  35
HETATM   35  N11 UNL     1      -8.288  20.528 -33.152  1.00  0.00    -0.382 N 
ATOM     36 2H11 UNL     1      -8.728  20.797 -34.032  1.00  0.00     0.157 HD
ATOM     37 1H11 UNL     1      -7.303  20.606 -32.897  1.00  0.00     0.157 HD
ENDBRANCH   5  35
BRANCH   1  38
HETATM   38  N2  UNL     1      -9.978  19.417 -28.164  1.00  0.00    -0.135 N 
ATOM     39  H2  UNL     1     -10.717  18.884 -27.707  1.00  0.00     0.205 HD
BRANCH  38  40
HETATM   40  N1  UNL     1      -9.026  20.062 -27.374  1.00  0.00    -0.313 N 
ATOM     41  H1  UNL     1      -8.830  21.048 -27.545  1.00  0.00     0.181 HD
BRANCH  40  42
HETATM   42  C4  UNL     1      -8.305  19.377 -26.316  1.00  0.00     0.251 C 
BRANCH  42  43
HETATM   43  C3  UNL     1      -7.948  18.015 -26.791  1.00  0.00     0.278 C 
HETATM   44  O2  UNL     1      -8.317  16.993 -26.142  1.00  0.00    -0.263 OA
BRANCH  43  45
HETATM   45  O1  UNL     1      -7.207  17.809 -27.946  1.00  0.00    -0.321 OA
BRANCH  45  46
HETATM   46  C2  UNL     1      -6.459  16.629 -28.069  1.00  0.00     0.174 C 
HETATM   47  C1  UNL     1      -6.995  15.726 -29.162  1.00  0.00     0.034 C 
ENDBRANCH  45  46
ENDBRANCH  43  45
ENDBRANCH  42  43
ENDBRANCH  40  42
ENDBRANCH  38  40
ENDBRANCH   1  38
BRANCH   8  48
HETATM   48  N13 UNL     1     -12.558  20.006 -31.757  1.00  0.00    -0.217 N 
ATOM     49  H13 UNL     1     -13.137  20.755 -31.377  1.00  0.00     0.178 HD
BRANCH  48  50
HETATM   50  C17 UNL     1     -13.276  19.095 -32.556  1.00  0.00     0.036 C 
HETATM   51  C18 UNL     1     -12.705  17.698 -32.564  1.00  0.00     0.038 C 
HETATM   52  C19 UNL     1     -14.702  19.019 -32.056  1.00  0.00     0.038 C 
HETATM   53  C20 UNL     1     -13.380  19.562 -34.008  1.00  0.00     0.038 C 
ENDBRANCH  48  50
ENDBRANCH   8  48
TORSDOF 15
ENDMDL
MODEL 4
REMARK VINA RESULT: -8.661655762      2.865      6.229
REMARK  15 active torsions:
REMARK  status: ('A' for Active; 'I' for Inactive)
REMARK    1  A    between atoms: C2_2  and  O1_3 
REMARK    2  A    between atoms: O1_3  and  C3_4 
REMARK    3  A    between atoms: C3_4  and  C4_6 
REMARK    4  A    between atoms: C4_6  and  N1_7 
REMARK    5  A    between atoms: N1_7  and  N2_9 
REMARK    6  A    between atoms: N2_9  and  C5_11 
REMARK    7  A    between atoms: C6_14  and  N4_15 
REMARK    8  A    between atoms: C7_20  and  C8_21 
REMARK    9  A    between atoms: C8_21  and  N7_22 
REMARK   10  A    between atoms: N7_22  and  C9_24 
REMARK   11  A    between atoms: C10_27  and  C11_28 
REMARK   12  A    between atoms: C14_36  and  O3_37 
REMARK   13  A    between atoms: C15_39  and  N11_40 
REMARK   14  A    between atoms: C16_45  and  N13_46 
REMARK   15  A    between atoms: N13_46  and  C17_48 
ROOT
HETATM    1  C5  UNL     1      -6.887  16.539 -29.890  1.00  0.00     0.712 C 
HETATM    2  N3  UNL     1      -5.712  16.521 -30.588  1.00  0.00    -0.169 N 
ATOM      3  H3  UNL     1      -5.202  15.638 -30.590  1.00  0.00     0.186 HD
HETATM    4  C6  UNL     1      -5.141  17.549 -31.286  1.00  0.00     0.190 C 
HETATM    5  C15 UNL     1      -5.460  18.878 -31.106  1.00  0.00     0.161 C 
HETATM    6  N12 UNL     1      -6.677  19.411 -30.770  1.00  0.00    -0.173 N 
ATOM      7  H12 UNL     1      -6.731  20.429 -30.778  1.00  0.00     0.186 HD
HETATM    8  C16 UNL     1      -7.812  18.771 -30.430  1.00  0.00     0.695 C 
HETATM    9  N14 UNL     1      -7.803  17.521 -29.863  1.00  0.00    -0.021 N 
ATOM     10  H14 UNL     1      -8.641  17.299 -29.326  1.00  0.00     0.203 HD
ENDROOT
BRANCH   4  11
HETATM   11  N4  UNL     1      -4.160  17.212 -32.256  1.00  0.00    -0.197 N 
HETATM   12  N5  UNL     1      -3.080  16.455 -32.166  1.00  0.00    -0.232 N 
HETATM   13  N6  UNL     1      -2.414  16.396 -33.299  1.00  0.00    -0.284 N 
ATOM     14  H5  UNL     1      -2.795  15.972 -31.315  1.00  0.00     0.209 HD
HETATM   15  C7  UNL     1      -3.074  17.143 -34.187  1.00  0.00     0.097 A 
ATOM     16  H6  UNL     1      -1.554  15.875 -33.468  1.00  0.00     0.188 HD
HETATM   17  C14 UNL     1      -4.187  17.660 -33.514  1.00  0.00     0.191 A 
BRANCH  15  18
HETATM   18  C8  UNL     1      -2.684  17.366 -35.584  1.00  0.00     0.184 C 
BRANCH  18  19
HETATM   19  N7  UNL     1      -3.345  16.395 -36.425  1.00  0.00    -0.373 N 
ATOM     20  H7  UNL     1      -2.933  15.467 -36.521  1.00  0.00     0.161 HD
BRANCH  19  21
HETATM   21  C9  UNL     1      -4.548  16.684 -37.122  1.00  0.00     0.083 C 
HETATM   22  N8  UNL     1      -5.188  17.734 -36.806  1.00  0.00    -0.367 N 
HETATM   23  C10 UNL     1      -6.415  18.155 -37.422  1.00  0.00     0.156 C 
ATOM     24  H8  UNL     1      -4.804  18.320 -36.064  1.00  0.00     0.161 HD
HETATM   25  C12 UNL     1      -7.504  17.076 -37.383  1.00  0.00     0.107 C 
HETATM   26  S1  UNL     1      -6.810  15.654 -38.281  1.00  0.00    -0.159 SA
HETATM   27  C13 UNL     1      -5.015  15.793 -38.167  1.00  0.00     0.149 C 
BRANCH  23  28
HETATM   28  C11 UNL     1      -6.222  18.633 -38.806  1.00  0.00     0.110 C 
HETATM   29  N9  UNL     1      -5.128  19.216 -39.196  1.00  0.00    -0.389 N 
ATOM     30  H92 UNL     1      -4.372  19.353 -38.525  1.00  0.00     0.157 HD
ATOM     31  H91 UNL     1      -4.995  19.546 -40.153  1.00  0.00     0.157 HD
HETATM   32  N10 UNL     1      -7.274  18.442 -39.741  1.00  0.00    -0.086 NA
ENDBRANCH  23  28
ENDBRANCH  19  21
ENDBRANCH  18  19
ENDBRANCH  15  18
BRANCH  17  33
HETATM   33  O3  UNL     1      -5.126  18.489 -34.091  1.00  0.00    -0.343 OA
ATOM     34  H3  UNL     1      -4.984  19.347 -34.472  1.00  0.00     0.219 HD
ENDBRANCH  17  33
ENDBRANCH   4  11
BRANCH   5  35
HETATM   35  N11 UNL     1      -4.497  19.693 -31.275  1.00  0.00    -0.382 N 
ATOM     36 2H11 UNL     1      -3.566  19.374 -31.010  1.00  0.00     0.157 HD
ATOM     37 1H11 UNL     1      -4.759  20.598 -31.665  1.00  0.00     0.157 HD
ENDBRANCH   5  35
BRANCH   1  38
HETATM   38  N2  UNL     1      -7.115  15.481 -29.186  1.00  0.00    -0.135 N 
ATOM     39  H2  UNL     1      -7.547  14.675 -29.638  1.00  0.00     0.205 HD
BRANCH  38  40
HETATM   40  N1  UNL     1      -6.795  15.399 -27.831  1.00  0.00    -0.313 N 
ATOM     41  H1  UNL     1      -6.424  14.523 -27.464  1.00  0.00     0.181 HD
BRANCH  40  42
HETATM   42  C4  UNL     1      -6.971  16.520 -26.925  1.00  0.00     0.251 C 
BRANCH  42  43
HETATM   43  C3  UNL     1      -5.988  16.393 -25.817  1.00  0.00     0.278 C 
HETATM   44  O2  UNL     1      -4.883  15.803 -26.006  1.00  0.00    -0.263 OA
BRANCH  43  45
HETATM   45  O1  UNL     1      -6.234  16.906 -24.552  1.00  0.00    -0.321 OA
BRANCH  45  46
HETATM   46  C2  UNL     1      -7.533  17.327 -24.234  1.00  0.00     0.174 C 
HETATM   47  C1  UNL     1      -7.555  18.734 -23.669  1.00  0.00     0.034 C 
ENDBRANCH  45  46
ENDBRANCH  43  45
ENDBRANCH  42  43
ENDBRANCH  40  42
ENDBRANCH  38  40
ENDBRANCH   1  38
BRANCH   8  48
HETATM   48  N13 UNL     1      -8.953  19.287 -30.616  1.00  0.00    -0.217 N 
ATOM     49  H13 UNL     1      -9.311  19.783 -29.799  1.00  0.00     0.178 HD
BRANCH  48  50
HETATM   50  C17 UNL     1      -9.831  19.317 -31.717  1.00  0.00     0.036 C 
HETATM   51  C18 UNL     1      -9.673  18.153 -32.664  1.00  0.00     0.038 C 
HETATM   52  C19 UNL     1     -11.257  19.324 -31.211  1.00  0.00     0.038 C 
HETATM   53  C20 UNL     1      -9.684  20.602 -32.533  1.00  0.00     0.038 C 
ENDBRANCH  48  50
ENDBRANCH   8  48
TORSDOF 15
ENDMDL
MODEL 5
REMARK VINA RESULT: -8.661465710      4.189      8.572
REMARK  15 active torsions:
REMARK  status: ('A' for Active; 'I' for Inactive)
REMARK    1  A    between atoms: C2_2  and  O1_3 
REMARK    2  A    between atoms: O1_3  and  C3_4 
REMARK    3  A    between atoms: C3_4  and  C4_6 
REMARK    4  A    between atoms: C4_6  and  N1_7 
REMARK    5  A    between atoms: N1_7  and  N2_9 
REMARK    6  A    between atoms: N2_9  and  C5_11 
REMARK    7  A    between atoms: C6_14  and  N4_15 
REMARK    8  A    between atoms: C7_20  and  C8_21 
REMARK    9  A    between atoms: C8_21  and  N7_22 
REMARK   10  A    between atoms: N7_22  and  C9_24 
REMARK   11  A    between atoms: C10_27  and  C11_28 
REMARK   12  A    between atoms: C14_36  and  O3_37 
REMARK   13  A    between atoms: C15_39  and  N11_40 
REMARK   14  A    between atoms: C16_45  and  N13_46 
REMARK   15  A    between atoms: N13_46  and  C17_48 
ROOT
HETATM    1  C5  UNL     1      -5.504  19.312 -31.976  1.00  0.00     0.712 C 
HETATM    2  N3  UNL     1      -6.838  19.457 -32.232  1.00  0.00    -0.169 N 
ATOM      3  H3  UNL     1      -7.393  19.898 -31.499  1.00  0.00     0.186 HD
HETATM    4  C6  UNL     1      -7.517  19.079 -33.358  1.00  0.00     0.190 C 
HETATM    5  C15 UNL     1      -7.047  18.163 -34.274  1.00  0.00     0.161 C 
HETATM    6  N12 UNL     1      -5.746  17.935 -34.642  1.00  0.00    -0.173 N 
ATOM      7  H12 UNL     1      -5.613  17.277 -35.410  1.00  0.00     0.186 HD
HETATM    8  C16 UNL     1      -4.620  18.463 -34.127  1.00  0.00     0.695 C 
HETATM    9  N14 UNL     1      -4.549  18.908 -32.830  1.00  0.00    -0.021 N 
ATOM     10  H14 UNL     1      -3.604  18.935 -32.448  1.00  0.00     0.203 HD
ENDROOT
BRANCH   4  11
HETATM   11  N4  UNL     1      -8.783  19.680 -33.587  1.00  0.00    -0.197 N 
HETATM   12  N5  UNL     1      -9.111  20.777 -34.249  1.00  0.00    -0.232 N 
HETATM   13  N6  UNL     1     -10.407  21.006 -34.225  1.00  0.00    -0.284 N 
ATOM     14  H5  UNL     1      -8.437  21.377 -34.724  1.00  0.00     0.209 HD
HETATM   15  C7  UNL     1     -10.972  20.024 -33.519  1.00  0.00     0.097 A 
ATOM     16  H6  UNL     1     -10.890  21.789 -34.666  1.00  0.00     0.188 HD
HETATM   17  C14 UNL     1      -9.929  19.183 -33.117  1.00  0.00     0.191 A 
BRANCH  15  18
HETATM   18  C8  UNL     1     -12.404  19.883 -33.233  1.00  0.00     0.184 C 
BRANCH  18  19
HETATM   19  N7  UNL     1     -13.044  19.194 -34.330  1.00  0.00    -0.373 N 
ATOM     20  H7  UNL     1     -13.466  19.745 -35.077  1.00  0.00     0.161 HD
BRANCH  19  21
HETATM   21  C9  UNL     1     -13.106  17.777 -34.406  1.00  0.00     0.083 C 
HETATM   22  N8  UNL     1     -12.607  17.207 -35.424  1.00  0.00    -0.367 N 
HETATM   23  C10 UNL     1     -12.596  15.787 -35.638  1.00  0.00     0.156 C 
ATOM     24  H8  UNL     1     -12.184  17.799 -36.140  1.00  0.00     0.161 HD
HETATM   25  C12 UNL     1     -13.993  15.160 -35.556  1.00  0.00     0.107 C 
HETATM   26  S1  UNL     1     -14.595  15.535 -33.881  1.00  0.00    -0.159 SA
HETATM   27  C13 UNL     1     -13.725  17.019 -33.336  1.00  0.00     0.149 C 
BRANCH  23  28
HETATM   28  C11 UNL     1     -11.668  15.082 -34.731  1.00  0.00     0.110 C 
HETATM   29  N9  UNL     1     -11.856  13.850 -34.362  1.00  0.00    -0.389 N 
ATOM     30  H92 UNL     1     -12.675  13.348 -34.705  1.00  0.00     0.157 HD
ATOM     31  H91 UNL     1     -11.215  13.362 -33.736  1.00  0.00     0.157 HD
HETATM   32  N10 UNL     1     -10.527  15.780 -34.254  1.00  0.00    -0.086 NA
ENDBRANCH  23  28
ENDBRANCH  19  21
ENDBRANCH  18  19
ENDBRANCH  15  18
BRANCH  17  33
HETATM   33  O3  UNL     1     -10.101  18.042 -32.359  1.00  0.00    -0.343 OA
ATOM     34  H3  UNL     1      -9.431  17.440 -32.059  1.00  0.00     0.219 HD
ENDBRANCH  17  33
ENDBRANCH   4  11
BRANCH   5  35
HETATM   35  N11 UNL     1      -7.941  17.451 -34.834  1.00  0.00    -0.382 N 
ATOM     36 2H11 UNL     1      -8.660  17.942 -35.364  1.00  0.00     0.157 HD
ATOM     37 1H11 UNL     1      -7.845  16.446 -34.695  1.00  0.00     0.157 HD
ENDBRANCH   5  35
BRANCH   1  38
HETATM   38  N2  UNL     1      -5.149  19.605 -30.769  1.00  0.00    -0.135 N 
ATOM     39  H2  UNL     1      -4.286  20.129 -30.625  1.00  0.00     0.205 HD
BRANCH  38  40
HETATM   40  N1  UNL     1      -5.902  19.231 -29.656  1.00  0.00    -0.313 N 
ATOM     41  H1  UNL     1      -6.260  19.958 -29.036  1.00  0.00     0.181 HD
BRANCH  40  42
HETATM   42  C4  UNL     1      -6.193  17.842 -29.349  1.00  0.00     0.251 C 
BRANCH  42  43
HETATM   43  C3  UNL     1      -7.642  17.601 -29.576  1.00  0.00     0.278 C 
HETATM   44  O2  UNL     1      -8.035  16.990 -30.613  1.00  0.00    -0.263 OA
BRANCH  43  45
HETATM   45  O1  UNL     1      -8.609  18.026 -28.676  1.00  0.00    -0.321 OA
BRANCH  45  46
HETATM   46  C2  UNL     1      -9.425  19.112 -29.024  1.00  0.00     0.174 C 
HETATM   47  C1  UNL     1      -9.614  20.076 -27.869  1.00  0.00     0.034 C 
ENDBRANCH  45  46
ENDBRANCH  43  45
ENDBRANCH  42  43
ENDBRANCH  40  42
ENDBRANCH  38  40
ENDBRANCH   1  38
BRANCH   8  48
HETATM   48  N13 UNL     1      -3.561  18.581 -34.812  1.00  0.00    -0.217 N 
ATOM     49  H13 UNL     1      -3.320  19.550 -35.021  1.00  0.00     0.178 HD
BRANCH  48  50
HETATM   50  C17 UNL     1      -2.648  17.650 -35.343  1.00  0.00     0.036 C 
HETATM   51  C18 UNL     1      -1.350  18.259 -35.815  1.00  0.00     0.038 C 
HETATM   52  C19 UNL     1      -2.327  16.616 -34.287  1.00  0.00     0.038 C 
HETATM   53  C20 UNL     1      -3.244  16.865 -36.512  1.00  0.00     0.038 C 
ENDBRANCH  48  50
ENDBRANCH   8  48
TORSDOF 15
ENDMDL
