MODEL 1
REMARK VINA RESULT: -10.654517504      0.000      0.000
REMARK  15 active torsions:
REMARK  status: ('A' for Active; 'I' for Inactive)
REMARK    1  A    between atoms: C5_6  and  O2_7 
REMARK    2  A    between atoms: C9_12  and  O3_13 
REMARK    3  A    between atoms: O3_13  and  C10_14 
REMARK    4  A    between atoms: C10_14  and  C11_16 
REMARK    5  A    between atoms: C11_16  and  N1_17 
REMARK    6  A    between atoms: C11_16  and  C12_21 
REMARK    7  A    between atoms: C12_21  and  N2_22 
REMARK    8  A    between atoms: C12_21  and  C21_43 
REMARK    9  A    between atoms: N2_22  and  C13_24 
REMARK   10  A    between atoms: C13_24  and  C14_28 
REMARK       I    between atoms: C14_28  and  N4_30 
REMARK   11  A    between atoms: N4_30  and  C15_32 
REMARK   12  A    between atoms: C18_35  and  O6_36 
REMARK   13  A    between atoms: C19_38  and  N5_39 
REMARK   14  A    between atoms: C21_43  and  C22_48 
REMARK   15  A    between atoms: N6_44  and  O9_46 
ROOT
HETATM    1  C12 UNL     1      -7.574  18.791 -30.233  1.00  0.00     0.181 C 
ENDROOT
BRANCH   1   2
HETATM    2  C11 UNL     1      -6.491  19.467 -31.017  1.00  0.00     0.311 C 
BRANCH   2   3
HETATM    3  C10 UNL     1      -6.039  18.750 -32.192  1.00  0.00     0.297 C 
HETATM    4  O4  UNL     1      -6.821  18.016 -32.858  1.00  0.00    -0.262 OA
BRANCH   3   5
HETATM    5  O3  UNL     1      -4.724  18.849 -32.624  1.00  0.00    -0.279 OA
BRANCH   5   6
HETATM    6  C9  UNL     1      -4.006  17.676 -32.902  1.00  0.00     0.091 A 
HETATM    7  C3  UNL     1      -3.199  17.716 -33.949  1.00  0.00     0.118 A 
HETATM    8  O1  UNL     1      -2.907  18.654 -34.825  1.00  0.00    -0.309 OA
HETATM    9  C4  UNL     1      -2.444  16.599 -34.303  1.00  0.00     0.032 A 
HETATM   10  C2  UNL     1      -2.039  18.246 -35.705  1.00  0.00     0.084 A 
HETATM   11  C1  UNL     1      -1.511  19.092 -36.835  1.00  0.00     0.079 C 
HETATM   12  C5  UNL     1      -1.708  16.946 -35.426  1.00  0.00     0.107 A 
HETATM   13  C6  UNL     1      -2.543  15.504 -33.585  1.00  0.00    -0.009 A 
HETATM   14  C7  UNL     1      -3.397  15.321 -32.400  1.00  0.00     0.035 A 
HETATM   15  C8  UNL     1      -4.209  16.525 -32.027  1.00  0.00     0.072 A 
BRANCH  12  16
HETATM   16  O2  UNL     1      -0.817  16.134 -36.116  1.00  0.00    -0.357 OA
ATOM     17  H2  UNL     1      -1.019  15.502 -36.796  1.00  0.00     0.217 HD
ENDBRANCH  12  16
ENDBRANCH   5   6
ENDBRANCH   3   5
ENDBRANCH   2   3
BRANCH   2  18
HETATM   18  N1  UNL     1      -5.294  19.558 -30.132  1.00  0.00    -0.064 N 
ATOM     19  H13 UNL     1      -4.837  18.662 -29.962  1.00  0.00     0.275 HD
ATOM     20  H12 UNL     1      -4.494  20.018 -30.565  1.00  0.00     0.275 HD
ATOM     21  H11 UNL     1      -5.625  20.018 -29.284  1.00  0.00     0.275 HD
ENDBRANCH   2  18
ENDBRANCH   1   2
BRANCH   1  22
HETATM   22  N2  UNL     1      -7.378  17.341 -30.200  1.00  0.00    -0.359 N 
ATOM     23  H2  UNL     1      -7.222  16.863 -31.087  1.00  0.00     0.162 HD
BRANCH  22  24
HETATM   24  C13 UNL     1      -7.387  16.559 -29.031  1.00  0.00     0.165 C 
HETATM   25  N3  UNL     1      -6.826  15.403 -29.021  1.00  0.00    -0.381 N 
ATOM     26  H32 UNL     1      -6.397  15.100 -29.895  1.00  0.00     0.157 HD
ATOM     27  H31 UNL     1      -6.834  14.835 -28.173  1.00  0.00     0.157 HD
BRANCH  24  28
HETATM   28  C14 UNL     1      -8.012  16.999 -27.756  1.00  0.00     0.289 C 
HETATM   29  O5  UNL     1      -9.265  17.025 -27.765  1.00  0.00    -0.264 OA
HETATM   30  N4  UNL     1      -7.197  17.340 -26.670  1.00  0.00    -0.320 N 
ATOM     31  H4  UNL     1      -6.194  17.257 -26.835  1.00  0.00     0.169 HD
BRANCH  30  32
HETATM   32  C15 UNL     1      -7.557  17.777 -25.393  1.00  0.00     0.037 A 
HETATM   33  C16 UNL     1      -7.840  19.089 -25.093  1.00  0.00     0.032 A 
HETATM   34  C17 UNL     1      -8.207  19.436 -23.809  1.00  0.00     0.041 A 
HETATM   35  C18 UNL     1      -8.307  18.496 -22.772  1.00  0.00     0.098 A 
HETATM   36  C19 UNL     1      -8.023  17.183 -23.064  1.00  0.00     0.138 A 
HETATM   37  C20 UNL     1      -7.657  16.841 -24.352  1.00  0.00     0.068 A 
BRANCH  35  38
HETATM   38  O6  UNL     1      -8.682  18.942 -21.534  1.00  0.00    -0.358 OA
ATOM     39  H6  UNL     1      -9.558  18.734 -21.231  1.00  0.00     0.217 HD
ENDBRANCH  35  38
BRANCH  36  40
HETATM   40  N5  UNL     1      -8.096  16.140 -22.092  1.00  0.00    -0.113 N 
HETATM   41  O7  UNL     1      -7.149  15.882 -21.355  1.00  0.00    -0.532 OA
HETATM   42  O8  UNL     1      -9.279  15.426 -22.042  1.00  0.00    -0.532 OA
ENDBRANCH  36  40
ENDBRANCH  30  32
ENDBRANCH  24  28
ENDBRANCH  22  24
ENDBRANCH   1  22
BRANCH   1  43
HETATM   43  C21 UNL     1      -8.951  19.156 -30.515  1.00  0.00     0.121 C 
HETATM   44  N6  UNL     1      -9.632  19.719 -29.525  1.00  0.00    -0.266 N 
ATOM     45  H6  UNL     1     -10.604  20.000 -29.655  1.00  0.00     0.194 HD
BRANCH  44  46
HETATM   46  O9  UNL     1      -9.017  19.913 -28.346  1.00  0.00    -0.290 OA
ATOM     47  H9  UNL     1      -9.463  19.650 -27.550  1.00  0.00     0.244 HD
ENDBRANCH  44  46
BRANCH  43  48
HETATM   48  C22 UNL     1      -9.684  19.030 -31.766  1.00  0.00     0.281 C 
HETATM   49  N7  UNL     1      -9.983  17.720 -32.289  1.00  0.00    -0.056 NA
HETATM   50  O10 UNL     1     -10.106  19.967 -32.479  1.00  0.00    -0.270 OA
ENDBRANCH  43  48
ENDBRANCH   1  43
TORSDOF 15
ENDMDL
MODEL 2
REMARK VINA RESULT: -10.399905154      1.814      2.225
REMARK  15 active torsions:
REMARK  status: ('A' for Active; 'I' for Inactive)
REMARK    1  A    between atoms: C5_6  and  O2_7 
REMARK    2  A    between atoms: C9_12  and  O3_13 
REMARK    3  A    between atoms: O3_13  and  C10_14 
REMARK    4  A    between atoms: C10_14  and  C11_16 
REMARK    5  A    between atoms: C11_16  and  N1_17 
REMARK    6  A    between atoms: C11_16  and  C12_21 
REMARK    7  A    between atoms: C12_21  and  N2_22 
REMARK    8  A    between atoms: C12_21  and  C21_43 
REMARK    9  A    between atoms: N2_22  and  C13_24 
REMARK   10  A    between atoms: C13_24  and  C14_28 
REMARK       I    between atoms: C14_28  and  N4_30 
REMARK   11  A    between atoms: N4_30  and  C15_32 
REMARK   12  A    between atoms: C18_35  and  O6_36 
REMARK   13  A    between atoms: C19_38  and  N5_39 
REMARK   14  A    between atoms: C21_43  and  C22_48 
REMARK   15  A    between atoms: N6_44  and  O9_46 
ROOT
HETATM    1  C12 UNL     1      -7.585  18.603 -29.928  1.00  0.00     0.181 C 
ENDROOT
BRANCH   1   2
HETATM    2  C11 UNL     1      -6.497  18.948 -30.897  1.00  0.00     0.311 C 
BRANCH   2   3
HETATM    3  C10 UNL     1      -5.927  17.824 -31.613  1.00  0.00     0.297 C 
HETATM    4  O4  UNL     1      -5.220  16.958 -31.026  1.00  0.00    -0.262 OA
BRANCH   3   5
HETATM    5  O3  UNL     1      -6.143  17.663 -32.974  1.00  0.00    -0.279 OA
BRANCH   5   6
HETATM    6  C9  UNL     1      -5.118  18.002 -33.873  1.00  0.00     0.091 A 
HETATM    7  C3  UNL     1      -5.447  18.027 -35.153  1.00  0.00     0.118 A 
HETATM    8  O1  UNL     1      -6.569  17.796 -35.799  1.00  0.00    -0.309 OA
HETATM    9  C4  UNL     1      -4.497  18.354 -36.119  1.00  0.00     0.032 A 
HETATM   10  C2  UNL     1      -6.431  17.943 -37.086  1.00  0.00     0.084 A 
HETATM   11  C1  UNL     1      -7.538  17.744 -38.089  1.00  0.00     0.079 C 
HETATM   12  C5  UNL     1      -5.134  18.296 -37.350  1.00  0.00     0.107 A 
HETATM   13  C6  UNL     1      -3.271  18.636 -35.745  1.00  0.00    -0.009 A 
HETATM   14  C7  UNL     1      -2.770  18.647 -34.360  1.00  0.00     0.035 A 
HETATM   15  C8  UNL     1      -3.796  18.292 -33.326  1.00  0.00     0.072 A 
BRANCH  12  16
HETATM   16  O2  UNL     1      -4.563  18.550 -38.591  1.00  0.00    -0.357 OA
ATOM     17  H2  UNL     1      -4.224  17.916 -39.211  1.00  0.00     0.217 HD
ENDBRANCH  12  16
ENDBRANCH   5   6
ENDBRANCH   3   5
ENDBRANCH   2   3
BRANCH   2  18
HETATM   18  N1  UNL     1      -5.367  19.521 -30.110  1.00  0.00    -0.064 N 
ATOM     19  H13 UNL     1      -4.751  18.818 -29.700  1.00  0.00     0.275 HD
ATOM     20  H12 UNL     1      -4.657  19.980 -30.681  1.00  0.00     0.275 HD
ATOM     21  H11 UNL     1      -5.805  20.135 -29.424  1.00  0.00     0.275 HD
ENDBRANCH   2  18
ENDBRANCH   1   2
BRANCH   1  22
HETATM   22  N2  UNL     1      -7.721  17.154 -29.778  1.00  0.00    -0.359 N 
ATOM     23  H2  UNL     1      -8.019  16.619 -30.594  1.00  0.00     0.162 HD
BRANCH  22  24
HETATM   24  C13 UNL     1      -7.472  16.445 -28.589  1.00  0.00     0.165 C 
HETATM   25  N3  UNL     1      -6.688  15.426 -28.595  1.00  0.00    -0.381 N 
ATOM     26  H32 UNL     1      -6.283  15.173 -29.496  1.00  0.00     0.157 HD
ATOM     27  H31 UNL     1      -6.507  14.912 -27.733  1.00  0.00     0.157 HD
BRANCH  24  28
HETATM   28  C14 UNL     1      -8.062  16.814 -27.276  1.00  0.00     0.289 C 
HETATM   29  O5  UNL     1      -9.300  16.642 -27.187  1.00  0.00    -0.264 OA
HETATM   30  N4  UNL     1      -7.233  17.308 -26.261  1.00  0.00    -0.320 N 
ATOM     31  H4  UNL     1      -6.244  17.381 -26.503  1.00  0.00     0.169 HD
BRANCH  30  32
HETATM   32  C15 UNL     1      -7.561  17.717 -24.967  1.00  0.00     0.037 A 
HETATM   33  C16 UNL     1      -7.669  19.036 -24.593  1.00  0.00     0.032 A 
HETATM   34  C17 UNL     1      -8.017  19.356 -23.297  1.00  0.00     0.041 A 
HETATM   35  C18 UNL     1      -8.271  18.381 -22.321  1.00  0.00     0.098 A 
HETATM   36  C19 UNL     1      -8.164  17.060 -22.687  1.00  0.00     0.138 A 
HETATM   37  C20 UNL     1      -7.815  16.746 -23.986  1.00  0.00     0.068 A 
BRANCH  35  38
HETATM   38  O6  UNL     1      -8.613  18.803 -21.064  1.00  0.00    -0.358 OA
ATOM     39  H6  UNL     1      -9.520  19.032 -20.902  1.00  0.00     0.217 HD
ENDBRANCH  35  38
BRANCH  36  40
HETATM   40  N5  UNL     1      -8.404  15.983 -21.781  1.00  0.00    -0.113 N 
HETATM   41  O7  UNL     1      -7.648  15.753 -20.841  1.00  0.00    -0.532 OA
HETATM   42  O8  UNL     1      -9.517  15.203 -22.033  1.00  0.00    -0.532 OA
ENDBRANCH  36  40
ENDBRANCH  30  32
ENDBRANCH  24  28
ENDBRANCH  22  24
ENDBRANCH   1  22
BRANCH   1  43
HETATM   43  C21 UNL     1      -8.868  19.267 -30.077  1.00  0.00     0.121 C 
HETATM   44  N6  UNL     1      -9.392  19.800 -28.980  1.00  0.00    -0.266 N 
ATOM     45  H6  UNL     1     -10.292  20.280 -29.014  1.00  0.00     0.194 HD
BRANCH  44  46
HETATM   46  O9  UNL     1      -8.717  19.694 -27.824  1.00  0.00    -0.290 OA
ATOM     47  H9  UNL     1      -9.016  20.195 -27.073  1.00  0.00     0.244 HD
ENDBRANCH  44  46
BRANCH  43  48
HETATM   48  C22 UNL     1      -9.647  19.472 -31.288  1.00  0.00     0.281 C 
HETATM   49  N7  UNL     1     -10.069  18.334 -32.066  1.00  0.00    -0.056 NA
HETATM   50  O10 UNL     1     -10.013  20.570 -31.761  1.00  0.00    -0.270 OA
ENDBRANCH  43  48
ENDBRANCH   1  43
TORSDOF 15
ENDMDL
MODEL 3
REMARK VINA RESULT: -10.392908035      1.623      2.669
REMARK  15 active torsions:
REMARK  status: ('A' for Active; 'I' for Inactive)
REMARK    1  A    between atoms: C5_6  and  O2_7 
REMARK    2  A    between atoms: C9_12  and  O3_13 
REMARK    3  A    between atoms: O3_13  and  C10_14 
REMARK    4  A    between atoms: C10_14  and  C11_16 
REMARK    5  A    between atoms: C11_16  and  N1_17 
REMARK    6  A    between atoms: C11_16  and  C12_21 
REMARK    7  A    between atoms: C12_21  and  N2_22 
REMARK    8  A    between atoms: C12_21  and  C21_43 
REMARK    9  A    between atoms: N2_22  and  C13_24 
REMARK   10  A    between atoms: C13_24  and  C14_28 
REMARK       I    between atoms: C14_28  and  N4_30 
REMARK   11  A    between atoms: N4_30  and  C15_32 
REMARK   12  A    between atoms: C18_35  and  O6_36 
REMARK   13  A    between atoms: C19_38  and  N5_39 
REMARK   14  A    between atoms: C21_43  and  C22_48 
REMARK   15  A    between atoms: N6_44  and  O9_46 
ROOT
HETATM    1  C12 UNL     1      -7.816  18.614 -31.931  1.00  0.00     0.181 C 
ENDROOT
BRANCH   1   2
HETATM    2  C11 UNL     1      -6.819  19.323 -32.793  1.00  0.00     0.311 C 
BRANCH   2   3
HETATM    3  C10 UNL     1      -5.556  19.632 -32.153  1.00  0.00     0.297 C 
HETATM    4  O4  UNL     1      -5.503  20.015 -30.951  1.00  0.00    -0.262 OA
BRANCH   3   5
HETATM    5  O3  UNL     1      -4.360  19.516 -32.845  1.00  0.00    -0.279 OA
BRANCH   5   6
HETATM    6  C9  UNL     1      -3.799  18.242 -33.032  1.00  0.00     0.091 A 
HETATM    7  C3  UNL     1      -3.029  18.091 -34.095  1.00  0.00     0.118 A 
HETATM    8  O1  UNL     1      -2.653  18.905 -35.058  1.00  0.00    -0.309 OA
HETATM    9  C4  UNL     1      -2.427  16.862 -34.363  1.00  0.00     0.032 A 
HETATM   10  C2  UNL     1      -1.871  18.317 -35.917  1.00  0.00     0.084 A 
HETATM   11  C1  UNL     1      -1.281  18.990 -37.131  1.00  0.00     0.079 C 
HETATM   12  C5  UNL     1      -1.691  17.016 -35.528  1.00  0.00     0.107 A 
HETATM   13  C6  UNL     1      -2.635  15.855 -33.547  1.00  0.00    -0.009 A 
HETATM   14  C7  UNL     1      -3.465  15.883 -32.331  1.00  0.00     0.035 A 
HETATM   15  C8  UNL     1      -4.112  17.207 -32.051  1.00  0.00     0.072 A 
BRANCH  12  16
HETATM   16  O2  UNL     1      -0.929  16.042 -36.161  1.00  0.00    -0.357 OA
ATOM     17  H2  UNL     1      -0.017  16.100 -36.420  1.00  0.00     0.217 HD
ENDBRANCH  12  16
ENDBRANCH   5   6
ENDBRANCH   3   5
ENDBRANCH   2   3
BRANCH   2  18
HETATM   18  N1  UNL     1      -7.406  20.646 -33.154  1.00  0.00    -0.064 N 
ATOM     19  H13 UNL     1      -8.200  20.585 -33.791  1.00  0.00     0.275 HD
ATOM     20  H12 UNL     1      -7.904  21.099 -32.388  1.00  0.00     0.275 HD
ATOM     21  H11 UNL     1      -6.626  21.192 -33.519  1.00  0.00     0.275 HD
ENDBRANCH   2  18
ENDBRANCH   1   2
BRANCH   1  22
HETATM   22  N2  UNL     1      -8.235  19.452 -30.806  1.00  0.00    -0.359 N 
ATOM     23  H2  UNL     1      -7.605  20.197 -30.510  1.00  0.00     0.162 HD
BRANCH  22  24
HETATM   24  C13 UNL     1      -9.445  19.303 -30.104  1.00  0.00     0.165 C 
HETATM   25  N3  UNL     1     -10.565  19.323 -30.733  1.00  0.00    -0.381 N 
ATOM     26  H32 UNL     1     -10.515  19.460 -31.742  1.00  0.00     0.157 HD
ATOM     27  H31 UNL     1     -11.443  19.215 -30.223  1.00  0.00     0.157 HD
BRANCH  24  28
HETATM   28  C14 UNL     1      -9.518  19.102 -28.633  1.00  0.00     0.289 C 
HETATM   29  O5  UNL     1     -10.598  18.620 -28.220  1.00  0.00    -0.264 OA
HETATM   30  N4  UNL     1      -8.421  19.449 -27.834  1.00  0.00    -0.320 N 
ATOM     31  H4  UNL     1      -7.618  19.826 -28.337  1.00  0.00     0.169 HD
BRANCH  30  32
HETATM   32  C15 UNL     1      -8.266  19.353 -26.449  1.00  0.00     0.037 A 
HETATM   33  C16 UNL     1      -8.523  20.391 -25.585  1.00  0.00     0.032 A 
HETATM   34  C17 UNL     1      -8.363  20.209 -24.227  1.00  0.00     0.041 A 
HETATM   35  C18 UNL     1      -7.942  18.990 -23.673  1.00  0.00     0.098 A 
HETATM   36  C19 UNL     1      -7.683  17.949 -24.531  1.00  0.00     0.138 A 
HETATM   37  C20 UNL     1      -7.844  18.137 -25.890  1.00  0.00     0.068 A 
BRANCH  35  38
HETATM   38  O6  UNL     1      -7.818  18.912 -22.311  1.00  0.00    -0.358 OA
ATOM     39  H6  UNL     1      -8.601  19.020 -21.785  1.00  0.00     0.217 HD
ENDBRANCH  35  38
BRANCH  36  40
HETATM   40  N5  UNL     1      -7.254  16.663 -24.081  1.00  0.00    -0.113 N 
HETATM   41  O7  UNL     1      -7.458  16.283 -22.932  1.00  0.00    -0.532 OA
HETATM   42  O8  UNL     1      -6.578  15.884 -25.001  1.00  0.00    -0.532 OA
ENDBRANCH  36  40
ENDBRANCH  30  32
ENDBRANCH  24  28
ENDBRANCH  22  24
ENDBRANCH   1  22
BRANCH   1  43
HETATM   43  C21 UNL     1      -7.522  17.251 -31.525  1.00  0.00     0.121 C 
HETATM   44  N6  UNL     1      -7.597  16.320 -32.469  1.00  0.00    -0.266 N 
ATOM     45  H6  UNL     1      -7.403  15.343 -32.252  1.00  0.00     0.194 HD
BRANCH  44  46
HETATM   46  O9  UNL     1      -7.933  16.690 -33.716  1.00  0.00    -0.290 OA
ATOM     47  H9  UNL     1      -7.957  16.029 -34.398  1.00  0.00     0.244 HD
ENDBRANCH  44  46
BRANCH  43  48
HETATM   48  C22 UNL     1      -7.105  16.764 -30.219  1.00  0.00     0.281 C 
HETATM   49  N7  UNL     1      -7.376  15.398 -29.846  1.00  0.00    -0.056 NA
HETATM   50  O10 UNL     1      -6.512  17.420 -29.335  1.00  0.00    -0.270 OA
ENDBRANCH  43  48
ENDBRANCH   1  43
TORSDOF 15
ENDMDL
MODEL 4
REMARK VINA RESULT: -10.375671426      2.056      3.066
REMARK  15 active torsions:
REMARK  status: ('A' for Active; 'I' for Inactive)
REMARK    1  A    between atoms: C5_6  and  O2_7 
REMARK    2  A    between atoms: C9_12  and  O3_13 
REMARK    3  A    between atoms: O3_13  and  C10_14 
REMARK    4  A    between atoms: C10_14  and  C11_16 
REMARK    5  A    between atoms: C11_16  and  N1_17 
REMARK    6  A    between atoms: C11_16  and  C12_21 
REMARK    7  A    between atoms: C12_21  and  N2_22 
REMARK    8  A    between atoms: C12_21  and  C21_43 
REMARK    9  A    between atoms: N2_22  and  C13_24 
REMARK   10  A    between atoms: C13_24  and  C14_28 
REMARK       I    between atoms: C14_28  and  N4_30 
REMARK   11  A    between atoms: N4_30  and  C15_32 
REMARK   12  A    between atoms: C18_35  and  O6_36 
REMARK   13  A    between atoms: C19_38  and  N5_39 
REMARK   14  A    between atoms: C21_43  and  C22_48 
REMARK   15  A    between atoms: N6_44  and  O9_46 
ROOT
HETATM    1  C12 UNL     1      -8.798  19.649 -32.611  1.00  0.00     0.181 C 
ENDROOT
BRANCH   1   2
HETATM    2  C11 UNL     1      -7.614  18.774 -32.883  1.00  0.00     0.311 C 
BRANCH   2   3
HETATM    3  C10 UNL     1      -6.390  19.162 -32.211  1.00  0.00     0.297 C 
HETATM    4  O4  UNL     1      -6.389  19.519 -30.999  1.00  0.00    -0.262 OA
BRANCH   3   5
HETATM    5  O3  UNL     1      -5.176  19.152 -32.880  1.00  0.00    -0.279 OA
BRANCH   5   6
HETATM    6  C9  UNL     1      -4.430  17.964 -32.927  1.00  0.00     0.091 A 
HETATM    7  C3  UNL     1      -3.561  17.855 -33.917  1.00  0.00     0.118 A 
HETATM    8  O1  UNL     1      -3.224  18.649 -34.910  1.00  0.00    -0.309 OA
HETATM    9  C4  UNL     1      -2.774  16.711 -34.044  1.00  0.00     0.032 A 
HETATM   10  C2  UNL     1      -2.299  18.125 -35.662  1.00  0.00     0.084 A 
HETATM   11  C1  UNL     1      -1.710  18.794 -36.878  1.00  0.00     0.079 C 
HETATM   12  C5  UNL     1      -1.973  16.892 -35.162  1.00  0.00     0.107 A 
HETATM   13  C6  UNL     1      -2.906  15.741 -33.170  1.00  0.00    -0.009 A 
HETATM   14  C7  UNL     1      -3.830  15.729 -32.024  1.00  0.00     0.035 A 
HETATM   15  C8  UNL     1      -4.676  16.961 -31.894  1.00  0.00     0.072 A 
BRANCH  12  16
HETATM   16  O2  UNL     1      -1.034  15.999 -35.661  1.00  0.00    -0.357 OA
ATOM     17  H2  UNL     1      -0.836  15.128 -35.338  1.00  0.00     0.217 HD
ENDBRANCH  12  16
ENDBRANCH   5   6
ENDBRANCH   3   5
ENDBRANCH   2   3
BRANCH   2  18
HETATM   18  N1  UNL     1      -7.308  18.882 -34.339  1.00  0.00    -0.064 N 
ATOM     19  H13 UNL     1      -7.337  19.837 -34.697  1.00  0.00     0.275 HD
ATOM     20  H12 UNL     1      -6.332  18.699 -34.571  1.00  0.00     0.275 HD
ATOM     21  H11 UNL     1      -7.966  18.251 -34.796  1.00  0.00     0.275 HD
ENDBRANCH   2  18
ENDBRANCH   1   2
BRANCH   1  22
HETATM   22  N2  UNL     1      -9.714  19.019 -31.659  1.00  0.00    -0.359 N 
ATOM     23  H2  UNL     1     -10.004  18.058 -31.844  1.00  0.00     0.162 HD
BRANCH  22  24
HETATM   24  C13 UNL     1     -10.225  19.643 -30.506  1.00  0.00     0.165 C 
HETATM   25  N3  UNL     1     -10.981  20.677 -30.611  1.00  0.00    -0.381 N 
ATOM     26  H32 UNL     1     -11.168  21.007 -31.557  1.00  0.00     0.157 HD
ATOM     27  H31 UNL     1     -11.351  21.130 -29.774  1.00  0.00     0.157 HD
BRANCH  24  28
HETATM   28  C14 UNL     1      -9.952  19.163 -29.127  1.00  0.00     0.289 C 
HETATM   29  O5  UNL     1     -10.959  18.761 -28.499  1.00  0.00    -0.264 OA
HETATM   30  N4  UNL     1      -8.641  19.186 -28.635  1.00  0.00    -0.320 N 
ATOM     31  H4  UNL     1      -7.939  19.542 -29.283  1.00  0.00     0.169 HD
BRANCH  30  32
HETATM   32  C15 UNL     1      -8.154  18.793 -27.386  1.00  0.00     0.037 A 
HETATM   33  C16 UNL     1      -8.434  19.463 -26.218  1.00  0.00     0.032 A 
HETATM   34  C17 UNL     1      -7.929  18.998 -25.022  1.00  0.00     0.041 A 
HETATM   35  C18 UNL     1      -7.127  17.850 -24.936  1.00  0.00     0.098 A 
HETATM   36  C19 UNL     1      -6.842  17.175 -26.099  1.00  0.00     0.138 A 
HETATM   37  C20 UNL     1      -7.350  17.646 -27.294  1.00  0.00     0.068 A 
BRANCH  35  38
HETATM   38  O6  UNL     1      -6.679  17.470 -23.699  1.00  0.00    -0.358 OA
ATOM     39  H6  UNL     1      -5.828  17.052 -23.642  1.00  0.00     0.217 HD
ENDBRANCH  35  38
BRANCH  36  40
HETATM   40  N5  UNL     1      -6.041  15.994 -26.132  1.00  0.00    -0.113 N 
HETATM   41  O7  UNL     1      -4.849  16.017 -25.842  1.00  0.00    -0.532 OA
HETATM   42  O8  UNL     1      -6.675  14.832 -26.531  1.00  0.00    -0.532 OA
ENDBRANCH  36  40
ENDBRANCH  30  32
ENDBRANCH  24  28
ENDBRANCH  22  24
ENDBRANCH   1  22
BRANCH   1  43
HETATM   43  C21 UNL     1      -9.493  20.230 -33.746  1.00  0.00     0.121 C 
HETATM   44  N6  UNL     1      -9.082  21.428 -34.145  1.00  0.00    -0.266 N 
ATOM     45  H6  UNL     1      -9.527  21.893 -34.936  1.00  0.00     0.194 HD
BRANCH  44  46
HETATM   46  O9  UNL     1      -8.068  22.014 -33.489  1.00  0.00    -0.290 OA
ATOM     47  H9  UNL     1      -7.292  22.266 -33.977  1.00  0.00     0.244 HD
ENDBRANCH  44  46
BRANCH  43  48
HETATM   48  C22 UNL     1     -10.564  19.654 -34.545  1.00  0.00     0.281 C 
HETATM   49  N7  UNL     1     -10.314  19.291 -35.917  1.00  0.00    -0.056 NA
HETATM   50  O10 UNL     1     -11.734  19.424 -34.166  1.00  0.00    -0.270 OA
ENDBRANCH  43  48
ENDBRANCH   1  43
TORSDOF 15
ENDMDL
MODEL 5
REMARK VINA RESULT: -10.257561635      2.292      3.233
REMARK  15 active torsions:
REMARK  status: ('A' for Active; 'I' for Inactive)
REMARK    1  A    between atoms: C5_6  and  O2_7 
REMARK    2  A    between atoms: C9_12  and  O3_13 
REMARK    3  A    between atoms: O3_13  and  C10_14 
REMARK    4  A    between atoms: C10_14  and  C11_16 
REMARK    5  A    between atoms: C11_16  and  N1_17 
REMARK    6  A    between atoms: C11_16  and  C12_21 
REMARK    7  A    between atoms: C12_21  and  N2_22 
REMARK    8  A    between atoms: C12_21  and  C21_43 
REMARK    9  A    between atoms: N2_22  and  C13_24 
REMARK   10  A    between atoms: C13_24  and  C14_28 
REMARK       I    between atoms: C14_28  and  N4_30 
REMARK   11  A    between atoms: N4_30  and  C15_32 
REMARK   12  A    between atoms: C18_35  and  O6_36 
REMARK   13  A    between atoms: C19_38  and  N5_39 
REMARK   14  A    between atoms: C21_43  and  C22_48 
REMARK   15  A    between atoms: N6_44  and  O9_46 
ROOT
HETATM    1  C12 UNL     1      -9.173  20.097 -32.571  1.00  0.00     0.181 C 
ENDROOT
BRANCH   1   2
HETATM    2  C11 UNL     1      -7.849  19.632 -33.095  1.00  0.00     0.311 C 
BRANCH   2   3
HETATM    3  C10 UNL     1      -7.166  18.655 -32.271  1.00  0.00     0.297 C 
HETATM    4  O4  UNL     1      -6.936  18.870 -31.048  1.00  0.00    -0.262 OA
BRANCH   3   5
HETATM    5  O3  UNL     1      -6.743  17.446 -32.804  1.00  0.00    -0.279 OA
BRANCH   5   6
HETATM    6  C9  UNL     1      -5.373  17.242 -33.033  1.00  0.00     0.091 A 
HETATM    7  C3  UNL     1      -4.934  17.524 -34.247  1.00  0.00     0.118 A 
HETATM    8  O1  UNL     1      -5.521  17.973 -35.336  1.00  0.00    -0.309 OA
HETATM    9  C4  UNL     1      -3.588  17.354 -34.568  1.00  0.00     0.032 A 
HETATM   10  C2  UNL     1      -4.683  18.106 -36.323  1.00  0.00     0.084 A 
HETATM   11  C1  UNL     1      -5.058  18.598 -37.698  1.00  0.00     0.079 C 
HETATM   12  C5  UNL     1      -3.438  17.728 -35.896  1.00  0.00     0.107 A 
HETATM   13  C6  UNL     1      -2.760  16.911 -33.651  1.00  0.00    -0.009 A 
HETATM   14  C7  UNL     1      -3.112  16.561 -32.265  1.00  0.00     0.035 A 
HETATM   15  C8  UNL     1      -4.561  16.742 -31.927  1.00  0.00     0.072 A 
BRANCH  12  16
HETATM   16  O2  UNL     1      -2.259  17.717 -36.631  1.00  0.00    -0.357 OA
ATOM     17  H2  UNL     1      -1.409  18.048 -36.365  1.00  0.00     0.217 HD
ENDBRANCH  12  16
ENDBRANCH   5   6
ENDBRANCH   3   5
ENDBRANCH   2   3
BRANCH   2  18
HETATM   18  N1  UNL     1      -6.943  20.817 -33.125  1.00  0.00    -0.064 N 
ATOM     19  H13 UNL     1      -7.284  21.610 -32.582  1.00  0.00     0.275 HD
ATOM     20  H12 UNL     1      -6.074  20.685 -32.608  1.00  0.00     0.275 HD
ATOM     21  H11 UNL     1      -6.808  21.023 -34.114  1.00  0.00     0.275 HD
ENDBRANCH   2  18
ENDBRANCH   1   2
BRANCH   1  22
HETATM   22  N2  UNL     1      -9.685  19.189 -31.545  1.00  0.00    -0.359 N 
ATOM     23  H2  UNL     1      -9.522  18.190 -31.672  1.00  0.00     0.162 HD
BRANCH  22  24
HETATM   24  C13 UNL     1     -10.386  19.594 -30.395  1.00  0.00     0.165 C 
HETATM   25  N3  UNL     1     -11.369  20.416 -30.491  1.00  0.00    -0.381 N 
ATOM     26  H32 UNL     1     -11.589  20.750 -31.429  1.00  0.00     0.157 HD
ATOM     27  H31 UNL     1     -11.877  20.710 -29.657  1.00  0.00     0.157 HD
BRANCH  24  28
HETATM   28  C14 UNL     1     -10.066  19.108 -29.027  1.00  0.00     0.289 C 
HETATM   29  O5  UNL     1     -11.045  18.672 -28.379  1.00  0.00    -0.264 OA
HETATM   30  N4  UNL     1      -8.743  19.162 -28.568  1.00  0.00    -0.320 N 
ATOM     31  H4  UNL     1      -8.068  19.544 -29.230  1.00  0.00     0.169 HD
BRANCH  30  32
HETATM   32  C15 UNL     1      -8.215  18.770 -27.335  1.00  0.00     0.037 A 
HETATM   33  C16 UNL     1      -8.455  19.443 -26.160  1.00  0.00     0.032 A 
HETATM   34  C17 UNL     1      -7.910  18.979 -24.981  1.00  0.00     0.041 A 
HETATM   35  C18 UNL     1      -7.106  17.831 -24.920  1.00  0.00     0.098 A 
HETATM   36  C19 UNL     1      -6.861  17.154 -26.092  1.00  0.00     0.138 A 
HETATM   37  C20 UNL     1      -7.410  17.623 -27.270  1.00  0.00     0.068 A 
BRANCH  35  38
HETATM   38  O6  UNL     1      -6.617  17.452 -23.699  1.00  0.00    -0.358 OA
ATOM     39  H6  UNL     1      -6.231  16.587 -23.622  1.00  0.00     0.217 HD
ENDBRANCH  35  38
BRANCH  36  40
HETATM   40  N5  UNL     1      -6.063  15.972 -26.150  1.00  0.00    -0.113 N 
HETATM   41  O7  UNL     1      -4.861  15.995 -25.905  1.00  0.00    -0.532 OA
HETATM   42  O8  UNL     1      -6.712  14.809 -26.521  1.00  0.00    -0.532 OA
ENDBRANCH  36  40
ENDBRANCH  30  32
ENDBRANCH  24  28
ENDBRANCH  22  24
ENDBRANCH   1  22
BRANCH   1  43
HETATM   43  C21 UNL     1     -10.193  20.477 -33.533  1.00  0.00     0.121 C 
HETATM   44  N6  UNL     1     -10.242  21.760 -33.872  1.00  0.00    -0.266 N 
ATOM     45  H6  UNL     1     -10.934  22.094 -34.542  1.00  0.00     0.194 HD
BRANCH  44  46
HETATM   46  O9  UNL     1      -9.362  22.609 -33.317  1.00  0.00    -0.290 OA
ATOM     47  H9  UNL     1      -9.339  23.508 -33.624  1.00  0.00     0.244 HD
ENDBRANCH  44  46
BRANCH  43  48
HETATM   48  C22 UNL     1     -11.152  19.626 -34.220  1.00  0.00     0.281 C 
HETATM   49  N7  UNL     1     -12.246  19.044 -33.483  1.00  0.00    -0.056 NA
HETATM   50  O10 UNL     1     -11.142  19.322 -35.433  1.00  0.00    -0.270 OA
ENDBRANCH  43  48
ENDBRANCH   1  43
TORSDOF 15
ENDMDL
