MODEL 1
REMARK VINA RESULT: -8.934214772      0.000      0.000
REMARK  12 active torsions:
REMARK  status: ('A' for Active; 'I' for Inactive)
REMARK    1  A    between atoms: C2_2  and  C3_4 
REMARK    2  A    between atoms: C3_4  and  C4_5 
REMARK    3  A    between atoms: C3_4  and  N2_16 
REMARK    4  A    between atoms: C4_5  and  S1_6 
REMARK    5  A    between atoms: S1_6  and  C5_7 
REMARK    6  A    between atoms: C5_7  and  C6_8 
REMARK       I    between atoms: C6_8  and  N1_10 
REMARK    7  A    between atoms: N1_10  and  S2_12 
REMARK    8  A    between atoms: N2_16  and  N3_18 
REMARK       I    between atoms: N3_18  and  C7_20 
REMARK    9  A    between atoms: C7_20  and  C8_22 
REMARK   10  A    between atoms: C13_29  and  O9_30 
REMARK   11  A    between atoms: C16_35  and  O11_36 
REMARK   12  A    between atoms: N4_40  and  N5_41 
ROOT
HETATM    1  C8  UNL     1      -9.577  19.306 -28.673  1.00  0.00     0.107 A 
HETATM    2  C9  UNL     1      -9.882  20.303 -27.803  1.00  0.00     0.165 A 
HETATM    3  O7  UNL     1      -9.326  20.375 -26.594  1.00  0.00    -0.302 OA
HETATM    4  C10 UNL     1      -8.470  19.504 -26.190  1.00  0.00     0.185 A 
HETATM    5  C11 UNL     1      -8.098  18.470 -27.004  1.00  0.00     0.101 A 
HETATM    6  C12 UNL     1      -8.616  18.320 -28.260  1.00  0.00     0.206 A 
HETATM    7  O8  UNL     1      -8.320  17.411 -29.051  1.00  0.00    -0.286 OA
HETATM    8  C13 UNL     1      -7.175  17.352 -26.685  1.00  0.00     0.087 C 
HETATM    9  C14 UNL     1      -6.842  16.871 -25.469  1.00  0.00     0.077 C 
HETATM   10  C15 UNL     1      -7.343  17.364 -24.182  1.00  0.00     0.110 A 
HETATM   11  O10 UNL     1      -7.427  16.684 -23.057  1.00  0.00    -0.286 OA
HETATM   12  C16 UNL     1      -7.909  17.397 -22.077  1.00  0.00     0.185 A 
HETATM   13  C17 UNL     1      -8.164  18.638 -22.585  1.00  0.00     0.098 A 
HETATM   14  C18 UNL     1      -7.813  18.631 -23.915  1.00  0.00     0.097 A 
HETATM   15  N4  UNL     1      -7.991  19.727 -24.843  1.00  0.00    -0.237 N 
ENDROOT
BRANCH   1  16
HETATM   16  C7  UNL     1     -10.141  19.048 -29.958  1.00  0.00     0.275 C 
HETATM   17  N3  UNL     1      -9.324  19.018 -31.193  1.00  0.00    -0.269 N 
ATOM     18  H3  UNL     1      -8.331  19.245 -31.218  1.00  0.00     0.190 HD
HETATM   19  O6  UNL     1     -11.377  18.816 -30.117  1.00  0.00    -0.266 OA
BRANCH  17  20
HETATM   20  N2  UNL     1     -10.004  18.674 -32.235  1.00  0.00    -0.321 N 
ATOM     21  H2  UNL     1     -10.359  17.718 -32.218  1.00  0.00     0.181 HD
BRANCH  20  22
HETATM   22  C3  UNL     1     -10.349  19.442 -33.448  1.00  0.00     0.177 C 
BRANCH  22  23
HETATM   23  C2  UNL     1      -9.282  20.410 -33.447  1.00  0.00     0.147 C 
HETATM   24  C1  UNL     1      -9.380  21.863 -33.425  1.00  0.00     0.093 C 
HETATM   25  O1  UNL     1      -8.086  19.987 -33.506  1.00  0.00    -0.296 OA
ENDBRANCH  22  23
BRANCH  22  26
HETATM   26  C4  UNL     1     -10.786  18.450 -34.434  1.00  0.00     0.113 C 
BRANCH  26  27
HETATM   27  S1  UNL     1      -9.876  17.083 -34.792  1.00  0.00    -0.134 SA
BRANCH  27  28
HETATM   28  C5  UNL     1      -8.448  16.368 -34.302  1.00  0.00     0.120 C 
BRANCH  28  29
HETATM   29  C6  UNL     1      -7.544  16.688 -33.220  1.00  0.00     0.262 C 
HETATM   30  O2  UNL     1      -7.628  16.291 -32.077  1.00  0.00    -0.267 OA
HETATM   31  N1  UNL     1      -6.458  17.562 -33.545  1.00  0.00    -0.231 N 
ATOM     32  H1  UNL     1      -6.350  17.910 -34.497  1.00  0.00     0.184 HD
BRANCH  31  33
HETATM   33  S2  UNL     1      -5.341  18.021 -32.333  1.00  0.00     0.211 S 
HETATM   34  O3  UNL     1      -6.025  18.671 -31.170  1.00  0.00    -0.578 OA
HETATM   35  O4  UNL     1      -4.322  18.982 -32.915  1.00  0.00    -0.578 OA
HETATM   36  O5  UNL     1      -4.452  16.671 -31.832  1.00  0.00    -0.578 OA
ENDBRANCH  31  33
ENDBRANCH  28  29
ENDBRANCH  27  28
ENDBRANCH  26  27
ENDBRANCH  22  26
ENDBRANCH  20  22
ENDBRANCH  17  20
ENDBRANCH   1  16
BRANCH   8  37
HETATM   37  O9  UNL     1      -6.627  16.770 -27.804  1.00  0.00    -0.359 OA
ATOM     38  H9  UNL     1      -6.437  15.846 -27.688  1.00  0.00     0.217 HD
ENDBRANCH   8  37
BRANCH  15  39
HETATM   39  N5  UNL     1      -7.737  20.968 -24.405  1.00  0.00    -0.336 N 
ATOM     40  H52 UNL     1      -7.574  21.697 -25.100  1.00  0.00     0.177 HD
ATOM     41  H51 UNL     1      -7.678  21.165 -23.406  1.00  0.00     0.177 HD
ENDBRANCH  15  39
BRANCH  12  42
HETATM   42  O11 UNL     1      -8.132  16.971 -20.747  1.00  0.00    -0.341 OA
ATOM     43  H11 UNL     1      -8.889  17.163 -20.206  1.00  0.00     0.220 HD
ENDBRANCH  12  42
TORSDOF 12
ENDMDL
MODEL 2
REMARK VINA RESULT: -8.893373946      0.931      1.374
REMARK  12 active torsions:
REMARK  status: ('A' for Active; 'I' for Inactive)
REMARK    1  A    between atoms: C2_2  and  C3_4 
REMARK    2  A    between atoms: C3_4  and  C4_5 
REMARK    3  A    between atoms: C3_4  and  N2_16 
REMARK    4  A    between atoms: C4_5  and  S1_6 
REMARK    5  A    between atoms: S1_6  and  C5_7 
REMARK    6  A    between atoms: C5_7  and  C6_8 
REMARK       I    between atoms: C6_8  and  N1_10 
REMARK    7  A    between atoms: N1_10  and  S2_12 
REMARK    8  A    between atoms: N2_16  and  N3_18 
REMARK       I    between atoms: N3_18  and  C7_20 
REMARK    9  A    between atoms: C7_20  and  C8_22 
REMARK   10  A    between atoms: C13_29  and  O9_30 
REMARK   11  A    between atoms: C16_35  and  O11_36 
REMARK   12  A    between atoms: N4_40  and  N5_41 
ROOT
HETATM    1  C8  UNL     1      -9.531  19.369 -28.488  1.00  0.00     0.107 A 
HETATM    2  C9  UNL     1      -9.829  20.354 -27.603  1.00  0.00     0.165 A 
HETATM    3  O7  UNL     1      -9.276  20.400 -26.392  1.00  0.00    -0.302 OA
HETATM    4  C10 UNL     1      -8.430  19.514 -26.000  1.00  0.00     0.185 A 
HETATM    5  C11 UNL     1      -8.066  18.490 -26.830  1.00  0.00     0.101 A 
HETATM    6  C12 UNL     1      -8.582  18.367 -28.090  1.00  0.00     0.206 A 
HETATM    7  O8  UNL     1      -8.293  17.468 -28.896  1.00  0.00    -0.286 OA
HETATM    8  C13 UNL     1      -7.155  17.358 -26.528  1.00  0.00     0.087 C 
HETATM    9  C14 UNL     1      -6.830  16.853 -25.319  1.00  0.00     0.077 C 
HETATM   10  C15 UNL     1      -7.330  17.329 -24.025  1.00  0.00     0.110 A 
HETATM   11  O10 UNL     1      -7.423  16.631 -22.912  1.00  0.00    -0.286 OA
HETATM   12  C16 UNL     1      -7.901  17.332 -21.922  1.00  0.00     0.185 A 
HETATM   13  C17 UNL     1      -8.142  18.584 -22.409  1.00  0.00     0.098 A 
HETATM   14  C18 UNL     1      -7.788  18.596 -23.738  1.00  0.00     0.097 A 
HETATM   15  N4  UNL     1      -7.952  19.710 -24.648  1.00  0.00    -0.237 N 
ENDROOT
BRANCH   1  16
HETATM   16  C7  UNL     1     -10.095  19.139 -29.779  1.00  0.00     0.275 C 
HETATM   17  N3  UNL     1      -9.288  19.194 -31.020  1.00  0.00    -0.269 N 
ATOM     18  H3  UNL     1      -8.305  19.465 -31.042  1.00  0.00     0.190 HD
HETATM   19  O6  UNL     1     -11.320  18.859 -29.940  1.00  0.00    -0.266 OA
BRANCH  17  20
HETATM   20  N2  UNL     1      -9.960  18.863 -32.071  1.00  0.00    -0.321 N 
ATOM     21  H2  UNL     1     -10.784  18.289 -31.888  1.00  0.00     0.181 HD
BRANCH  20  22
HETATM   22  C3  UNL     1      -9.729  19.180 -33.494  1.00  0.00     0.177 C 
BRANCH  22  23
HETATM   23  C2  UNL     1      -8.925  20.369 -33.361  1.00  0.00     0.147 C 
HETATM   24  C1  UNL     1      -9.322  21.755 -33.564  1.00  0.00     0.093 C 
HETATM   25  O1  UNL     1      -7.698  20.234 -33.061  1.00  0.00    -0.296 OA
ENDBRANCH  22  23
BRANCH  22  26
HETATM   26  C4  UNL     1      -9.492  17.893 -34.154  1.00  0.00     0.113 C 
BRANCH  26  27
HETATM   27  S1  UNL     1      -8.296  17.691 -35.317  1.00  0.00    -0.134 SA
BRANCH  27  28
HETATM   28  C5  UNL     1      -6.628  17.655 -35.402  1.00  0.00     0.120 C 
BRANCH  28  29
HETATM   29  C6  UNL     1      -5.617  17.887 -34.394  1.00  0.00     0.262 C 
HETATM   30  O2  UNL     1      -4.494  18.303 -34.590  1.00  0.00    -0.267 OA
HETATM   31  N1  UNL     1      -5.992  17.586 -33.046  1.00  0.00    -0.231 N 
ATOM     32  H1  UNL     1      -6.930  17.241 -32.842  1.00  0.00     0.184 HD
BRANCH  31  33
HETATM   33  S2  UNL     1      -4.865  17.804 -31.778  1.00  0.00     0.211 S 
HETATM   34  O3  UNL     1      -3.622  16.998 -32.001  1.00  0.00    -0.578 OA
HETATM   35  O4  UNL     1      -5.494  17.398 -30.459  1.00  0.00    -0.578 OA
HETATM   36  O5  UNL     1      -4.497  19.448 -31.615  1.00  0.00    -0.578 OA
ENDBRANCH  31  33
ENDBRANCH  28  29
ENDBRANCH  27  28
ENDBRANCH  26  27
ENDBRANCH  22  26
ENDBRANCH  20  22
ENDBRANCH  17  20
ENDBRANCH   1  16
BRANCH   8  37
HETATM   37  O9  UNL     1      -6.609  16.790 -27.655  1.00  0.00    -0.359 OA
ATOM     38  H9  UNL     1      -5.763  17.156 -27.884  1.00  0.00     0.217 HD
ENDBRANCH   8  37
BRANCH  15  39
HETATM   39  N5  UNL     1      -7.687  20.941 -24.189  1.00  0.00    -0.336 N 
ATOM     40  H52 UNL     1      -8.460  21.603 -24.122  1.00  0.00     0.177 HD
ATOM     41  H51 UNL     1      -6.734  21.211 -23.945  1.00  0.00     0.177 HD
ENDBRANCH  15  39
BRANCH  12  42
HETATM   42  O11 UNL     1      -8.132  16.886 -20.599  1.00  0.00    -0.341 OA
ATOM     43  H11 UNL     1      -7.580  17.040 -19.841  1.00  0.00     0.220 HD
ENDBRANCH  12  42
TORSDOF 12
ENDMDL
MODEL 3
REMARK VINA RESULT: -8.889425048      2.116      2.647
REMARK  12 active torsions:
REMARK  status: ('A' for Active; 'I' for Inactive)
REMARK    1  A    between atoms: C2_2  and  C3_4 
REMARK    2  A    between atoms: C3_4  and  C4_5 
REMARK    3  A    between atoms: C3_4  and  N2_16 
REMARK    4  A    between atoms: C4_5  and  S1_6 
REMARK    5  A    between atoms: S1_6  and  C5_7 
REMARK    6  A    between atoms: C5_7  and  C6_8 
REMARK       I    between atoms: C6_8  and  N1_10 
REMARK    7  A    between atoms: N1_10  and  S2_12 
REMARK    8  A    between atoms: N2_16  and  N3_18 
REMARK       I    between atoms: N3_18  and  C7_20 
REMARK    9  A    between atoms: C7_20  and  C8_22 
REMARK   10  A    between atoms: C13_29  and  O9_30 
REMARK   11  A    between atoms: C16_35  and  O11_36 
REMARK   12  A    between atoms: N4_40  and  N5_41 
ROOT
HETATM    1  C8  UNL     1      -9.346  19.295 -28.583  1.00  0.00     0.107 A 
HETATM    2  C9  UNL     1      -9.703  20.251 -27.688  1.00  0.00     0.165 A 
HETATM    3  O7  UNL     1      -9.210  20.274 -26.451  1.00  0.00    -0.302 OA
HETATM    4  C10 UNL     1      -8.368  19.392 -26.042  1.00  0.00     0.185 A 
HETATM    5  C11 UNL     1      -7.946  18.397 -26.880  1.00  0.00     0.101 A 
HETATM    6  C12 UNL     1      -8.399  18.299 -28.166  1.00  0.00     0.206 A 
HETATM    7  O8  UNL     1      -8.055  17.427 -28.980  1.00  0.00    -0.286 OA
HETATM    8  C13 UNL     1      -7.031  17.272 -26.563  1.00  0.00     0.087 C 
HETATM    9  C14 UNL     1      -6.755  16.740 -25.354  1.00  0.00     0.077 C 
HETATM   10  C15 UNL     1      -7.325  17.173 -24.074  1.00  0.00     0.110 A 
HETATM   11  O10 UNL     1      -7.459  16.444 -22.985  1.00  0.00    -0.286 OA
HETATM   12  C16 UNL     1      -7.996  17.109 -22.001  1.00  0.00     0.185 A 
HETATM   13  C17 UNL     1      -8.235  18.370 -22.467  1.00  0.00     0.098 A 
HETATM   14  C18 UNL     1      -7.819  18.423 -23.776  1.00  0.00     0.097 A 
HETATM   15  N4  UNL     1      -7.959  19.559 -24.664  1.00  0.00    -0.237 N 
ENDROOT
BRANCH   1  16
HETATM   16  C7  UNL     1      -9.843  19.091 -29.905  1.00  0.00     0.275 C 
HETATM   17  N3  UNL     1      -8.976  19.181 -31.103  1.00  0.00    -0.269 N 
ATOM     18  H3  UNL     1      -7.996  19.461 -31.070  1.00  0.00     0.190 HD
HETATM   19  O6  UNL     1     -11.056  18.805 -30.133  1.00  0.00    -0.266 OA
BRANCH  17  20
HETATM   20  N2  UNL     1      -9.593  18.869 -32.194  1.00  0.00    -0.321 N 
ATOM     21  H2  UNL     1     -10.610  18.836 -32.115  1.00  0.00     0.181 HD
BRANCH  20  22
HETATM   22  C3  UNL     1      -9.064  18.553 -33.534  1.00  0.00     0.177 C 
BRANCH  22  23
HETATM   23  C2  UNL     1      -9.512  19.712 -34.264  1.00  0.00     0.147 C 
HETATM   24  C1  UNL     1     -10.008  19.783 -35.632  1.00  0.00     0.093 C 
HETATM   25  O1  UNL     1      -9.454  20.843 -33.689  1.00  0.00    -0.296 OA
ENDBRANCH  22  23
BRANCH  22  26
HETATM   26  C4  UNL     1      -7.735  17.976 -33.311  1.00  0.00     0.113 C 
BRANCH  26  27
HETATM   27  S1  UNL     1      -6.339  18.910 -33.338  1.00  0.00    -0.134 SA
BRANCH  27  28
HETATM   28  C5  UNL     1      -4.684  18.685 -33.386  1.00  0.00     0.120 C 
BRANCH  28  29
HETATM   29  C6  UNL     1      -3.805  18.303 -34.469  1.00  0.00     0.262 C 
HETATM   30  O2  UNL     1      -3.827  18.746 -35.598  1.00  0.00    -0.267 OA
HETATM   31  N1  UNL     1      -2.828  17.303 -34.164  1.00  0.00    -0.231 N 
ATOM     32  H1  UNL     1      -2.774  16.912 -33.223  1.00  0.00     0.184 HD
BRANCH  31  33
HETATM   33  S2  UNL     1      -1.752  16.763 -35.378  1.00  0.00     0.211 S 
HETATM   34  O3  UNL     1      -0.959  17.896 -35.955  1.00  0.00    -0.578 OA
HETATM   35  O4  UNL     1      -2.532  16.084 -36.487  1.00  0.00    -0.578 OA
HETATM   36  O5  UNL     1      -0.730  15.570 -34.749  1.00  0.00    -0.578 OA
ENDBRANCH  31  33
ENDBRANCH  28  29
ENDBRANCH  27  28
ENDBRANCH  26  27
ENDBRANCH  22  26
ENDBRANCH  20  22
ENDBRANCH  17  20
ENDBRANCH   1  16
BRANCH   8  37
HETATM   37  O9  UNL     1      -6.421  16.743 -27.677  1.00  0.00    -0.359 OA
ATOM     38  H9  UNL     1      -5.688  16.177 -27.467  1.00  0.00     0.217 HD
ENDBRANCH   8  37
BRANCH  15  39
HETATM   39  N5  UNL     1      -7.738  20.781 -24.160  1.00  0.00    -0.336 N 
ATOM     40  H52 UNL     1      -8.140  21.580 -24.650  1.00  0.00     0.177 HD
ATOM     41  H51 UNL     1      -7.158  20.904 -23.330  1.00  0.00     0.177 HD
ENDBRANCH  15  39
BRANCH  12  42
HETATM   42  O11 UNL     1      -8.282  16.624 -20.704  1.00  0.00    -0.341 OA
ATOM     43  H11 UNL     1      -9.133  16.589 -20.282  1.00  0.00     0.220 HD
ENDBRANCH  12  42
TORSDOF 12
ENDMDL
MODEL 4
REMARK VINA RESULT: -8.754592284      2.034      2.640
REMARK  12 active torsions:
REMARK  status: ('A' for Active; 'I' for Inactive)
REMARK    1  A    between atoms: C2_2  and  C3_4 
REMARK    2  A    between atoms: C3_4  and  C4_5 
REMARK    3  A    between atoms: C3_4  and  N2_16 
REMARK    4  A    between atoms: C4_5  and  S1_6 
REMARK    5  A    between atoms: S1_6  and  C5_7 
REMARK    6  A    between atoms: C5_7  and  C6_8 
REMARK       I    between atoms: C6_8  and  N1_10 
REMARK    7  A    between atoms: N1_10  and  S2_12 
REMARK    8  A    between atoms: N2_16  and  N3_18 
REMARK       I    between atoms: N3_18  and  C7_20 
REMARK    9  A    between atoms: C7_20  and  C8_22 
REMARK   10  A    between atoms: C13_29  and  O9_30 
REMARK   11  A    between atoms: C16_35  and  O11_36 
REMARK   12  A    between atoms: N4_40  and  N5_41 
ROOT
HETATM    1  C8  UNL     1      -9.475  19.353 -28.597  1.00  0.00     0.107 A 
HETATM    2  C9  UNL     1      -9.812  20.326 -27.711  1.00  0.00     0.165 A 
HETATM    3  O7  UNL     1      -9.288  20.372 -26.487  1.00  0.00    -0.302 OA
HETATM    4  C10 UNL     1      -8.435  19.499 -26.083  1.00  0.00     0.185 A 
HETATM    5  C11 UNL     1      -8.032  18.489 -26.912  1.00  0.00     0.101 A 
HETATM    6  C12 UNL     1      -8.517  18.366 -28.184  1.00  0.00     0.206 A 
HETATM    7  O8  UNL     1      -8.192  17.480 -28.990  1.00  0.00    -0.286 OA
HETATM    8  C13 UNL     1      -7.107  17.371 -26.597  1.00  0.00     0.087 C 
HETATM    9  C14 UNL     1      -6.801  16.863 -25.385  1.00  0.00     0.077 C 
HETATM   10  C15 UNL     1      -7.339  17.319 -24.100  1.00  0.00     0.110 A 
HETATM   11  O10 UNL     1      -7.445  16.610 -22.994  1.00  0.00    -0.286 OA
HETATM   12  C16 UNL     1      -7.959  17.294 -22.010  1.00  0.00     0.185 A 
HETATM   13  C17 UNL     1      -8.212  18.546 -22.493  1.00  0.00     0.098 A 
HETATM   14  C18 UNL     1      -7.828  18.574 -23.813  1.00  0.00     0.097 A 
HETATM   15  N4  UNL     1      -7.992  19.693 -24.718  1.00  0.00    -0.237 N 
ENDROOT
BRANCH   1  16
HETATM   16  C7  UNL     1     -10.005  19.123 -29.902  1.00  0.00     0.275 C 
HETATM   17  N3  UNL     1      -9.163  19.171 -31.120  1.00  0.00    -0.269 N 
ATOM     18  H3  UNL     1      -8.179  19.437 -31.116  1.00  0.00     0.190 HD
HETATM   19  O6  UNL     1     -11.227  18.850 -30.096  1.00  0.00    -0.266 OA
BRANCH  17  20
HETATM   20  N2  UNL     1      -9.809  18.841 -32.189  1.00  0.00    -0.321 N 
ATOM     21  H2  UNL     1     -10.564  19.478 -32.446  1.00  0.00     0.181 HD
BRANCH  20  22
HETATM   22  C3  UNL     1      -9.630  17.693 -33.098  1.00  0.00     0.177 C 
BRANCH  22  23
HETATM   23  C2  UNL     1     -10.981  17.532 -33.572  1.00  0.00     0.147 C 
HETATM   24  C1  UNL     1     -11.686  18.317 -34.575  1.00  0.00     0.093 C 
HETATM   25  O1  UNL     1     -11.696  16.619 -33.052  1.00  0.00    -0.296 OA
ENDBRANCH  22  23
BRANCH  22  26
HETATM   26  C4  UNL     1      -8.359  17.927 -33.788  1.00  0.00     0.113 C 
BRANCH  26  27
HETATM   27  S1  UNL     1      -6.892  17.392 -33.166  1.00  0.00    -0.134 SA
BRANCH  27  28
HETATM   28  C5  UNL     1      -5.278  17.821 -33.225  1.00  0.00     0.120 C 
BRANCH  28  29
HETATM   29  C6  UNL     1      -4.305  17.728 -34.290  1.00  0.00     0.262 C 
HETATM   30  O2  UNL     1      -4.364  18.292 -35.363  1.00  0.00    -0.267 OA
HETATM   31  N1  UNL     1      -3.178  16.882 -34.042  1.00  0.00    -0.231 N 
ATOM     32  H1  UNL     1      -3.090  16.398 -33.149  1.00  0.00     0.184 HD
BRANCH  31  33
HETATM   33  S2  UNL     1      -1.977  16.686 -35.244  1.00  0.00     0.211 S 
HETATM   34  O3  UNL     1      -1.333  17.991 -35.598  1.00  0.00    -0.578 OA
HETATM   35  O4  UNL     1      -2.596  16.080 -36.489  1.00  0.00    -0.578 OA
HETATM   36  O5  UNL     1      -0.822  15.564 -34.723  1.00  0.00    -0.578 OA
ENDBRANCH  31  33
ENDBRANCH  28  29
ENDBRANCH  27  28
ENDBRANCH  26  27
ENDBRANCH  22  26
ENDBRANCH  20  22
ENDBRANCH  17  20
ENDBRANCH   1  16
BRANCH   8  37
HETATM   37  O9  UNL     1      -6.525  16.822 -27.716  1.00  0.00    -0.359 OA
ATOM     38  H9  UNL     1      -5.587  16.700 -27.625  1.00  0.00     0.217 HD
ENDBRANCH   8  37
BRANCH  15  39
HETATM   39  N5  UNL     1      -7.760  20.925 -24.243  1.00  0.00    -0.336 N 
ATOM     40  H52 UNL     1      -7.728  21.049 -23.231  1.00  0.00     0.177 HD
ATOM     41  H51 UNL     1      -7.653  21.715 -24.879  1.00  0.00     0.177 HD
ENDBRANCH  15  39
BRANCH  12  42
HETATM   42  O11 UNL     1      -8.212  16.833 -20.697  1.00  0.00    -0.341 OA
ATOM     43  H11 UNL     1      -7.607  16.368 -20.129  1.00  0.00     0.220 HD
ENDBRANCH  12  42
TORSDOF 12
ENDMDL
MODEL 5
REMARK VINA RESULT: -8.705508777      1.733      2.545
REMARK  12 active torsions:
REMARK  status: ('A' for Active; 'I' for Inactive)
REMARK    1  A    between atoms: C2_2  and  C3_4 
REMARK    2  A    between atoms: C3_4  and  C4_5 
REMARK    3  A    between atoms: C3_4  and  N2_16 
REMARK    4  A    between atoms: C4_5  and  S1_6 
REMARK    5  A    between atoms: S1_6  and  C5_7 
REMARK    6  A    between atoms: C5_7  and  C6_8 
REMARK       I    between atoms: C6_8  and  N1_10 
REMARK    7  A    between atoms: N1_10  and  S2_12 
REMARK    8  A    between atoms: N2_16  and  N3_18 
REMARK       I    between atoms: N3_18  and  C7_20 
REMARK    9  A    between atoms: C7_20  and  C8_22 
REMARK   10  A    between atoms: C13_29  and  O9_30 
REMARK   11  A    between atoms: C16_35  and  O11_36 
REMARK   12  A    between atoms: N4_40  and  N5_41 
ROOT
HETATM    1  C8  UNL     1      -9.975  19.785 -28.915  1.00  0.00     0.107 A 
HETATM    2  C9  UNL     1     -10.134  20.617 -27.854  1.00  0.00     0.165 A 
HETATM    3  O7  UNL     1      -9.415  20.480 -26.740  1.00  0.00    -0.302 OA
HETATM    4  C10 UNL     1      -8.533  19.553 -26.615  1.00  0.00     0.185 A 
HETATM    5  C11 UNL     1      -8.301  18.675 -27.637  1.00  0.00     0.101 A 
HETATM    6  C12 UNL     1      -8.991  18.744 -28.815  1.00  0.00     0.206 A 
HETATM    7  O8  UNL     1      -8.828  17.985 -29.784  1.00  0.00    -0.286 OA
HETATM    8  C13 UNL     1      -7.369  17.519 -27.646  1.00  0.00     0.087 C 
HETATM    9  C14 UNL     1      -6.883  16.835 -26.589  1.00  0.00     0.077 C 
HETATM   10  C15 UNL     1      -7.191  17.098 -25.180  1.00  0.00     0.110 A 
HETATM   11  O10 UNL     1      -7.135  16.234 -24.187  1.00  0.00    -0.286 OA
HETATM   12  C16 UNL     1      -7.461  16.767 -23.042  1.00  0.00     0.185 A 
HETATM   13  C17 UNL     1      -7.753  18.077 -23.289  1.00  0.00     0.098 A 
HETATM   14  C18 UNL     1      -7.590  18.299 -24.636  1.00  0.00     0.097 A 
HETATM   15  N4  UNL     1      -7.867  19.540 -25.329  1.00  0.00    -0.237 N 
ENDROOT
BRANCH   1  16
HETATM   16  C7  UNL     1     -10.717  19.754 -30.134  1.00  0.00     0.275 C 
HETATM   17  N3  UNL     1     -11.836  18.809 -30.359  1.00  0.00    -0.269 N 
ATOM     18  H3  UNL     1     -12.101  18.081 -29.695  1.00  0.00     0.190 HD
HETATM   19  O6  UNL     1     -10.472  20.544 -31.094  1.00  0.00    -0.266 OA
BRANCH  17  20
HETATM   20  N2  UNL     1     -12.438  19.004 -31.483  1.00  0.00    -0.321 N 
ATOM     21  H2  UNL     1     -12.855  19.929 -31.591  1.00  0.00     0.181 HD
BRANCH  20  22
HETATM   22  C3  UNL     1     -12.622  18.104 -32.638  1.00  0.00     0.177 C 
BRANCH  22  23
HETATM   23  C2  UNL     1     -13.970  17.654 -32.397  1.00  0.00     0.147 C 
HETATM   24  C1  UNL     1     -14.688  16.563 -33.041  1.00  0.00     0.093 C 
HETATM   25  O1  UNL     1     -14.669  18.282 -31.543  1.00  0.00    -0.296 OA
ENDBRANCH  22  23
BRANCH  22  26
HETATM   26  C4  UNL     1     -11.993  18.781 -33.774  1.00  0.00     0.113 C 
BRANCH  26  27
HETATM   27  S1  UNL     1     -10.351  18.638 -34.104  1.00  0.00    -0.134 SA
BRANCH  27  28
HETATM   28  C5  UNL     1      -8.976  18.036 -33.370  1.00  0.00     0.120 C 
BRANCH  28  29
HETATM   29  C6  UNL     1      -7.814  18.705 -32.829  1.00  0.00     0.262 C 
HETATM   30  O2  UNL     1      -7.591  19.897 -32.870  1.00  0.00    -0.267 OA
HETATM   31  N1  UNL     1      -6.843  17.866 -32.195  1.00  0.00    -0.231 N 
ATOM     32  H1  UNL     1      -6.999  16.860 -32.134  1.00  0.00     0.184 HD
BRANCH  31  33
HETATM   33  S2  UNL     1      -5.421  18.553 -31.539  1.00  0.00     0.211 S 
HETATM   34  O3  UNL     1      -4.609  19.247 -32.589  1.00  0.00    -0.578 OA
HETATM   35  O4  UNL     1      -4.580  17.468 -30.894  1.00  0.00    -0.578 OA
HETATM   36  O5  UNL     1      -5.823  19.616 -30.286  1.00  0.00    -0.578 OA
ENDBRANCH  31  33
ENDBRANCH  28  29
ENDBRANCH  27  28
ENDBRANCH  26  27
ENDBRANCH  22  26
ENDBRANCH  20  22
ENDBRANCH  17  20
ENDBRANCH   1  16
BRANCH   8  37
HETATM   37  O9  UNL     1      -6.994  17.139 -28.914  1.00  0.00    -0.359 OA
ATOM     38  H9  UNL     1      -6.058  17.208 -29.060  1.00  0.00     0.217 HD
ENDBRANCH   8  37
BRANCH  15  39
HETATM   39  N5  UNL     1      -7.526  20.687 -24.725  1.00  0.00    -0.336 N 
ATOM     40  H52 UNL     1      -7.020  21.383 -25.272  1.00  0.00     0.177 HD
ATOM     41  H51 UNL     1      -7.742  20.839 -23.740  1.00  0.00     0.177 HD
ENDBRANCH  15  39
BRANCH  12  42
HETATM   42  O11 UNL     1      -7.508  16.117 -21.786  1.00  0.00    -0.341 OA
ATOM     43  H11 UNL     1      -8.287  15.854 -21.309  1.00  0.00     0.220 HD
ENDBRANCH  12  42
TORSDOF 12
ENDMDL
