MODEL 1
REMARK VINA RESULT: -8.082460468      0.000      0.000
REMARK  14 active torsions:
REMARK  status: ('A' for Active; 'I' for Inactive)
REMARK    1  A    between atoms: S1_2  and  C2_3 
REMARK    2  A    between atoms: C3_5  and  O2_6 
REMARK    3  A    between atoms: O2_6  and  C4_7 
REMARK    4  A    between atoms: C7_11  and  N1_12 
REMARK    5  A    between atoms: C9_17  and  O4_18 
REMARK    6  A    between atoms: O4_18  and  C10_19 
REMARK    7  A    between atoms: C13_22  and  O5_24 
REMARK    8  A    between atoms: C15_26  and  C16_27 
REMARK    9  A    between atoms: C16_27  and  C17_32 
REMARK   10  A    between atoms: N2_28  and  O6_30 
REMARK   11  A    between atoms: C17_32  and  N3_33 
REMARK   12  A    between atoms: C17_32  and  O7_37 
REMARK   13  A    between atoms: C18_40  and  N4_41 
REMARK   14  A    between atoms: C21_46  and  O9_47 
ROOT
HETATM    1  C4  UNL     1      -7.723  17.347 -33.860  1.00  0.00     0.292 C 
HETATM    2  O3  UNL     1      -9.089  17.432 -34.011  1.00  0.00    -0.352 OA
HETATM    3  C5  UNL     1      -9.622  18.684 -33.967  1.00  0.00     0.151 C 
HETATM    4  C6  UNL     1     -10.704  18.685 -32.878  1.00  0.00     0.042 C 
HETATM    5  C7  UNL     1      -8.690  19.815 -33.725  1.00  0.00     0.214 C 
HETATM    6  C8  UNL     1      -7.731  19.468 -32.642  1.00  0.00     0.072 C 
HETATM    7  C9  UNL     1      -7.305  18.027 -32.595  1.00  0.00     0.182 C 
ENDROOT
BRANCH   7   8
HETATM    8  O4  UNL     1      -7.759  17.467 -31.440  1.00  0.00    -0.351 OA
BRANCH   8   9
HETATM    9  C10 UNL     1      -7.078  17.732 -30.288  1.00  0.00     0.261 C 
HETATM   10  C11 UNL     1      -6.477  16.503 -29.644  1.00  0.00     0.064 C 
HETATM   11  C12 UNL     1      -7.504  15.720 -28.863  1.00  0.00     0.045 C 
HETATM   12  C13 UNL     1      -7.875  16.574 -27.655  1.00  0.00     0.086 C 
HETATM   13  C14 UNL     1      -6.840  16.251 -26.602  1.00  0.00     0.049 C 
HETATM   14  C15 UNL     1      -7.745  17.991 -28.061  1.00  0.00     0.210 C 
HETATM   15  O8  UNL     1      -7.998  18.259 -29.380  1.00  0.00    -0.347 OA
BRANCH  12  16
HETATM   16  O5  UNL     1      -9.141  16.189 -27.222  1.00  0.00    -0.387 OA
ATOM     17  H5  UNL     1      -9.076  15.929 -26.311  1.00  0.00     0.210 HD
ENDBRANCH  12  16
BRANCH  14  18
HETATM   18  C16 UNL     1      -8.566  18.906 -27.226  1.00  0.00     0.097 C 
HETATM   19  N2  UNL     1      -9.796  19.173 -27.501  1.00  0.00    -0.270 N 
ATOM     20  H2  UNL     1     -10.307  19.809 -26.888  1.00  0.00     0.193 HD
BRANCH  19  21
HETATM   21  O6  UNL     1     -10.433  18.648 -28.560  1.00  0.00    -0.290 OA
ATOM     22  H6  UNL     1     -10.764  19.179 -29.275  1.00  0.00     0.244 HD
ENDBRANCH  19  21
BRANCH  18  23
HETATM   23  C17 UNL     1      -8.031  19.580 -25.999  1.00  0.00     0.367 C 
BRANCH  23  24
HETATM   24  N3  UNL     1      -8.719  20.873 -25.847  1.00  0.00    -0.048 N 
ATOM     25  H33 UNL     1      -8.409  21.566 -26.529  1.00  0.00     0.277 HD
ATOM     26  H32 UNL     1      -9.698  20.833 -26.127  1.00  0.00     0.277 HD
ATOM     27  H31 UNL     1      -8.597  21.188 -24.885  1.00  0.00     0.277 HD
ENDBRANCH  23  24
BRANCH  23  28
HETATM   28  O7  UNL     1      -8.406  18.859 -24.855  1.00  0.00    -0.365 OA
ATOM     29  H7  UNL     1      -7.632  18.579 -24.381  1.00  0.00     0.212 HD
ENDBRANCH  23  28
ENDBRANCH  18  23
ENDBRANCH  14  18
ENDBRANCH   8   9
ENDBRANCH   7   8
BRANCH   1  30
HETATM   30  O2  UNL     1      -7.121  18.007 -34.932  1.00  0.00    -0.327 OA
BRANCH  30  31
HETATM   31  C3  UNL     1      -6.357  17.192 -35.733  1.00  0.00     0.289 C 
HETATM   32  O1  UNL     1      -6.942  16.844 -36.916  1.00  0.00    -0.341 OA
HETATM   33  C2  UNL     1      -6.239  17.349 -37.974  1.00  0.00     0.216 C 
HETATM   34  C21 UNL     1      -5.365  18.455 -37.427  1.00  0.00     0.184 C 
HETATM   35  C18 UNL     1      -5.069  17.935 -36.046  1.00  0.00     0.169 C 
BRANCH  33  36
HETATM   36  S1  UNL     1      -7.300  17.946 -39.319  1.00  0.00    -0.139 SA
HETATM   37  C1  UNL     1      -8.509  19.152 -38.740  1.00  0.00     0.092 C 
ENDBRANCH  33  36
BRANCH  34  38
HETATM   38  O9  UNL     1      -4.265  18.729 -38.185  1.00  0.00    -0.390 OA
ATOM     39  H9  UNL     1      -3.455  18.785 -37.692  1.00  0.00     0.210 HD
ENDBRANCH  34  38
BRANCH  35  40
HETATM   40  N4  UNL     1      -3.923  17.109 -35.960  1.00  0.00    -0.370 N 
HETATM   41  C19 UNL     1      -2.882  17.241 -35.275  1.00  0.00     0.085 C 
HETATM   42  C20 UNL     1      -1.806  16.234 -35.352  1.00  0.00     0.085 C 
HETATM   43  N5  UNL     1      -2.701  18.344 -34.415  1.00  0.00    -0.088 NA
ATOM     44  H4  UNL     1      -3.949  16.276 -36.548  1.00  0.00     0.161 HD
ENDBRANCH  35  40
ENDBRANCH  30  31
ENDBRANCH   1  30
BRANCH   5  45
HETATM   45  N1  UNL     1      -9.478  20.971 -33.258  1.00  0.00    -0.072 N 
ATOM     46  H13 UNL     1      -9.906  21.490 -34.025  1.00  0.00     0.274 HD
ATOM     47  H12 UNL     1     -10.337  20.696 -32.781  1.00  0.00     0.274 HD
ATOM     48  H11 UNL     1      -8.876  21.554 -32.677  1.00  0.00     0.274 HD
ENDBRANCH   5  45
TORSDOF 14
ENDMDL
MODEL 2
REMARK VINA RESULT: -8.033017153      2.768      7.571
REMARK  14 active torsions:
REMARK  status: ('A' for Active; 'I' for Inactive)
REMARK    1  A    between atoms: S1_2  and  C2_3 
REMARK    2  A    between atoms: C3_5  and  O2_6 
REMARK    3  A    between atoms: O2_6  and  C4_7 
REMARK    4  A    between atoms: C7_11  and  N1_12 
REMARK    5  A    between atoms: C9_17  and  O4_18 
REMARK    6  A    between atoms: O4_18  and  C10_19 
REMARK    7  A    between atoms: C13_22  and  O5_24 
REMARK    8  A    between atoms: C15_26  and  C16_27 
REMARK    9  A    between atoms: C16_27  and  C17_32 
REMARK   10  A    between atoms: N2_28  and  O6_30 
REMARK   11  A    between atoms: C17_32  and  N3_33 
REMARK   12  A    between atoms: C17_32  and  O7_37 
REMARK   13  A    between atoms: C18_40  and  N4_41 
REMARK   14  A    between atoms: C21_46  and  O9_47 
ROOT
HETATM    1  C4  UNL     1      -6.910  16.520 -31.829  1.00  0.00     0.292 C 
HETATM    2  O3  UNL     1      -6.792  15.965 -30.575  1.00  0.00    -0.352 OA
HETATM    3  C5  UNL     1      -7.255  16.717 -29.539  1.00  0.00     0.151 C 
HETATM    4  C6  UNL     1      -6.105  16.868 -28.532  1.00  0.00     0.042 C 
HETATM    5  C7  UNL     1      -7.797  18.061 -29.860  1.00  0.00     0.214 C 
HETATM    6  C8  UNL     1      -6.912  18.754 -30.834  1.00  0.00     0.072 C 
HETATM    7  C9  UNL     1      -6.258  17.866 -31.855  1.00  0.00     0.182 C 
ENDROOT
BRANCH   7   8
HETATM    8  O4  UNL     1      -4.911  17.879 -31.659  1.00  0.00    -0.351 OA
BRANCH   8   9
HETATM    9  C10 UNL     1      -4.128  18.457 -32.615  1.00  0.00     0.261 C 
HETATM   10  C11 UNL     1      -4.916  19.157 -33.700  1.00  0.00     0.064 C 
HETATM   11  C12 UNL     1      -5.454  18.184 -34.721  1.00  0.00     0.045 C 
HETATM   12  C13 UNL     1      -4.248  17.648 -35.485  1.00  0.00     0.086 C 
HETATM   13  C14 UNL     1      -3.995  18.651 -36.588  1.00  0.00     0.049 C 
HETATM   14  C15 UNL     1      -3.103  17.637 -34.550  1.00  0.00     0.210 C 
HETATM   15  O8  UNL     1      -3.410  17.431 -33.231  1.00  0.00    -0.347 OA
BRANCH  12  16
HETATM   16  O5  UNL     1      -4.592  16.412 -36.027  1.00  0.00    -0.387 OA
ATOM     17  H5  UNL     1      -5.533  16.310 -35.960  1.00  0.00     0.210 HD
ENDBRANCH  12  16
BRANCH  14  18
HETATM   18  C16 UNL     1      -2.046  16.669 -34.946  1.00  0.00     0.097 C 
HETATM   19  N2  UNL     1      -1.825  15.582 -34.289  1.00  0.00    -0.270 N 
ATOM     20  H2  UNL     1      -1.086  14.957 -34.612  1.00  0.00     0.193 HD
BRANCH  19  21
HETATM   21  O6  UNL     1      -2.529  15.239 -33.198  1.00  0.00    -0.290 OA
ATOM     22  H6  UNL     1      -2.136  15.168 -32.336  1.00  0.00     0.244 HD
ENDBRANCH  19  21
BRANCH  18  23
HETATM   23  C17 UNL     1      -1.166  16.876 -36.141  1.00  0.00     0.367 C 
BRANCH  23  24
HETATM   24  N3  UNL     1      -0.451  18.152 -35.971  1.00  0.00    -0.048 N 
ATOM     25  H33 UNL     1      -0.903  18.924 -36.463  1.00  0.00     0.277 HD
ATOM     26  H32 UNL     1      -0.532  18.525 -35.025  1.00  0.00     0.277 HD
ATOM     27  H31 UNL     1       0.518  18.016 -36.259  1.00  0.00     0.277 HD
ENDBRANCH  23  24
BRANCH  23  28
HETATM   28  O7  UNL     1      -0.145  15.913 -36.156  1.00  0.00    -0.365 OA
ATOM     29  H7  UNL     1       0.686  16.318 -35.940  1.00  0.00     0.212 HD
ENDBRANCH  23  28
ENDBRANCH  18  23
ENDBRANCH  14  18
ENDBRANCH   8   9
ENDBRANCH   7   8
BRANCH   1  30
HETATM   30  O2  UNL     1      -8.266  16.684 -32.112  1.00  0.00    -0.327 OA
BRANCH  30  31
HETATM   31  C3  UNL     1      -8.517  17.375 -33.273  1.00  0.00     0.289 C 
HETATM   32  O1  UNL     1      -8.671  16.594 -34.381  1.00  0.00    -0.341 OA
HETATM   33  C2  UNL     1      -9.939  16.702 -34.881  1.00  0.00     0.216 C 
HETATM   34  C21 UNL     1     -10.794  17.277 -33.775  1.00  0.00     0.184 C 
HETATM   35  C18 UNL     1      -9.802  18.161 -33.069  1.00  0.00     0.169 C 
BRANCH  33  36
HETATM   36  S1  UNL     1     -10.607  15.128 -35.486  1.00  0.00    -0.139 SA
HETATM   37  C1  UNL     1     -11.919  14.498 -34.421  1.00  0.00     0.092 C 
ENDBRANCH  33  36
BRANCH  34  38
HETATM   38  O9  UNL     1     -11.921  17.912 -34.208  1.00  0.00    -0.390 OA
ATOM     39  H9  UNL     1     -12.699  17.717 -33.699  1.00  0.00     0.210 HD
ENDBRANCH  34  38
BRANCH  35  40
HETATM   40  N4  UNL     1      -9.724  19.481 -33.574  1.00  0.00    -0.370 N 
HETATM   41  C19 UNL     1      -9.852  20.580 -32.985  1.00  0.00     0.085 C 
HETATM   42  C20 UNL     1      -9.727  21.846 -33.732  1.00  0.00     0.085 C 
HETATM   43  N5  UNL     1     -10.119  20.647 -31.602  1.00  0.00    -0.088 NA
ATOM     44  H4  UNL     1      -9.533  19.548 -34.574  1.00  0.00     0.161 HD
ENDBRANCH  35  40
ENDBRANCH  30  31
ENDBRANCH   1  30
BRANCH   5  45
HETATM   45  N1  UNL     1      -7.801  18.866 -28.623  1.00  0.00    -0.072 N 
ATOM     46  H13 UNL     1      -6.861  19.095 -28.301  1.00  0.00     0.274 HD
ATOM     47  H12 UNL     1      -8.132  19.819 -28.775  1.00  0.00     0.274 HD
ATOM     48  H11 UNL     1      -8.347  18.368 -27.920  1.00  0.00     0.274 HD
ENDBRANCH   5  45
TORSDOF 14
ENDMDL
MODEL 3
REMARK VINA RESULT: -7.967573199      2.870      7.295
REMARK  14 active torsions:
REMARK  status: ('A' for Active; 'I' for Inactive)
REMARK    1  A    between atoms: S1_2  and  C2_3 
REMARK    2  A    between atoms: C3_5  and  O2_6 
REMARK    3  A    between atoms: O2_6  and  C4_7 
REMARK    4  A    between atoms: C7_11  and  N1_12 
REMARK    5  A    between atoms: C9_17  and  O4_18 
REMARK    6  A    between atoms: O4_18  and  C10_19 
REMARK    7  A    between atoms: C13_22  and  O5_24 
REMARK    8  A    between atoms: C15_26  and  C16_27 
REMARK    9  A    between atoms: C16_27  and  C17_32 
REMARK   10  A    between atoms: N2_28  and  O6_30 
REMARK   11  A    between atoms: C17_32  and  N3_33 
REMARK   12  A    between atoms: C17_32  and  O7_37 
REMARK   13  A    between atoms: C18_40  and  N4_41 
REMARK   14  A    between atoms: C21_46  and  O9_47 
ROOT
HETATM    1  C4  UNL     1      -7.623  17.266 -31.939  1.00  0.00     0.292 C 
HETATM    2  O3  UNL     1      -7.624  16.324 -30.936  1.00  0.00    -0.352 OA
HETATM    3  C5  UNL     1      -7.623  16.802 -29.661  1.00  0.00     0.151 C 
HETATM    4  C6  UNL     1      -6.422  16.178 -28.937  1.00  0.00     0.042 C 
HETATM    5  C7  UNL     1      -7.583  18.276 -29.485  1.00  0.00     0.214 C 
HETATM    6  C8  UNL     1      -6.591  18.878 -30.416  1.00  0.00     0.072 C 
HETATM    7  C9  UNL     1      -6.474  18.207 -31.756  1.00  0.00     0.182 C 
ENDROOT
BRANCH   7   8
HETATM    8  O4  UNL     1      -5.233  17.660 -31.872  1.00  0.00    -0.351 OA
BRANCH   8   9
HETATM    9  C10 UNL     1      -4.330  18.283 -32.684  1.00  0.00     0.261 C 
HETATM   10  C11 UNL     1      -4.970  19.104 -33.781  1.00  0.00     0.064 C 
HETATM   11  C12 UNL     1      -5.422  18.243 -34.936  1.00  0.00     0.045 C 
HETATM   12  C13 UNL     1      -4.157  17.723 -35.610  1.00  0.00     0.086 C 
HETATM   13  C14 UNL     1      -3.750  18.803 -36.586  1.00  0.00     0.049 C 
HETATM   14  C15 UNL     1      -3.123  17.586 -34.562  1.00  0.00     0.210 C 
HETATM   15  O8  UNL     1      -3.581  17.284 -33.307  1.00  0.00    -0.347 OA
BRANCH  12  16
HETATM   16  O5  UNL     1      -4.477  16.552 -36.292  1.00  0.00    -0.387 OA
ATOM     17  H5  UNL     1      -4.571  16.761 -37.214  1.00  0.00     0.210 HD
ENDBRANCH  12  16
BRANCH  14  18
HETATM   18  C16 UNL     1      -2.061  16.611 -34.924  1.00  0.00     0.097 C 
HETATM   19  N2  UNL     1      -1.849  15.537 -34.245  1.00  0.00    -0.270 N 
ATOM     20  H2  UNL     1      -1.106  14.906 -34.545  1.00  0.00     0.193 HD
BRANCH  19  21
HETATM   21  O6  UNL     1      -2.568  15.213 -33.158  1.00  0.00    -0.290 OA
ATOM     22  H6  UNL     1      -2.179  14.828 -32.382  1.00  0.00     0.244 HD
ENDBRANCH  19  21
BRANCH  18  23
HETATM   23  C17 UNL     1      -1.164  16.796 -36.111  1.00  0.00     0.367 C 
BRANCH  23  24
HETATM   24  N3  UNL     1      -0.447  18.073 -35.951  1.00  0.00    -0.048 N 
ATOM     25  H33 UNL     1      -0.945  18.859 -36.368  1.00  0.00     0.277 HD
ATOM     26  H32 UNL     1      -0.446  18.405 -34.987  1.00  0.00     0.277 HD
ATOM     27  H31 UNL     1       0.494  17.959 -36.328  1.00  0.00     0.277 HD
ENDBRANCH  23  24
BRANCH  23  28
HETATM   28  O7  UNL     1      -0.147  15.830 -36.097  1.00  0.00    -0.365 OA
ATOM     29  H7  UNL     1       0.308  15.826 -36.931  1.00  0.00     0.212 HD
ENDBRANCH  23  28
ENDBRANCH  18  23
ENDBRANCH  14  18
ENDBRANCH   8   9
ENDBRANCH   7   8
BRANCH   1  30
HETATM   30  O2  UNL     1      -8.807  17.999 -31.855  1.00  0.00    -0.327 OA
BRANCH  30  31
HETATM   31  C3  UNL     1      -9.703  17.734 -32.862  1.00  0.00     0.289 C 
HETATM   32  O1  UNL     1     -10.636  18.707 -33.068  1.00  0.00    -0.341 OA
HETATM   33  C2  UNL     1     -10.494  19.264 -34.308  1.00  0.00     0.216 C 
HETATM   34  C21 UNL     1      -9.103  18.911 -34.785  1.00  0.00     0.184 C 
HETATM   35  C18 UNL     1      -8.911  17.562 -34.147  1.00  0.00     0.169 C 
BRANCH  33  36
HETATM   36  S1  UNL     1     -10.765  21.058 -34.324  1.00  0.00    -0.139 SA
HETATM   37  C1  UNL     1      -9.401  21.953 -33.555  1.00  0.00     0.092 C 
ENDBRANCH  33  36
BRANCH  34  38
HETATM   38  O9  UNL     1      -8.952  18.932 -36.141  1.00  0.00    -0.390 OA
ATOM     39  H9  UNL     1      -8.081  19.172 -36.433  1.00  0.00     0.210 HD
ENDBRANCH  34  38
BRANCH  35  40
HETATM   40  N4  UNL     1      -9.359  16.471 -34.928  1.00  0.00    -0.370 N 
HETATM   41  C19 UNL     1      -8.844  15.933 -35.936  1.00  0.00     0.085 C 
HETATM   42  C20 UNL     1      -9.506  14.789 -36.592  1.00  0.00     0.085 C 
HETATM   43  N5  UNL     1      -7.626  16.397 -36.476  1.00  0.00    -0.088 NA
ATOM     44  H4  UNL     1     -10.240  16.056 -34.622  1.00  0.00     0.161 HD
ENDBRANCH  35  40
ENDBRANCH  30  31
ENDBRANCH   1  30
BRANCH   5  45
HETATM   45  N1  UNL     1      -7.127  18.565 -28.112  1.00  0.00    -0.072 N 
ATOM     46  H13 UNL     1      -6.143  18.339 -27.969  1.00  0.00     0.274 HD
ATOM     47  H12 UNL     1      -7.068  19.566 -27.920  1.00  0.00     0.274 HD
ATOM     48  H11 UNL     1      -7.741  18.076 -27.462  1.00  0.00     0.274 HD
ENDBRANCH   5  45
TORSDOF 14
ENDMDL
MODEL 4
REMARK VINA RESULT: -7.809606933      3.984      7.913
REMARK  14 active torsions:
REMARK  status: ('A' for Active; 'I' for Inactive)
REMARK    1  A    between atoms: S1_2  and  C2_3 
REMARK    2  A    between atoms: C3_5  and  O2_6 
REMARK    3  A    between atoms: O2_6  and  C4_7 
REMARK    4  A    between atoms: C7_11  and  N1_12 
REMARK    5  A    between atoms: C9_17  and  O4_18 
REMARK    6  A    between atoms: O4_18  and  C10_19 
REMARK    7  A    between atoms: C13_22  and  O5_24 
REMARK    8  A    between atoms: C15_26  and  C16_27 
REMARK    9  A    between atoms: C16_27  and  C17_32 
REMARK   10  A    between atoms: N2_28  and  O6_30 
REMARK   11  A    between atoms: C17_32  and  N3_33 
REMARK   12  A    between atoms: C17_32  and  O7_37 
REMARK   13  A    between atoms: C18_40  and  N4_41 
REMARK   14  A    between atoms: C21_46  and  O9_47 
ROOT
HETATM    1  C4  UNL     1      -8.664  17.949 -32.991  1.00  0.00     0.292 C 
HETATM    2  O3  UNL     1      -8.539  19.320 -33.039  1.00  0.00    -0.352 OA
HETATM    3  C5  UNL     1      -9.546  20.035 -32.467  1.00  0.00     0.151 C 
HETATM    4  C6  UNL     1     -10.081  21.006 -33.529  1.00  0.00     0.042 C 
HETATM    5  C7  UNL     1     -10.683  19.274 -31.891  1.00  0.00     0.214 C 
HETATM    6  C8  UNL     1     -11.092  18.183 -32.815  1.00  0.00     0.072 C 
HETATM    7  C9  UNL     1      -9.974  17.535 -33.583  1.00  0.00     0.182 C 
ENDROOT
BRANCH   7   8
HETATM    8  O4  UNL     1     -10.137  17.794 -34.909  1.00  0.00    -0.351 OA
BRANCH   8   9
HETATM    9  C10 UNL     1      -9.999  16.759 -35.787  1.00  0.00     0.261 C 
HETATM   10  C11 UNL     1     -10.468  17.085 -37.187  1.00  0.00     0.064 C 
HETATM   11  C12 UNL     1     -11.970  16.998 -37.311  1.00  0.00     0.045 C 
HETATM   12  C13 UNL     1     -12.330  15.521 -37.181  1.00  0.00     0.086 C 
HETATM   13  C14 UNL     1     -12.191  14.951 -38.573  1.00  0.00     0.049 C 
HETATM   14  C15 UNL     1     -11.329  14.901 -36.287  1.00  0.00     0.210 C 
HETATM   15  O8  UNL     1     -10.803  15.717 -35.321  1.00  0.00    -0.347 OA
BRANCH  12  16
HETATM   16  O5  UNL     1     -13.652  15.432 -36.753  1.00  0.00    -0.387 OA
ATOM     17  H5  UNL     1     -13.996  14.590 -37.025  1.00  0.00     0.210 HD
ENDBRANCH  12  16
BRANCH  14  18
HETATM   18  C16 UNL     1     -11.828  13.660 -35.637  1.00  0.00     0.097 C 
HETATM   19  N2  UNL     1     -12.411  13.670 -34.488  1.00  0.00    -0.270 N 
ATOM     20  H2  UNL     1     -12.733  12.786 -34.095  1.00  0.00     0.193 HD
BRANCH  19  21
HETATM   21  O6  UNL     1     -12.615  14.798 -33.788  1.00  0.00    -0.290 OA
ATOM     22  H6  UNL     1     -12.289  14.918 -32.904  1.00  0.00     0.244 HD
ENDBRANCH  19  21
BRANCH  18  23
HETATM   23  C17 UNL     1     -11.700  12.308 -36.270  1.00  0.00     0.367 C 
BRANCH  23  24
HETATM   24  N3  UNL     1     -10.602  11.589 -35.603  1.00  0.00    -0.048 N 
ATOM     25  H33 UNL     1      -9.710  12.078 -35.677  1.00  0.00     0.277 HD
ATOM     26  H32 UNL     1     -10.683  11.602 -34.586  1.00  0.00     0.277 HD
ATOM     27  H31 UNL     1     -10.563  10.642 -35.981  1.00  0.00     0.277 HD
ENDBRANCH  23  24
BRANCH  23  28
HETATM   28  O7  UNL     1     -12.837  11.536 -35.984  1.00  0.00    -0.365 OA
ATOM     29  H7  UNL     1     -12.689  11.021 -35.200  1.00  0.00     0.212 HD
ENDBRANCH  23  28
ENDBRANCH  18  23
ENDBRANCH  14  18
ENDBRANCH   8   9
ENDBRANCH   7   8
BRANCH   1  30
HETATM   30  O2  UNL     1      -8.641  17.552 -31.654  1.00  0.00    -0.327 OA
BRANCH  30  31
HETATM   31  C3  UNL     1      -7.397  17.186 -31.200  1.00  0.00     0.289 C 
HETATM   32  O1  UNL     1      -6.399  17.284 -32.125  1.00  0.00    -0.341 OA
HETATM   33  C2  UNL     1      -5.478  18.222 -31.750  1.00  0.00     0.216 C 
HETATM   34  C21 UNL     1      -6.143  19.093 -30.708  1.00  0.00     0.184 C 
HETATM   35  C18 UNL     1      -7.050  18.098 -30.034  1.00  0.00     0.169 C 
BRANCH  33  36
HETATM   36  S1  UNL     1      -4.855  19.209 -33.139  1.00  0.00    -0.139 SA
HETATM   37  C1  UNL     1      -3.450  18.419 -33.951  1.00  0.00     0.092 C 
ENDBRANCH  33  36
BRANCH  34  38
HETATM   38  O9  UNL     1      -5.275  19.735 -29.875  1.00  0.00    -0.390 OA
ATOM     39  H9  UNL     1      -5.113  20.642 -30.104  1.00  0.00     0.210 HD
ENDBRANCH  34  38
BRANCH  35  40
HETATM   40  N4  UNL     1      -6.461  17.404 -28.950  1.00  0.00    -0.370 N 
HETATM   41  C19 UNL     1      -6.998  16.792 -27.997  1.00  0.00     0.085 C 
HETATM   42  C20 UNL     1      -6.166  16.134 -26.971  1.00  0.00     0.085 C 
HETATM   43  N5  UNL     1      -8.400  16.709 -27.870  1.00  0.00    -0.088 NA
ATOM     44  H4  UNL     1      -5.442  17.401 -28.944  1.00  0.00     0.161 HD
ENDBRANCH  35  40
ENDBRANCH  30  31
ENDBRANCH   1  30
BRANCH   5  45
HETATM   45  N1  UNL     1     -11.832  20.189 -31.758  1.00  0.00    -0.072 N 
ATOM     46  H13 UNL     1     -12.077  20.643 -32.637  1.00  0.00     0.274 HD
ATOM     47  H12 UNL     1     -12.713  19.695 -31.608  1.00  0.00     0.274 HD
ATOM     48  H11 UNL     1     -11.625  20.856 -31.015  1.00  0.00     0.274 HD
ENDBRANCH   5  45
TORSDOF 14
ENDMDL
MODEL 5
REMARK VINA RESULT: -7.794321427      2.715      5.155
REMARK  14 active torsions:
REMARK  status: ('A' for Active; 'I' for Inactive)
REMARK    1  A    between atoms: S1_2  and  C2_3 
REMARK    2  A    between atoms: C3_5  and  O2_6 
REMARK    3  A    between atoms: O2_6  and  C4_7 
REMARK    4  A    between atoms: C7_11  and  N1_12 
REMARK    5  A    between atoms: C9_17  and  O4_18 
REMARK    6  A    between atoms: O4_18  and  C10_19 
REMARK    7  A    between atoms: C13_22  and  O5_24 
REMARK    8  A    between atoms: C15_26  and  C16_27 
REMARK    9  A    between atoms: C16_27  and  C17_32 
REMARK   10  A    between atoms: N2_28  and  O6_30 
REMARK   11  A    between atoms: C17_32  and  N3_33 
REMARK   12  A    between atoms: C17_32  and  O7_37 
REMARK   13  A    between atoms: C18_40  and  N4_41 
REMARK   14  A    between atoms: C21_46  and  O9_47 
ROOT
HETATM    1  C4  UNL     1      -5.364  18.365 -35.120  1.00  0.00     0.292 C 
HETATM    2  O3  UNL     1      -4.166  18.731 -35.692  1.00  0.00    -0.352 OA
HETATM    3  C5  UNL     1      -3.112  17.901 -35.463  1.00  0.00     0.151 C 
HETATM    4  C6  UNL     1      -1.983  18.748 -34.857  1.00  0.00     0.042 C 
HETATM    5  C7  UNL     1      -3.349  16.719 -34.597  1.00  0.00     0.214 C 
HETATM    6  C8  UNL     1      -4.153  17.107 -33.407  1.00  0.00     0.072 C 
HETATM    7  C9  UNL     1      -5.187  18.171 -33.647  1.00  0.00     0.182 C 
ENDROOT
BRANCH   7   8
HETATM    8  O4  UNL     1      -4.855  19.282 -32.935  1.00  0.00    -0.351 OA
BRANCH   8   9
HETATM    9  C10 UNL     1      -5.776  19.785 -32.063  1.00  0.00     0.261 C 
HETATM   10  C11 UNL     1      -5.464  19.484 -30.614  1.00  0.00     0.064 C 
HETATM   11  C12 UNL     1      -5.863  18.078 -30.234  1.00  0.00     0.045 C 
HETATM   12  C13 UNL     1      -7.387  18.040 -30.256  1.00  0.00     0.086 C 
HETATM   13  C14 UNL     1      -7.821  18.522 -28.891  1.00  0.00     0.049 C 
HETATM   14  C15 UNL     1      -7.838  18.998 -31.288  1.00  0.00     0.210 C 
HETATM   15  O8  UNL     1      -6.994  19.169 -32.354  1.00  0.00    -0.347 OA
BRANCH  12  16
HETATM   16  O5  UNL     1      -7.786  16.720 -30.450  1.00  0.00    -0.387 OA
ATOM     17  H5  UNL     1      -8.590  16.724 -30.956  1.00  0.00     0.210 HD
ENDBRANCH  12  16
BRANCH  14  18
HETATM   18  C16 UNL     1      -9.197  18.691 -31.806  1.00  0.00     0.097 C 
HETATM   19  N2  UNL     1      -9.414  17.745 -32.653  1.00  0.00    -0.270 N 
ATOM     20  H2  UNL     1     -10.370  17.582 -32.970  1.00  0.00     0.193 HD
BRANCH  19  21
HETATM   21  O6  UNL     1      -8.434  16.964 -33.136  1.00  0.00    -0.290 OA
ATOM     22  H6  UNL     1      -8.596  16.097 -33.489  1.00  0.00     0.244 HD
ENDBRANCH  19  21
BRANCH  18  23
HETATM   23  C17 UNL     1     -10.417  19.448 -31.376  1.00  0.00     0.367 C 
BRANCH  23  24
HETATM   24  N3  UNL     1     -10.775  20.392 -32.448  1.00  0.00    -0.048 N 
ATOM     25  H33 UNL     1     -10.445  21.340 -32.264  1.00  0.00     0.277 HD
ATOM     26  H32 UNL     1     -10.251  20.228 -33.307  1.00  0.00     0.277 HD
ATOM     27  H31 UNL     1     -11.784  20.347 -32.589  1.00  0.00     0.277 HD
ENDBRANCH  23  24
BRANCH  23  28
HETATM   28  O7  UNL     1     -11.518  18.581 -31.303  1.00  0.00    -0.365 OA
ATOM     29  H7  UNL     1     -12.319  19.082 -31.215  1.00  0.00     0.212 HD
ENDBRANCH  23  28
ENDBRANCH  18  23
ENDBRANCH  14  18
ENDBRANCH   8   9
ENDBRANCH   7   8
BRANCH   1  30
HETATM   30  O2  UNL     1      -5.764  17.151 -35.678  1.00  0.00    -0.327 OA
BRANCH  30  31
HETATM   31  C3  UNL     1      -6.491  17.279 -36.837  1.00  0.00     0.289 C 
HETATM   32  O1  UNL     1      -6.142  16.410 -37.829  1.00  0.00    -0.341 OA
HETATM   33  C2  UNL     1      -7.173  15.560 -38.117  1.00  0.00     0.216 C 
HETATM   34  C21 UNL     1      -8.119  15.610 -36.938  1.00  0.00     0.184 C 
HETATM   35  C18 UNL     1      -7.951  17.037 -36.491  1.00  0.00     0.169 C 
BRANCH  33  36
HETATM   36  S1  UNL     1      -6.628  13.864 -38.459  1.00  0.00    -0.139 SA
HETATM   37  C1  UNL     1      -5.847  13.719 -40.078  1.00  0.00     0.092 C 
ENDBRANCH  33  36
BRANCH  34  38
HETATM   38  O9  UNL     1      -9.401  15.248 -37.231  1.00  0.00    -0.390 OA
ATOM     39  H9  UNL     1     -10.035  15.950 -37.142  1.00  0.00     0.210 HD
ENDBRANCH  34  38
BRANCH  35  40
HETATM   40  N4  UNL     1      -8.824  17.958 -37.118  1.00  0.00    -0.370 N 
HETATM   41  C19 UNL     1      -9.478  18.910 -36.630  1.00  0.00     0.085 C 
HETATM   42  C20 UNL     1     -10.334  19.746 -37.494  1.00  0.00     0.085 C 
HETATM   43  N5  UNL     1      -9.423  19.213 -35.254  1.00  0.00    -0.088 NA
ATOM     44  H4  UNL     1      -8.938  17.828 -38.123  1.00  0.00     0.161 HD
ENDBRANCH  35  40
ENDBRANCH  30  31
ENDBRANCH   1  30
BRANCH   5  45
HETATM   45  N1  UNL     1      -2.044  16.237 -34.105  1.00  0.00    -0.072 N 
ATOM     46  H13 UNL     1      -1.271  16.841 -34.385  1.00  0.00     0.274 HD
ATOM     47  H12 UNL     1      -1.941  16.342 -33.095  1.00  0.00     0.274 HD
ATOM     48  H11 UNL     1      -1.922  15.273 -34.414  1.00  0.00     0.274 HD
ENDBRANCH   5  45
TORSDOF 14
ENDMDL
