MODEL 1
REMARK VINA RESULT: -8.323340628      0.000      0.000
REMARK  16 active torsions:
REMARK  status: ('A' for Active; 'I' for Inactive)
REMARK    1  A    between atoms: C2_2  and  C3_3 
REMARK    2  A    between atoms: C4_6  and  C5_7 
REMARK    3  A    between atoms: C5_7  and  N2_8 
REMARK    4  A    between atoms: N2_8  and  C6_10 
REMARK    5  A    between atoms: C6_10  and  O1_11 
REMARK    6  A    between atoms: C6_10  and  C7_13 
REMARK    7  A    between atoms: N3_15  and  C9_17 
REMARK    8  A    between atoms: C13_23  and  C14_24 
REMARK    9  A    between atoms: C14_24  and  C15_25 
REMARK   10  A    between atoms: C16_28  and  N6_29 
REMARK   11  A    between atoms: C17_34  and  O2_35 
REMARK   12  A    between atoms: C19_41  and  C20_42 
REMARK   13  A    between atoms: C20_42  and  O3_43 
REMARK   14  A    between atoms: O3_43  and  C21_44 
REMARK   15  A    between atoms: C21_44  and  N11_48 
REMARK   16  A    between atoms: N11_48  and  O4_50 
ROOT
HETATM    1  C7  UNL     1      -8.321  17.912 -32.503  1.00  0.00     0.089 A 
HETATM    2  C8  UNL     1      -7.209  17.500 -31.762  1.00  0.00     0.120 A 
HETATM    3  N3  UNL     1      -6.269  16.883 -32.411  1.00  0.00    -0.371 N 
ATOM      4  H3  UNL     1      -6.372  16.724 -33.413  1.00  0.00     0.161 HD
HETATM    5  N4  UNL     1      -7.083  17.712 -30.442  1.00  0.00    -0.326 N 
ATOM      6  H4  UNL     1      -6.248  17.388 -29.953  1.00  0.00     0.169 HD
HETATM    7  C12 UNL     1      -8.047  18.347 -29.765  1.00  0.00     0.141 A 
HETATM    8  C13 UNL     1      -8.140  18.678 -28.413  1.00  0.00     0.029 A 
HETATM    9  C18 UNL     1      -9.355  19.320 -28.309  1.00  0.00     0.123 A 
HETATM   10  N8  UNL     1      -9.911  19.348 -29.529  1.00  0.00    -0.302 N 
ATOM     11  H8  UNL     1     -10.817  19.766 -29.741  1.00  0.00     0.186 HD
HETATM   12  N9  UNL     1      -9.121  18.755 -30.434  1.00  0.00    -0.236 N 
HETATM   13  C19 UNL     1      -9.307  18.566 -31.789  1.00  0.00     0.099 A 
ENDROOT
BRANCH   1  14
HETATM   14  C6  UNL     1      -8.373  17.674 -33.785  1.00  0.00     0.152 C 
BRANCH  14  15
HETATM   15  N2  UNL     1      -7.919  18.559 -34.795  1.00  0.00    -0.364 N 
ATOM     16  H2  UNL     1      -7.767  19.548 -34.593  1.00  0.00     0.162 HD
BRANCH  15  17
HETATM   17  C5  UNL     1      -7.678  18.034 -36.112  1.00  0.00     0.179 C 
BRANCH  17  18
HETATM   18  C4  UNL     1      -6.206  17.735 -36.301  1.00  0.00     0.034 A 
HETATM   19  N1  UNL     1      -5.288  18.327 -35.604  1.00  0.00    -0.355 N 
HETATM   20  C3  UNL     1      -4.015  18.032 -35.801  1.00  0.00     0.050 A 
ATOM     21  H1  UNL     1      -5.548  19.021 -34.903  1.00  0.00     0.166 HD
HETATM   22  S1  UNL     1      -4.098  16.855 -37.032  1.00  0.00    -0.087 SA
HETATM   23  C22 UNL     1      -5.798  16.810 -37.228  1.00  0.00     0.078 A 
BRANCH  20  24
HETATM   24  C2  UNL     1      -2.841  18.634 -35.071  1.00  0.00     0.060 C 
HETATM   25  C1  UNL     1      -1.613  18.674 -35.917  1.00  0.00     0.012 C 
ENDBRANCH  20  24
ENDBRANCH  17  18
ENDBRANCH  15  17
ENDBRANCH  14  15
BRANCH  14  26
HETATM   26  O1  UNL     1      -8.892  16.488 -34.355  1.00  0.00    -0.346 OA
ATOM     27  H1  UNL     1      -8.359  16.207 -35.090  1.00  0.00     0.219 HD
ENDBRANCH  14  26
ENDBRANCH   1  14
BRANCH  13  28
HETATM   28  C20 UNL     1     -10.410  19.016 -32.336  1.00  0.00     0.178 C 
BRANCH  28  29
HETATM   29  O3  UNL     1     -10.541  20.426 -32.446  1.00  0.00    -0.288 OA
BRANCH  29  30
HETATM   30  C21 UNL     1     -10.058  21.091 -33.560  1.00  0.00     0.241 C 
HETATM   31  N10 UNL     1     -10.778  21.040 -34.646  1.00  0.00    -0.364 N 
ATOM     32 2H10 UNL     1     -11.654  20.518 -34.632  1.00  0.00     0.159 HD
ATOM     33 1H10 UNL     1     -10.422  21.530 -35.467  1.00  0.00     0.159 HD
BRANCH  30  34
HETATM   34  N11 UNL     1      -8.845  21.813 -33.580  1.00  0.00    -0.233 N 
ATOM     35  H11 UNL     1      -8.852  22.808 -33.805  1.00  0.00     0.198 HD
BRANCH  34  36
HETATM   36  O4  UNL     1      -7.680  21.200 -33.306  1.00  0.00    -0.287 OA
ATOM     37  H4  UNL     1      -6.937  21.697 -32.983  1.00  0.00     0.244 HD
ENDBRANCH  34  36
ENDBRANCH  30  34
ENDBRANCH  29  30
ENDBRANCH  28  29
ENDBRANCH  13  28
BRANCH   3  38
HETATM   38  C9  UNL     1      -5.074  16.415 -31.732  1.00  0.00     0.083 A 
HETATM   39  C10 UNL     1      -3.862  17.303 -31.665  1.00  0.00     0.027 A 
HETATM   40  C11 UNL     1      -3.847  16.116 -32.567  1.00  0.00     0.027 A 
ENDBRANCH   3  38
BRANCH   8  41
HETATM   41  C14 UNL     1      -7.246  18.420 -27.465  1.00  0.00     0.051 C 
BRANCH  41  42
HETATM   42  C15 UNL     1      -7.634  18.282 -26.086  1.00  0.00     0.101 A 
HETATM   43  N5  UNL     1      -7.830  17.109 -25.452  1.00  0.00    -0.188 N 
HETATM   44  C16 UNL     1      -8.184  17.333 -24.174  1.00  0.00     0.678 A 
ATOM     45  H5  UNL     1      -7.725  16.189 -25.878  1.00  0.00     0.184 HD
HETATM   46  N7  UNL     1      -8.219  18.662 -23.976  1.00  0.00    -0.169 N 
HETATM   47  C17 UNL     1      -7.883  19.257 -25.143  1.00  0.00     0.182 A 
ATOM     48  H7  UNL     1      -8.455  19.136 -23.104  1.00  0.00     0.186 HD
BRANCH  44  49
HETATM   49  N6  UNL     1      -8.445  16.413 -23.295  1.00  0.00    -0.234 N 
ATOM     50  H62 UNL     1      -8.623  15.426 -23.483  1.00  0.00     0.174 HD
ATOM     51  H61 UNL     1      -8.507  16.560 -22.287  1.00  0.00     0.174 HD
ENDBRANCH  44  49
BRANCH  47  52
HETATM   52  O2  UNL     1      -7.788  20.617 -25.402  1.00  0.00    -0.344 OA
ATOM     53  H2  UNL     1      -7.642  20.977 -26.269  1.00  0.00     0.219 HD
ENDBRANCH  47  52
ENDBRANCH  41  42
ENDBRANCH   8  41
TORSDOF 16
ENDMDL
MODEL 2
REMARK VINA RESULT: -8.271396911      3.267      8.372
REMARK  16 active torsions:
REMARK  status: ('A' for Active; 'I' for Inactive)
REMARK    1  A    between atoms: C2_2  and  C3_3 
REMARK    2  A    between atoms: C4_6  and  C5_7 
REMARK    3  A    between atoms: C5_7  and  N2_8 
REMARK    4  A    between atoms: N2_8  and  C6_10 
REMARK    5  A    between atoms: C6_10  and  O1_11 
REMARK    6  A    between atoms: C6_10  and  C7_13 
REMARK    7  A    between atoms: N3_15  and  C9_17 
REMARK    8  A    between atoms: C13_23  and  C14_24 
REMARK    9  A    between atoms: C14_24  and  C15_25 
REMARK   10  A    between atoms: C16_28  and  N6_29 
REMARK   11  A    between atoms: C17_34  and  O2_35 
REMARK   12  A    between atoms: C19_41  and  C20_42 
REMARK   13  A    between atoms: C20_42  and  O3_43 
REMARK   14  A    between atoms: O3_43  and  C21_44 
REMARK   15  A    between atoms: C21_44  and  N11_48 
REMARK   16  A    between atoms: N11_48  and  O4_50 
ROOT
HETATM    1  C7  UNL     1      -7.335  18.718 -32.359  1.00  0.00     0.089 A 
HETATM    2  C8  UNL     1      -7.021  18.180 -33.611  1.00  0.00     0.120 A 
HETATM    3  N3  UNL     1      -7.905  18.329 -34.551  1.00  0.00    -0.371 N 
ATOM      4  H3  UNL     1      -8.775  18.820 -34.348  1.00  0.00     0.161 HD
HETATM    5  N4  UNL     1      -5.873  17.533 -33.868  1.00  0.00    -0.326 N 
ATOM      6  H4  UNL     1      -5.697  17.161 -34.801  1.00  0.00     0.169 HD
HETATM    7  C12 UNL     1      -4.957  17.375 -32.905  1.00  0.00     0.141 A 
HETATM    8  C13 UNL     1      -3.710  16.750 -32.932  1.00  0.00     0.029 A 
HETATM    9  C18 UNL     1      -3.231  16.905 -31.650  1.00  0.00     0.123 A 
HETATM   10  N8  UNL     1      -4.153  17.577 -30.944  1.00  0.00    -0.302 N 
ATOM     11  H8  UNL     1      -4.056  17.829 -29.961  1.00  0.00     0.186 HD
HETATM   12  N9  UNL     1      -5.218  17.873 -31.700  1.00  0.00    -0.236 N 
HETATM   13  C19 UNL     1      -6.380  18.546 -31.376  1.00  0.00     0.099 A 
ENDROOT
BRANCH   1  14
HETATM   14  C6  UNL     1      -8.471  19.338 -32.184  1.00  0.00     0.152 C 
BRANCH  14  15
HETATM   15  N2  UNL     1      -9.557  18.843 -31.419  1.00  0.00    -0.364 N 
ATOM     16  H2  UNL     1      -9.604  17.858 -31.155  1.00  0.00     0.162 HD
BRANCH  15  17
HETATM   17  C5  UNL     1     -10.593  19.759 -31.023  1.00  0.00     0.179 C 
BRANCH  17  18
HETATM   18  C4  UNL     1     -11.815  19.585 -31.898  1.00  0.00     0.034 A 
HETATM   19  N1  UNL     1     -12.096  20.404 -32.861  1.00  0.00    -0.355 N 
HETATM   20  C3  UNL     1     -13.174  20.210 -33.601  1.00  0.00     0.050 A 
ATOM     21  H1  UNL     1     -11.485  21.199 -33.049  1.00  0.00     0.166 HD
HETATM   22  S1  UNL     1     -13.839  18.797 -32.917  1.00  0.00    -0.087 SA
HETATM   23  C22 UNL     1     -12.672  18.532 -31.693  1.00  0.00     0.078 A 
BRANCH  20  24
HETATM   24  C2  UNL     1     -13.628  21.075 -34.751  1.00  0.00     0.060 C 
HETATM   25  C1  UNL     1     -14.714  22.017 -34.351  1.00  0.00     0.012 C 
ENDBRANCH  20  24
ENDBRANCH  17  18
ENDBRANCH  15  17
ENDBRANCH  14  15
BRANCH  14  26
HETATM   26  O1  UNL     1      -8.783  20.602 -32.737  1.00  0.00    -0.346 OA
ATOM     27  H1  UNL     1      -8.405  20.692 -33.604  1.00  0.00     0.219 HD
ENDBRANCH  14  26
ENDBRANCH   1  14
BRANCH  13  28
HETATM   28  C20 UNL     1      -6.521  18.992 -30.151  1.00  0.00     0.178 C 
BRANCH  28  29
HETATM   29  O3  UNL     1      -6.500  18.025 -29.112  1.00  0.00    -0.288 OA
BRANCH  29  30
HETATM   30  C21 UNL     1      -7.634  17.785 -28.354  1.00  0.00     0.241 C 
HETATM   31  N10 UNL     1      -8.361  18.816 -28.022  1.00  0.00    -0.364 N 
ATOM     32 2H10 UNL     1      -8.070  19.744 -28.329  1.00  0.00     0.159 HD
ATOM     33 1H10 UNL     1      -9.197  18.639 -27.464  1.00  0.00     0.159 HD
BRANCH  30  34
HETATM   34  N11 UNL     1      -8.038  16.501 -27.929  1.00  0.00    -0.233 N 
ATOM     35  H11 UNL     1      -7.427  15.700 -28.090  1.00  0.00     0.198 HD
BRANCH  34  36
HETATM   36  O4  UNL     1      -9.220  16.325 -27.314  1.00  0.00    -0.287 OA
ATOM     37  H4  UNL     1      -9.256  16.019 -26.415  1.00  0.00     0.244 HD
ENDBRANCH  34  36
ENDBRANCH  30  34
ENDBRANCH  29  30
ENDBRANCH  28  29
ENDBRANCH  13  28
BRANCH   3  38
HETATM   38  C9  UNL     1      -7.673  17.807 -35.884  1.00  0.00     0.083 A 
HETATM   39  C10 UNL     1      -8.572  18.227 -37.014  1.00  0.00     0.027 A 
HETATM   40  C11 UNL     1      -8.690  16.847 -36.464  1.00  0.00     0.027 A 
ENDBRANCH   3  38
BRANCH   8  41
HETATM   41  C14 UNL     1      -3.140  16.150 -33.971  1.00  0.00     0.051 C 
BRANCH  41  42
HETATM   42  C15 UNL     1      -2.281  16.870 -34.873  1.00  0.00     0.101 A 
HETATM   43  N5  UNL     1      -2.608  18.015 -35.504  1.00  0.00    -0.188 N 
HETATM   44  C16 UNL     1      -1.582  18.424 -36.272  1.00  0.00     0.678 A 
ATOM     45  H5  UNL     1      -3.500  18.499 -35.413  1.00  0.00     0.184 HD
HETATM   46  N7  UNL     1      -0.580  17.537 -36.140  1.00  0.00    -0.169 N 
HETATM   47  C17 UNL     1      -0.997  16.577 -35.283  1.00  0.00     0.182 A 
ATOM     48  H7  UNL     1       0.328  17.581 -36.600  1.00  0.00     0.186 HD
BRANCH  44  49
HETATM   49  N6  UNL     1      -1.576  19.493 -37.010  1.00  0.00    -0.234 N 
ATOM     50  H62 UNL     1      -0.967  19.678 -37.808  1.00  0.00     0.174 HD
ATOM     51  H61 UNL     1      -2.189  20.299 -36.885  1.00  0.00     0.174 HD
ENDBRANCH  44  49
BRANCH  47  52
HETATM   52  O2  UNL     1      -0.290  15.463 -34.853  1.00  0.00    -0.344 OA
ATOM     53  H2  UNL     1       0.446  15.507 -34.253  1.00  0.00     0.219 HD
ENDBRANCH  47  52
ENDBRANCH  41  42
ENDBRANCH   8  41
TORSDOF 16
ENDMDL
MODEL 3
REMARK VINA RESULT: -8.266254177      3.057      7.715
REMARK  16 active torsions:
REMARK  status: ('A' for Active; 'I' for Inactive)
REMARK    1  A    between atoms: C2_2  and  C3_3 
REMARK    2  A    between atoms: C4_6  and  C5_7 
REMARK    3  A    between atoms: C5_7  and  N2_8 
REMARK    4  A    between atoms: N2_8  and  C6_10 
REMARK    5  A    between atoms: C6_10  and  O1_11 
REMARK    6  A    between atoms: C6_10  and  C7_13 
REMARK    7  A    between atoms: N3_15  and  C9_17 
REMARK    8  A    between atoms: C13_23  and  C14_24 
REMARK    9  A    between atoms: C14_24  and  C15_25 
REMARK   10  A    between atoms: C16_28  and  N6_29 
REMARK   11  A    between atoms: C17_34  and  O2_35 
REMARK   12  A    between atoms: C19_41  and  C20_42 
REMARK   13  A    between atoms: C20_42  and  O3_43 
REMARK   14  A    between atoms: O3_43  and  C21_44 
REMARK   15  A    between atoms: C21_44  and  N11_48 
REMARK   16  A    between atoms: N11_48  and  O4_50 
ROOT
HETATM    1  C7  UNL     1      -7.614  18.175 -32.312  1.00  0.00     0.089 A 
HETATM    2  C8  UNL     1      -7.238  17.513 -33.485  1.00  0.00     0.120 A 
HETATM    3  N3  UNL     1      -8.152  17.376 -34.398  1.00  0.00    -0.371 N 
ATOM      4  H3  UNL     1      -9.087  17.746 -34.232  1.00  0.00     0.161 HD
HETATM    5  N4  UNL     1      -6.004  17.026 -33.694  1.00  0.00    -0.326 N 
ATOM      6  H4  UNL     1      -5.788  16.551 -34.570  1.00  0.00     0.169 HD
HETATM    7  C12 UNL     1      -5.058  17.163 -32.758  1.00  0.00     0.141 A 
HETATM    8  C13 UNL     1      -3.725  16.748 -32.747  1.00  0.00     0.029 A 
HETATM    9  C18 UNL     1      -3.255  17.169 -31.523  1.00  0.00     0.123 A 
HETATM   10  N8  UNL     1      -4.262  17.782 -30.884  1.00  0.00    -0.302 N 
ATOM     11  H8  UNL     1      -4.189  18.192 -29.953  1.00  0.00     0.186 HD
HETATM   12  N9  UNL     1      -5.375  17.788 -31.628  1.00  0.00    -0.236 N 
HETATM   13  C19 UNL     1      -6.625  18.308 -31.357  1.00  0.00     0.099 A 
ENDROOT
BRANCH   1  14
HETATM   14  C6  UNL     1      -8.832  18.625 -32.181  1.00  0.00     0.152 C 
BRANCH  14  15
HETATM   15  N2  UNL     1      -9.193  19.995 -32.142  1.00  0.00    -0.364 N 
ATOM     16  H2  UNL     1      -9.605  20.403 -31.302  1.00  0.00     0.162 HD
BRANCH  15  17
HETATM   17  C5  UNL     1      -8.967  20.799 -33.313  1.00  0.00     0.179 C 
BRANCH  17  18
HETATM   18  C4  UNL     1     -10.024  20.517 -34.359  1.00  0.00     0.034 A 
HETATM   19  N1  UNL     1      -9.724  20.295 -35.600  1.00  0.00    -0.355 N 
HETATM   20  C3  UNL     1     -10.681  20.051 -36.478  1.00  0.00     0.050 A 
ATOM     21  H1  UNL     1      -8.749  20.309 -35.899  1.00  0.00     0.166 HD
HETATM   22  S1  UNL     1     -12.088  20.132 -35.519  1.00  0.00    -0.087 SA
HETATM   23  C22 UNL     1     -11.352  20.485 -34.014  1.00  0.00     0.078 A 
BRANCH  20  24
HETATM   24  C2  UNL     1     -10.486  19.776 -37.948  1.00  0.00     0.060 C 
HETATM   25  C1  UNL     1     -11.489  18.804 -38.476  1.00  0.00     0.012 C 
ENDBRANCH  20  24
ENDBRANCH  17  18
ENDBRANCH  15  17
ENDBRANCH  14  15
BRANCH  14  26
HETATM   26  O1  UNL     1      -9.977  17.802 -32.057  1.00  0.00    -0.346 OA
ATOM     27  H1  UNL     1     -10.524  17.869 -32.831  1.00  0.00     0.219 HD
ENDBRANCH  14  26
ENDBRANCH   1  14
BRANCH  13  28
HETATM   28  C20 UNL     1      -6.815  18.904 -30.205  1.00  0.00     0.178 C 
BRANCH  28  29
HETATM   29  O3  UNL     1      -6.804  18.081 -29.048  1.00  0.00    -0.288 OA
BRANCH  29  30
HETATM   30  C21 UNL     1      -7.984  17.783 -28.388  1.00  0.00     0.241 C 
HETATM   31  N10 UNL     1      -8.977  18.617 -28.530  1.00  0.00    -0.364 N 
ATOM     32 2H10 UNL     1      -8.846  19.443 -29.112  1.00  0.00     0.159 HD
ATOM     33 1H10 UNL     1      -9.847  18.397 -28.044  1.00  0.00     0.159 HD
BRANCH  30  34
HETATM   34  N11 UNL     1      -8.166  16.638 -27.581  1.00  0.00    -0.233 N 
ATOM     35  H11 UNL     1      -7.353  16.132 -27.230  1.00  0.00     0.198 HD
BRANCH  34  36
HETATM   36  O4  UNL     1      -9.402  16.209 -27.272  1.00  0.00    -0.287 OA
ATOM     37  H4  UNL     1      -9.561  15.292 -27.079  1.00  0.00     0.244 HD
ENDBRANCH  34  36
ENDBRANCH  30  34
ENDBRANCH  29  30
ENDBRANCH  28  29
ENDBRANCH  13  28
BRANCH   3  38
HETATM   38  C9  UNL     1      -7.862  16.703 -35.651  1.00  0.00     0.083 A 
HETATM   39  C10 UNL     1      -7.763  17.505 -36.919  1.00  0.00     0.027 A 
HETATM   40  C11 UNL     1      -8.954  16.636 -36.697  1.00  0.00     0.027 A 
ENDBRANCH   3  38
BRANCH   8  41
HETATM   41  C14 UNL     1      -3.084  16.098 -33.712  1.00  0.00     0.051 C 
BRANCH  41  42
HETATM   42  C15 UNL     1      -2.279  16.795 -34.679  1.00  0.00     0.101 A 
HETATM   43  N5  UNL     1      -2.629  17.941 -35.295  1.00  0.00    -0.188 N 
HETATM   44  C16 UNL     1      -1.653  18.326 -36.137  1.00  0.00     0.678 A 
ATOM     45  H5  UNL     1      -3.505  18.442 -35.146  1.00  0.00     0.184 HD
HETATM   46  N7  UNL     1      -0.660  17.423 -36.067  1.00  0.00    -0.169 N 
HETATM   47  C17 UNL     1      -1.031  16.477 -35.175  1.00  0.00     0.182 A 
ATOM     48  H7  UNL     1       0.215  17.447 -36.590  1.00  0.00     0.186 HD
BRANCH  44  49
HETATM   49  N6  UNL     1      -1.681  19.389 -36.883  1.00  0.00    -0.234 N 
ATOM     50  H62 UNL     1      -2.356  19.598 -37.619  1.00  0.00     0.174 HD
ATOM     51  H61 UNL     1      -1.021  20.165 -36.828  1.00  0.00     0.174 HD
ENDBRANCH  44  49
BRANCH  47  52
HETATM   52  O2  UNL     1      -0.315  15.354 -34.785  1.00  0.00    -0.344 OA
ATOM     53  H2  UNL     1      -0.449  14.490 -35.158  1.00  0.00     0.219 HD
ENDBRANCH  47  52
ENDBRANCH  41  42
ENDBRANCH   8  41
TORSDOF 16
ENDMDL
MODEL 4
REMARK VINA RESULT: -8.201279726      2.016      3.820
REMARK  16 active torsions:
REMARK  status: ('A' for Active; 'I' for Inactive)
REMARK    1  A    between atoms: C2_2  and  C3_3 
REMARK    2  A    between atoms: C4_6  and  C5_7 
REMARK    3  A    between atoms: C5_7  and  N2_8 
REMARK    4  A    between atoms: N2_8  and  C6_10 
REMARK    5  A    between atoms: C6_10  and  O1_11 
REMARK    6  A    between atoms: C6_10  and  C7_13 
REMARK    7  A    between atoms: N3_15  and  C9_17 
REMARK    8  A    between atoms: C13_23  and  C14_24 
REMARK    9  A    between atoms: C14_24  and  C15_25 
REMARK   10  A    between atoms: C16_28  and  N6_29 
REMARK   11  A    between atoms: C17_34  and  O2_35 
REMARK   12  A    between atoms: C19_41  and  C20_42 
REMARK   13  A    between atoms: C20_42  and  O3_43 
REMARK   14  A    between atoms: O3_43  and  C21_44 
REMARK   15  A    between atoms: C21_44  and  N11_48 
REMARK   16  A    between atoms: N11_48  and  O4_50 
ROOT
HETATM    1  C7  UNL     1      -7.714  17.556 -32.901  1.00  0.00     0.089 A 
HETATM    2  C8  UNL     1      -8.916  17.982 -32.327  1.00  0.00     0.120 A 
HETATM    3  N3  UNL     1      -9.914  18.176 -33.134  1.00  0.00    -0.371 N 
ATOM      4  H3  UNL     1      -9.790  18.016 -34.134  1.00  0.00     0.161 HD
HETATM    5  N4  UNL     1      -9.070  18.192 -31.009  1.00  0.00    -0.326 N 
ATOM      6  H4  UNL     1      -9.971  18.504 -30.647  1.00  0.00     0.169 HD
HETATM    7  C12 UNL     1      -8.046  17.995 -30.171  1.00  0.00     0.141 A 
HETATM    8  C13 UNL     1      -7.965  18.144 -28.785  1.00  0.00     0.029 A 
HETATM    9  C18 UNL     1      -6.666  17.798 -28.488  1.00  0.00     0.123 A 
HETATM   10  N8  UNL     1      -6.053  17.474 -29.635  1.00  0.00    -0.302 N 
ATOM     11  H8  UNL     1      -5.079  17.179 -29.706  1.00  0.00     0.186 HD
HETATM   12  N9  UNL     1      -6.886  17.590 -30.678  1.00  0.00    -0.236 N 
HETATM   13  C19 UNL     1      -6.668  17.358 -32.021  1.00  0.00     0.099 A 
ENDROOT
BRANCH   1  14
HETATM   14  C6  UNL     1      -7.640  17.369 -34.191  1.00  0.00     0.152 C 
BRANCH  14  15
HETATM   15  N2  UNL     1      -6.899  18.179 -35.088  1.00  0.00    -0.364 N 
ATOM     16  H2  UNL     1      -6.657  19.140 -34.846  1.00  0.00     0.162 HD
BRANCH  15  17
HETATM   17  C5  UNL     1      -6.494  17.615 -36.348  1.00  0.00     0.179 C 
BRANCH  17  18
HETATM   18  C4  UNL     1      -4.989  17.681 -36.497  1.00  0.00     0.034 A 
HETATM   19  N1  UNL     1      -4.198  16.877 -35.861  1.00  0.00    -0.355 N 
HETATM   20  C3  UNL     1      -2.890  16.969 -36.025  1.00  0.00     0.050 A 
ATOM     21  H1  UNL     1      -4.584  16.172 -35.232  1.00  0.00     0.166 HD
HETATM   22  S1  UNL     1      -2.750  18.254 -37.137  1.00  0.00    -0.087 SA
HETATM   23  C22 UNL     1      -4.413  18.608 -37.329  1.00  0.00     0.078 A 
BRANCH  20  24
HETATM   24  C2  UNL     1      -1.848  16.108 -35.355  1.00  0.00     0.060 C 
HETATM   25  C1  UNL     1      -2.219  15.769 -33.949  1.00  0.00     0.012 C 
ENDBRANCH  20  24
ENDBRANCH  17  18
ENDBRANCH  15  17
ENDBRANCH  14  15
BRANCH  14  26
HETATM   26  O1  UNL     1      -8.294  16.324 -34.884  1.00  0.00    -0.346 OA
ATOM     27  H1  UNL     1      -8.595  15.656 -34.278  1.00  0.00     0.219 HD
ENDBRANCH  14  26
ENDBRANCH   1  14
BRANCH  13  28
HETATM   28  C20 UNL     1      -5.478  16.958 -32.400  1.00  0.00     0.178 C 
BRANCH  28  29
HETATM   29  O3  UNL     1      -4.376  17.758 -31.998  1.00  0.00    -0.288 OA
BRANCH  29  30
HETATM   30  C21 UNL     1      -4.277  19.076 -32.412  1.00  0.00     0.241 C 
HETATM   31  N10 UNL     1      -3.737  19.298 -33.578  1.00  0.00    -0.364 N 
ATOM     32 2H10 UNL     1      -3.413  18.504 -34.129  1.00  0.00     0.159 HD
ATOM     33 1H10 UNL     1      -3.665  20.269 -33.883  1.00  0.00     0.159 HD
BRANCH  30  34
HETATM   34  N11 UNL     1      -4.726  20.175 -31.648  1.00  0.00    -0.233 N 
ATOM     35  H11 UNL     1      -4.976  21.047 -32.115  1.00  0.00     0.198 HD
BRANCH  34  36
HETATM   36  O4  UNL     1      -4.825  20.083 -30.311  1.00  0.00    -0.287 OA
ATOM     37  H4  UNL     1      -4.047  19.987 -29.774  1.00  0.00     0.244 HD
ENDBRANCH  34  36
ENDBRANCH  30  34
ENDBRANCH  29  30
ENDBRANCH  28  29
ENDBRANCH  13  28
BRANCH   3  38
HETATM   38  C9  UNL     1     -11.204  18.619 -32.637  1.00  0.00     0.083 A 
HETATM   39  C10 UNL     1     -12.380  17.682 -32.684  1.00  0.00     0.027 A 
HETATM   40  C11 UNL     1     -12.322  18.830 -33.635  1.00  0.00     0.027 A 
ENDBRANCH   3  38
BRANCH   8  41
HETATM   41  C14 UNL     1      -8.937  18.533 -27.967  1.00  0.00     0.051 C 
BRANCH  41  42
HETATM   42  C15 UNL     1      -8.650  19.230 -26.741  1.00  0.00     0.101 A 
HETATM   43  N5  UNL     1      -8.077  18.678 -25.654  1.00  0.00    -0.188 N 
HETATM   44  C16 UNL     1      -7.952  19.600 -24.683  1.00  0.00     0.678 A 
ATOM     45  H5  UNL     1      -7.782  17.704 -25.579  1.00  0.00     0.184 HD
HETATM   46  N7  UNL     1      -8.447  20.762 -25.144  1.00  0.00    -0.169 N 
HETATM   47  C17 UNL     1      -8.880  20.548 -26.406  1.00  0.00     0.182 A 
ATOM     48  H7  UNL     1      -8.489  21.644 -24.633  1.00  0.00     0.186 HD
BRANCH  44  49
HETATM   49  N6  UNL     1      -7.438  19.389 -23.509  1.00  0.00    -0.234 N 
ATOM     50  H62 UNL     1      -6.714  18.709 -23.275  1.00  0.00     0.174 HD
ATOM     51  H61 UNL     1      -7.696  19.884 -22.655  1.00  0.00     0.174 HD
ENDBRANCH  44  49
BRANCH  47  52
HETATM   52  O2  UNL     1      -9.465  21.467 -27.267  1.00  0.00    -0.344 OA
ATOM     53  H2  UNL     1      -9.026  22.252 -27.574  1.00  0.00     0.219 HD
ENDBRANCH  47  52
ENDBRANCH  41  42
ENDBRANCH   8  41
TORSDOF 16
ENDMDL
MODEL 5
REMARK VINA RESULT: -8.196307665      3.073      8.450
REMARK  16 active torsions:
REMARK  status: ('A' for Active; 'I' for Inactive)
REMARK    1  A    between atoms: C2_2  and  C3_3 
REMARK    2  A    between atoms: C4_6  and  C5_7 
REMARK    3  A    between atoms: C5_7  and  N2_8 
REMARK    4  A    between atoms: N2_8  and  C6_10 
REMARK    5  A    between atoms: C6_10  and  O1_11 
REMARK    6  A    between atoms: C6_10  and  C7_13 
REMARK    7  A    between atoms: N3_15  and  C9_17 
REMARK    8  A    between atoms: C13_23  and  C14_24 
REMARK    9  A    between atoms: C14_24  and  C15_25 
REMARK   10  A    between atoms: C16_28  and  N6_29 
REMARK   11  A    between atoms: C17_34  and  O2_35 
REMARK   12  A    between atoms: C19_41  and  C20_42 
REMARK   13  A    between atoms: C20_42  and  O3_43 
REMARK   14  A    between atoms: O3_43  and  C21_44 
REMARK   15  A    between atoms: C21_44  and  N11_48 
REMARK   16  A    between atoms: N11_48  and  O4_50 
ROOT
HETATM    1  C7  UNL     1      -6.210  18.586 -32.065  1.00  0.00     0.089 A 
HETATM    2  C8  UNL     1      -5.555  18.003 -33.154  1.00  0.00     0.120 A 
HETATM    3  N3  UNL     1      -4.317  17.654 -32.975  1.00  0.00    -0.371 N 
ATOM      4  H3  UNL     1      -3.877  17.813 -32.069  1.00  0.00     0.161 HD
HETATM    5  N4  UNL     1      -6.143  17.799 -34.345  1.00  0.00    -0.326 N 
ATOM      6  H4  UNL     1      -5.615  17.369 -35.104  1.00  0.00     0.169 HD
HETATM    7  C12 UNL     1      -7.418  18.157 -34.538  1.00  0.00     0.141 A 
HETATM    8  C13 UNL     1      -8.230  18.047 -35.668  1.00  0.00     0.029 A 
HETATM    9  C18 UNL     1      -9.434  18.581 -35.266  1.00  0.00     0.123 A 
HETATM   10  N8  UNL     1      -9.307  18.968 -33.988  1.00  0.00    -0.302 N 
ATOM     11  H8  UNL     1     -10.050  19.399 -33.439  1.00  0.00     0.186 HD
HETATM   12  N9  UNL     1      -8.075  18.714 -33.526  1.00  0.00    -0.236 N 
HETATM   13  C19 UNL     1      -7.525  18.949 -32.282  1.00  0.00     0.099 A 
ENDROOT
BRANCH   1  14
HETATM   14  C6  UNL     1      -5.576  18.750 -30.936  1.00  0.00     0.152 C 
BRANCH  14  15
HETATM   15  N2  UNL     1      -5.395  17.746 -29.952  1.00  0.00    -0.364 N 
ATOM     16  H2  UNL     1      -4.479  17.586 -29.532  1.00  0.00     0.162 HD
BRANCH  15  17
HETATM   17  C5  UNL     1      -6.531  16.957 -29.559  1.00  0.00     0.179 C 
BRANCH  17  18
HETATM   18  C4  UNL     1      -6.957  17.309 -28.150  1.00  0.00     0.034 A 
HETATM   19  N1  UNL     1      -7.552  18.425 -27.868  1.00  0.00    -0.355 N 
HETATM   20  C3  UNL     1      -7.908  18.688 -26.623  1.00  0.00     0.050 A 
ATOM     21  H1  UNL     1      -7.745  19.101 -28.607  1.00  0.00     0.166 HD
HETATM   22  S1  UNL     1      -7.387  17.295 -25.790  1.00  0.00    -0.087 SA
HETATM   23  C22 UNL     1      -6.725  16.438 -27.115  1.00  0.00     0.078 A 
BRANCH  20  24
HETATM   24  C2  UNL     1      -8.604  19.939 -26.145  1.00  0.00     0.060 C 
HETATM   25  C1  UNL     1      -8.231  20.288 -24.743  1.00  0.00     0.012 C 
ENDBRANCH  20  24
ENDBRANCH  17  18
ENDBRANCH  15  17
ENDBRANCH  14  15
BRANCH  14  26
HETATM   26  O1  UNL     1      -4.972  19.963 -30.530  1.00  0.00    -0.346 OA
ATOM     27  H1  UNL     1      -5.025  20.613 -31.221  1.00  0.00     0.219 HD
ENDBRANCH  14  26
ENDBRANCH   1  14
BRANCH  13  28
HETATM   28  C20 UNL     1      -8.278  19.505 -31.363  1.00  0.00     0.178 C 
BRANCH  28  29
HETATM   29  O3  UNL     1      -9.470  18.819 -31.011  1.00  0.00    -0.288 OA
BRANCH  29  30
HETATM   30  C21 UNL     1     -10.505  19.489 -30.380  1.00  0.00     0.241 C 
HETATM   31  N10 UNL     1     -11.232  20.290 -31.108  1.00  0.00    -0.364 N 
ATOM     32 2H10 UNL     1     -11.011  20.391 -32.099  1.00  0.00     0.159 HD
ATOM     33 1H10 UNL     1     -11.994  20.783 -30.643  1.00  0.00     0.159 HD
BRANCH  30  34
HETATM   34  N11 UNL     1     -10.810  19.350 -29.008  1.00  0.00    -0.233 N 
ATOM     35  H11 UNL     1     -10.363  19.962 -28.326  1.00  0.00     0.198 HD
BRANCH  34  36
HETATM   36  O4  UNL     1     -11.684  18.416 -28.594  1.00  0.00    -0.287 OA
ATOM     37  H4  UNL     1     -11.787  18.228 -27.668  1.00  0.00     0.244 HD
ENDBRANCH  34  36
ENDBRANCH  30  34
ENDBRANCH  29  30
ENDBRANCH  28  29
ENDBRANCH  13  28
BRANCH   3  38
HETATM   38  C9  UNL     1      -3.551  17.041 -34.043  1.00  0.00     0.083 A 
HETATM   39  C10 UNL     1      -2.148  16.568 -33.775  1.00  0.00     0.027 A 
HETATM   40  C11 UNL     1      -2.360  17.796 -34.594  1.00  0.00     0.027 A 
ENDBRANCH   3  38
BRANCH   8  41
HETATM   41  C14 UNL     1      -7.891  17.539 -36.847  1.00  0.00     0.051 C 
BRANCH  41  42
HETATM   42  C15 UNL     1      -6.895  18.166 -37.675  1.00  0.00     0.101 A 
HETATM   43  N5  UNL     1      -7.123  19.193 -38.516  1.00  0.00    -0.188 N 
HETATM   44  C16 UNL     1      -5.981  19.540 -39.137  1.00  0.00     0.678 A 
ATOM     45  H5  UNL     1      -8.027  19.642 -38.660  1.00  0.00     0.184 HD
HETATM   46  N7  UNL     1      -5.003  18.731 -38.696  1.00  0.00    -0.169 N 
HETATM   47  C17 UNL     1      -5.550  17.882 -37.797  1.00  0.00     0.182 A 
ATOM     48  H7  UNL     1      -4.025  18.753 -38.985  1.00  0.00     0.186 HD
BRANCH  44  49
HETATM   49  N6  UNL     1      -5.861  20.494 -40.011  1.00  0.00    -0.234 N 
ATOM     50  H62 UNL     1      -6.074  20.436 -41.007  1.00  0.00     0.174 HD
ATOM     51  H61 UNL     1      -5.533  21.439 -39.811  1.00  0.00     0.174 HD
ENDBRANCH  44  49
BRANCH  47  52
HETATM   52  O2  UNL     1      -4.911  16.875 -37.086  1.00  0.00    -0.344 OA
ATOM     53  H2  UNL     1      -4.524  17.003 -36.228  1.00  0.00     0.219 HD
ENDBRANCH  47  52
ENDBRANCH  41  42
ENDBRANCH   8  41
TORSDOF 16
ENDMDL
