MODEL 1
REMARK VINA RESULT: -9.204323925      0.000      0.000
REMARK  13 active torsions:
REMARK  status: ('A' for Active; 'I' for Inactive)
REMARK    1  A    between atoms: C4_4  and  C5_5 
REMARK    2  A    between atoms: C5_5  and  O1_6 
REMARK    3  A    between atoms: C5_5  and  N1_8 
REMARK    4  A    between atoms: N1_8  and  C6_10 
REMARK    5  A    between atoms: C7_13  and  C8_14 
REMARK    6  A    between atoms: N4_22  and  O2_23 
REMARK    7  A    between atoms: C14_25  and  O3_26 
REMARK    8  A    between atoms: O3_26  and  O4_27 
REMARK    9  A    between atoms: C15_31  and  N6_32 
REMARK   10  A    between atoms: N6_32  and  N7_33 
REMARK   11  A    between atoms: C16_35  and  C17_36 
REMARK   12  A    between atoms: N9_40  and  C20_41 
REMARK   13  A    between atoms: C20_41  and  C21_42 
ROOT
HETATM    1  C5  UNL     1      -4.732  18.844 -30.964  1.00  0.00     0.245 C 
ENDROOT
BRANCH   1   2
HETATM    2  C4  UNL     1      -5.314  19.029 -32.345  1.00  0.00     0.155 C 
HETATM    3  C3  UNL     1      -4.244  19.264 -33.324  1.00  0.00     0.034 C 
HETATM    4  C2  UNL     1      -4.146  18.565 -34.441  1.00  0.00     0.046 C 
HETATM    5  C1  UNL     1      -3.064  18.832 -35.395  1.00  0.00     0.076 C 
HETATM    6  O7  UNL     1      -5.066  17.603 -34.683  1.00  0.00    -0.301 OA
HETATM    7  C15 UNL     1      -6.313  17.481 -33.956  1.00  0.00     0.435 C 
HETATM    8  N5  UNL     1      -6.142  17.888 -32.600  1.00  0.00    -0.357 N 
ATOM      9  H5  UNL     1      -6.594  17.383 -31.837  1.00  0.00     0.159 HD
BRANCH   7  10
HETATM   10  N6  UNL     1      -7.359  18.047 -34.606  1.00  0.00    -0.315 NA
BRANCH  10  11
HETATM   11  N7  UNL     1      -8.385  18.601 -35.242  1.00  0.00    -0.251 N 
HETATM   12  C16 UNL     1      -8.830  18.443 -36.411  1.00  0.00     0.099 C 
ATOM     13  H7  UNL     1      -8.907  19.276 -34.684  1.00  0.00     0.200 HD
BRANCH  12  14
HETATM   14  C17 UNL     1     -10.067  19.289 -36.753  1.00  0.00     0.038 A 
HETATM   15  C18 UNL     1     -10.621  19.961 -35.625  1.00  0.00     0.017 A 
HETATM   16  C19 UNL     1     -11.745  20.881 -35.403  1.00  0.00     0.134 C 
HETATM   17  C23 UNL     1     -11.321  18.776 -36.373  1.00  0.00     0.015 A 
HETATM   18  N8  UNL     1     -12.729  20.059 -34.667  1.00  0.00    -0.164 NA
HETATM   19  N9  UNL     1     -12.140  18.864 -34.190  1.00  0.00    -0.224 NA
HETATM   20  C22 UNL     1     -11.792  17.942 -35.277  1.00  0.00     0.115 C 
BRANCH  19  21
HETATM   21  C20 UNL     1     -13.181  18.204 -33.418  1.00  0.00     0.222 C 
BRANCH  21  22
HETATM   22  C21 UNL     1     -12.874  18.105 -31.979  1.00  0.00     0.187 C 
HETATM   23  O5  UNL     1     -13.766  17.717 -31.190  1.00  0.00    -0.647 OA
HETATM   24  O6  UNL     1     -11.654  18.417 -31.437  1.00  0.00    -0.647 OA
ENDBRANCH  21  22
ENDBRANCH  19  21
ENDBRANCH  12  14
ENDBRANCH  10  11
ENDBRANCH   7  10
ENDBRANCH   1   2
BRANCH   1  25
HETATM   25  O1  UNL     1      -5.027  19.965 -30.172  1.00  0.00    -0.374 OA
ATOM     26  H1  UNL     1      -4.294  20.568 -30.187  1.00  0.00     0.212 HD
ENDBRANCH   1  25
BRANCH   1  27
HETATM   27  N1  UNL     1      -5.043  17.618 -30.310  1.00  0.00    -0.348 N 
ATOM     28  H1  UNL     1      -4.412  16.821 -30.390  1.00  0.00     0.163 HD
BRANCH  27  29
HETATM   29  C6  UNL     1      -6.242  17.507 -29.542  1.00  0.00     0.128 C 
HETATM   30  N2  UNL     1      -6.442  18.093 -28.412  1.00  0.00    -0.350 N 
HETATM   31  C7  UNL     1      -7.696  17.909 -27.738  1.00  0.00     0.230 C 
ATOM     32  H2  UNL     1      -5.718  18.683 -28.000  1.00  0.00     0.163 HD
HETATM   33  N3  UNL     1      -8.308  16.618 -27.913  1.00  0.00    -0.302 N 
HETATM   34  N4  UNL     1      -7.813  15.842 -28.919  1.00  0.00    -0.069 NA
ATOM     35  H3  UNL     1      -9.071  16.301 -27.316  1.00  0.00     0.179 HD
HETATM   36  C14 UNL     1      -7.342  16.652 -30.045  1.00  0.00     0.348 C 
BRANCH  31  37
HETATM   37  C8  UNL     1      -7.717  18.301 -26.320  1.00  0.00    -0.015 A 
HETATM   38  C9  UNL     1      -7.346  17.348 -25.354  1.00  0.00     0.011 A 
HETATM   39  C10 UNL     1      -7.373  17.611 -24.013  1.00  0.00     0.001 A 
HETATM   40  C11 UNL     1      -7.783  18.875 -23.558  1.00  0.00     0.000 A 
HETATM   41  C12 UNL     1      -8.145  19.813 -24.482  1.00  0.00     0.001 A 
HETATM   42  C13 UNL     1      -8.109  19.523 -25.847  1.00  0.00     0.011 A 
ENDBRANCH  31  37
BRANCH  34  43
HETATM   43  O2  UNL     1      -6.826  14.999 -28.510  1.00  0.00    -0.291 OA
ATOM     44  H2  UNL     1      -5.962  15.268 -28.798  1.00  0.00     0.239 HD
ENDBRANCH  34  43
BRANCH  36  45
HETATM   45  O3  UNL     1      -8.373  17.470 -30.489  1.00  0.00    -0.210 OA
BRANCH  45  46
HETATM   46  O4  UNL     1      -8.744  17.237 -31.727  1.00  0.00    -0.248 OA
ATOM     47  H4  UNL     1      -9.415  16.570 -31.811  1.00  0.00     0.253 HD
ENDBRANCH  45  46
ENDBRANCH  36  45
ENDBRANCH  27  29
ENDBRANCH   1  27
TORSDOF 13
ENDMDL
MODEL 2
REMARK VINA RESULT: -9.198626266      1.099      1.281
REMARK  13 active torsions:
REMARK  status: ('A' for Active; 'I' for Inactive)
REMARK    1  A    between atoms: C4_4  and  C5_5 
REMARK    2  A    between atoms: C5_5  and  O1_6 
REMARK    3  A    between atoms: C5_5  and  N1_8 
REMARK    4  A    between atoms: N1_8  and  C6_10 
REMARK    5  A    between atoms: C7_13  and  C8_14 
REMARK    6  A    between atoms: N4_22  and  O2_23 
REMARK    7  A    between atoms: C14_25  and  O3_26 
REMARK    8  A    between atoms: O3_26  and  O4_27 
REMARK    9  A    between atoms: C15_31  and  N6_32 
REMARK   10  A    between atoms: N6_32  and  N7_33 
REMARK   11  A    between atoms: C16_35  and  C17_36 
REMARK   12  A    between atoms: N9_40  and  C20_41 
REMARK   13  A    between atoms: C20_41  and  C21_42 
ROOT
HETATM    1  C5  UNL     1      -4.754  18.900 -30.959  1.00  0.00     0.245 C 
ENDROOT
BRANCH   1   2
HETATM    2  C4  UNL     1      -5.117  18.991 -32.422  1.00  0.00     0.155 C 
HETATM    3  C3  UNL     1      -3.916  19.235 -33.232  1.00  0.00     0.034 C 
HETATM    4  C2  UNL     1      -3.612  18.491 -34.281  1.00  0.00     0.046 C 
HETATM    5  C1  UNL     1      -2.404  18.769 -35.067  1.00  0.00     0.076 C 
HETATM    6  O7  UNL     1      -4.437  17.471 -34.611  1.00  0.00    -0.301 OA
HETATM    7  C15 UNL     1      -5.777  17.319 -34.083  1.00  0.00     0.435 C 
HETATM    8  N5  UNL     1      -5.842  17.796 -32.741  1.00  0.00    -0.357 N 
ATOM      9  H5  UNL     1      -6.387  17.305 -32.032  1.00  0.00     0.159 HD
BRANCH   7  10
HETATM   10  N6  UNL     1      -6.731  17.798 -34.919  1.00  0.00    -0.315 NA
BRANCH  10  11
HETATM   11  N7  UNL     1      -7.665  18.267 -35.738  1.00  0.00    -0.251 N 
HETATM   12  C16 UNL     1      -7.807  18.173 -36.987  1.00  0.00     0.099 C 
ATOM     13  H7  UNL     1      -8.400  18.799 -35.272  1.00  0.00     0.200 HD
BRANCH  12  14
HETATM   14  C17 UNL     1      -9.057  18.869 -37.550  1.00  0.00     0.038 A 
HETATM   15  C18 UNL     1      -9.930  19.366 -36.540  1.00  0.00     0.017 A 
HETATM   16  C19 UNL     1     -11.201  20.105 -36.526  1.00  0.00     0.134 C 
HETATM   17  C23 UNL     1     -10.272  18.161 -37.481  1.00  0.00     0.015 A 
HETATM   18  N8  UNL     1     -12.183  19.100 -36.066  1.00  0.00    -0.164 NA
HETATM   19  N9  UNL     1     -11.536  17.961 -35.530  1.00  0.00    -0.224 NA
HETATM   20  C22 UNL     1     -10.833  17.186 -36.559  1.00  0.00     0.115 C 
BRANCH  19  21
HETATM   21  C20 UNL     1     -12.605  17.106 -35.040  1.00  0.00     0.222 C 
BRANCH  21  22
HETATM   22  C21 UNL     1     -12.196  16.230 -33.926  1.00  0.00     0.187 C 
HETATM   23  O5  UNL     1     -11.412  16.675 -33.057  1.00  0.00    -0.647 OA
HETATM   24  O6  UNL     1     -12.626  14.937 -33.778  1.00  0.00    -0.647 OA
ENDBRANCH  21  22
ENDBRANCH  19  21
ENDBRANCH  12  14
ENDBRANCH  10  11
ENDBRANCH   7  10
ENDBRANCH   1   2
BRANCH   1  25
HETATM   25  O1  UNL     1      -5.268  20.015 -30.276  1.00  0.00    -0.374 OA
ATOM     26  H1  UNL     1      -5.052  19.950 -29.353  1.00  0.00     0.212 HD
ENDBRANCH   1  25
BRANCH   1  27
HETATM   27  N1  UNL     1      -5.064  17.672 -30.309  1.00  0.00    -0.348 N 
ATOM     28  H1  UNL     1      -4.429  16.878 -30.388  1.00  0.00     0.163 HD
BRANCH  27  29
HETATM   29  C6  UNL     1      -6.266  17.555 -29.547  1.00  0.00     0.128 C 
HETATM   30  N2  UNL     1      -6.509  18.207 -28.462  1.00  0.00    -0.350 N 
HETATM   31  C7  UNL     1      -7.761  18.008 -27.789  1.00  0.00     0.230 C 
ATOM     32  H2  UNL     1      -5.820  18.858 -28.085  1.00  0.00     0.163 HD
HETATM   33  N3  UNL     1      -8.307  16.680 -27.880  1.00  0.00    -0.302 N 
HETATM   34  N4  UNL     1      -7.762  15.862 -28.825  1.00  0.00    -0.069 NA
ATOM     35  H3  UNL     1      -9.061  16.367 -27.270  1.00  0.00     0.179 HD
HETATM   36  C14 UNL     1      -7.316  16.614 -30.000  1.00  0.00     0.348 C 
BRANCH  31  37
HETATM   37  C8  UNL     1      -7.820  18.495 -26.401  1.00  0.00    -0.015 A 
HETATM   38  C9  UNL     1      -7.504  17.602 -25.362  1.00  0.00     0.011 A 
HETATM   39  C10 UNL     1      -7.569  17.954 -24.043  1.00  0.00     0.001 A 
HETATM   40  C11 UNL     1      -7.963  19.255 -23.688  1.00  0.00     0.000 A 
HETATM   41  C12 UNL     1      -8.271  20.136 -24.684  1.00  0.00     0.001 A 
HETATM   42  C13 UNL     1      -8.197  19.754 -26.025  1.00  0.00     0.011 A 
ENDBRANCH  31  37
BRANCH  34  43
HETATM   43  O2  UNL     1      -6.740  15.099 -28.349  1.00  0.00    -0.291 OA
ATOM     44  H2  UNL     1      -6.555  14.341 -28.891  1.00  0.00     0.239 HD
ENDBRANCH  34  43
BRANCH  36  45
HETATM   45  O3  UNL     1      -8.380  17.348 -30.510  1.00  0.00    -0.210 OA
BRANCH  45  46
HETATM   46  O4  UNL     1      -8.558  17.203 -31.802  1.00  0.00    -0.248 OA
ATOM     47  H4  UNL     1      -9.115  16.470 -32.036  1.00  0.00     0.253 HD
ENDBRANCH  45  46
ENDBRANCH  36  45
ENDBRANCH  27  29
ENDBRANCH   1  27
TORSDOF 13
ENDMDL
MODEL 3
REMARK VINA RESULT: -9.044239801      2.573      5.189
REMARK  13 active torsions:
REMARK  status: ('A' for Active; 'I' for Inactive)
REMARK    1  A    between atoms: C4_4  and  C5_5 
REMARK    2  A    between atoms: C5_5  and  O1_6 
REMARK    3  A    between atoms: C5_5  and  N1_8 
REMARK    4  A    between atoms: N1_8  and  C6_10 
REMARK    5  A    between atoms: C7_13  and  C8_14 
REMARK    6  A    between atoms: N4_22  and  O2_23 
REMARK    7  A    between atoms: C14_25  and  O3_26 
REMARK    8  A    between atoms: O3_26  and  O4_27 
REMARK    9  A    between atoms: C15_31  and  N6_32 
REMARK   10  A    between atoms: N6_32  and  N7_33 
REMARK   11  A    between atoms: C16_35  and  C17_36 
REMARK   12  A    between atoms: N9_40  and  C20_41 
REMARK   13  A    between atoms: C20_41  and  C21_42 
ROOT
HETATM    1  C5  UNL     1      -6.678  18.458 -29.566  1.00  0.00     0.245 C 
ENDROOT
BRANCH   1   2
HETATM    2  C4  UNL     1      -7.584  18.410 -30.773  1.00  0.00     0.155 C 
HETATM    3  C3  UNL     1      -8.955  18.783 -30.399  1.00  0.00     0.034 C 
HETATM    4  C2  UNL     1      -9.634  19.712 -31.049  1.00  0.00     0.046 C 
HETATM    5  C1  UNL     1     -11.002  20.054 -30.646  1.00  0.00     0.076 C 
HETATM    6  O7  UNL     1      -9.039  20.335 -32.093  1.00  0.00    -0.301 OA
HETATM    7  C15 UNL     1      -7.831  19.857 -32.732  1.00  0.00     0.435 C 
HETATM    8  N5  UNL     1      -6.975  19.231 -31.778  1.00  0.00    -0.357 N 
ATOM      9  H5  UNL     1      -5.964  19.363 -31.810  1.00  0.00     0.159 HD
BRANCH   7  10
HETATM   10  N6  UNL     1      -8.077  19.137 -33.854  1.00  0.00    -0.315 NA
BRANCH  10  11
HETATM   11  N7  UNL     1      -8.318  18.432 -34.953  1.00  0.00    -0.251 N 
HETATM   12  C16 UNL     1      -9.176  18.571 -35.866  1.00  0.00     0.099 C 
ATOM     13  H7  UNL     1      -7.696  17.634 -35.082  1.00  0.00     0.200 HD
BRANCH  12  14
HETATM   14  C17 UNL     1      -9.106  17.520 -36.986  1.00  0.00     0.038 A 
HETATM   15  C18 UNL     1      -8.159  16.486 -36.732  1.00  0.00     0.017 A 
HETATM   16  C19 UNL     1      -7.725  15.269 -37.433  1.00  0.00     0.134 C 
HETATM   17  C23 UNL     1      -7.994  17.573 -37.847  1.00  0.00     0.015 A 
HETATM   18  N8  UNL     1      -6.364  15.604 -37.902  1.00  0.00    -0.164 NA
HETATM   19  N9  UNL     1      -5.879  16.774 -37.270  1.00  0.00    -0.224 NA
HETATM   20  C22 UNL     1      -6.604  17.977 -37.695  1.00  0.00     0.115 C 
BRANCH  19  21
HETATM   21  C20 UNL     1      -4.516  16.933 -37.750  1.00  0.00     0.222 C 
BRANCH  21  22
HETATM   22  C21 UNL     1      -3.514  16.993 -36.669  1.00  0.00     0.187 C 
HETATM   23  O5  UNL     1      -2.945  15.939 -36.306  1.00  0.00    -0.647 OA
HETATM   24  O6  UNL     1      -3.159  18.149 -36.024  1.00  0.00    -0.647 OA
ENDBRANCH  21  22
ENDBRANCH  19  21
ENDBRANCH  12  14
ENDBRANCH  10  11
ENDBRANCH   7  10
ENDBRANCH   1   2
BRANCH   1  25
HETATM   25  O1  UNL     1      -5.548  19.240 -29.855  1.00  0.00    -0.374 OA
ATOM     26  H1  UNL     1      -5.373  19.828 -29.131  1.00  0.00     0.212 HD
ENDBRANCH   1  25
BRANCH   1  27
HETATM   27  N1  UNL     1      -7.292  18.822 -28.334  1.00  0.00    -0.348 N 
ATOM     28  H1  UNL     1      -7.608  19.779 -28.183  1.00  0.00     0.163 HD
BRANCH  27  29
HETATM   29  C6  UNL     1      -7.464  17.842 -27.309  1.00  0.00     0.128 C 
HETATM   30  N2  UNL     1      -7.698  18.114 -26.071  1.00  0.00    -0.350 N 
HETATM   31  C7  UNL     1      -7.860  17.038 -25.135  1.00  0.00     0.230 C 
ATOM     32  H2  UNL     1      -7.768  19.083 -25.759  1.00  0.00     0.163 HD
HETATM   33  N3  UNL     1      -7.072  15.864 -25.401  1.00  0.00    -0.302 N 
HETATM   34  N4  UNL     1      -6.513  15.774 -26.641  1.00  0.00    -0.069 NA
ATOM     35  H3  UNL     1      -6.938  15.137 -24.698  1.00  0.00     0.179 HD
HETATM   36  C14 UNL     1      -7.354  16.407 -27.659  1.00  0.00     0.348 C 
BRANCH  31  37
HETATM   37  C8  UNL     1      -7.764  17.413 -23.715  1.00  0.00    -0.015 A 
HETATM   38  C9  UNL     1      -7.991  16.423 -22.742  1.00  0.00     0.011 A 
HETATM   39  C10 UNL     1      -7.961  16.689 -21.401  1.00  0.00     0.001 A 
HETATM   40  C11 UNL     1      -7.693  17.994 -20.955  1.00  0.00     0.000 A 
HETATM   41  C12 UNL     1      -7.469  18.966 -21.886  1.00  0.00     0.001 A 
HETATM   42  C13 UNL     1      -7.503  18.672 -23.250  1.00  0.00     0.011 A 
ENDBRANCH  31  37
BRANCH  34  43
HETATM   43  O2  UNL     1      -5.252  16.283 -26.700  1.00  0.00    -0.291 OA
ATOM     44  H2  UNL     1      -4.594  15.629 -26.901  1.00  0.00     0.239 HD
ENDBRANCH  34  43
BRANCH  36  45
HETATM   45  O3  UNL     1      -8.623  15.843 -27.627  1.00  0.00    -0.210 OA
BRANCH  45  46
HETATM   46  O4  UNL     1      -9.595  16.721 -27.546  1.00  0.00    -0.248 OA
ATOM     47  H4  UNL     1      -9.864  16.920 -26.657  1.00  0.00     0.253 HD
ENDBRANCH  45  46
ENDBRANCH  36  45
ENDBRANCH  27  29
ENDBRANCH   1  27
TORSDOF 13
ENDMDL
MODEL 4
REMARK VINA RESULT: -9.041865166      3.077      5.879
REMARK  13 active torsions:
REMARK  status: ('A' for Active; 'I' for Inactive)
REMARK    1  A    between atoms: C4_4  and  C5_5 
REMARK    2  A    between atoms: C5_5  and  O1_6 
REMARK    3  A    between atoms: C5_5  and  N1_8 
REMARK    4  A    between atoms: N1_8  and  C6_10 
REMARK    5  A    between atoms: C7_13  and  C8_14 
REMARK    6  A    between atoms: N4_22  and  O2_23 
REMARK    7  A    between atoms: C14_25  and  O3_26 
REMARK    8  A    between atoms: O3_26  and  O4_27 
REMARK    9  A    between atoms: C15_31  and  N6_32 
REMARK   10  A    between atoms: N6_32  and  N7_33 
REMARK   11  A    between atoms: C16_35  and  C17_36 
REMARK   12  A    between atoms: N9_40  and  C20_41 
REMARK   13  A    between atoms: C20_41  and  C21_42 
ROOT
HETATM    1  C5  UNL     1      -7.870  18.735 -29.313  1.00  0.00     0.245 C 
ENDROOT
BRANCH   1   2
HETATM    2  C4  UNL     1      -7.279  18.650 -30.700  1.00  0.00     0.155 C 
HETATM    3  C3  UNL     1      -8.338  18.747 -31.714  1.00  0.00     0.034 C 
HETATM    4  C2  UNL     1      -8.275  19.605 -32.717  1.00  0.00     0.046 C 
HETATM    5  C1  UNL     1      -9.353  19.668 -33.711  1.00  0.00     0.076 C 
HETATM    6  O7  UNL     1      -7.198  20.418 -32.806  1.00  0.00    -0.301 OA
HETATM    7  C15 UNL     1      -5.975  20.216 -32.056  1.00  0.00     0.435 C 
HETATM    8  N5  UNL     1      -6.261  19.656 -30.776  1.00  0.00    -0.357 N 
ATOM      9  H5  UNL     1      -5.757  19.961 -29.942  1.00  0.00     0.159 HD
BRANCH   7  10
HETATM   10  N6  UNL     1      -5.017  19.577 -32.771  1.00  0.00    -0.315 NA
BRANCH  10  11
HETATM   11  N7  UNL     1      -4.079  18.951 -33.471  1.00  0.00    -0.251 N 
HETATM   12  C16 UNL     1      -3.548  17.816 -33.334  1.00  0.00     0.099 C 
ATOM     13  H7  UNL     1      -3.723  19.486 -34.264  1.00  0.00     0.200 HD
BRANCH  12  14
HETATM   14  C17 UNL     1      -2.484  17.467 -34.387  1.00  0.00     0.038 A 
HETATM   15  C18 UNL     1      -2.411  18.412 -35.451  1.00  0.00     0.017 A 
HETATM   16  C19 UNL     1      -1.586  18.568 -36.657  1.00  0.00     0.134 C 
HETATM   17  C23 UNL     1      -2.941  16.947 -35.613  1.00  0.00     0.015 A 
HETATM   18  N8  UNL     1      -2.524  18.269 -37.761  1.00  0.00    -0.164 NA
HETATM   19  N9  UNL     1      -3.863  18.262 -37.305  1.00  0.00    -0.224 NA
HETATM   20  C22 UNL     1      -4.142  17.130 -36.414  1.00  0.00     0.115 C 
BRANCH  19  21
HETATM   21  C20 UNL     1      -4.673  18.049 -38.494  1.00  0.00     0.222 C 
BRANCH  21  22
HETATM   22  C21 UNL     1      -5.896  18.872 -38.529  1.00  0.00     0.187 C 
HETATM   23  O5  UNL     1      -6.891  18.515 -37.858  1.00  0.00    -0.647 OA
HETATM   24  O6  UNL     1      -6.017  20.025 -39.261  1.00  0.00    -0.647 OA
ENDBRANCH  21  22
ENDBRANCH  19  21
ENDBRANCH  12  14
ENDBRANCH  10  11
ENDBRANCH   7  10
ENDBRANCH   1   2
BRANCH   1  25
HETATM   25  O1  UNL     1      -8.979  17.878 -29.220  1.00  0.00    -0.374 OA
ATOM     26  H1  UNL     1      -9.117  17.633 -28.313  1.00  0.00     0.212 HD
ENDBRANCH   1  25
BRANCH   1  27
HETATM   27  N1  UNL     1      -6.960  18.568 -28.231  1.00  0.00    -0.348 N 
ATOM     28  H1  UNL     1      -6.123  19.148 -28.174  1.00  0.00     0.163 HD
BRANCH  27  29
HETATM   29  C6  UNL     1      -7.223  17.588 -27.226  1.00  0.00     0.128 C 
HETATM   30  N2  UNL     1      -7.567  17.860 -26.013  1.00  0.00    -0.350 N 
HETATM   31  C7  UNL     1      -7.812  16.783 -25.096  1.00  0.00     0.230 C 
ATOM     32  H2  UNL     1      -7.665  18.828 -25.709  1.00  0.00     0.163 HD
HETATM   33  N3  UNL     1      -7.002  15.609 -25.291  1.00  0.00    -0.302 N 
HETATM   34  N4  UNL     1      -6.335  15.520 -26.476  1.00  0.00    -0.069 NA
ATOM     35  H3  UNL     1      -6.931  14.883 -24.579  1.00  0.00     0.179 HD
HETATM   36  C14 UNL     1      -7.081  16.154 -27.565  1.00  0.00     0.348 C 
BRANCH  31  37
HETATM   37  C8  UNL     1      -7.843  17.158 -23.673  1.00  0.00    -0.015 A 
HETATM   38  C9  UNL     1      -7.734  18.518 -23.335  1.00  0.00     0.011 A 
HETATM   39  C10 UNL     1      -7.714  18.955 -22.039  1.00  0.00     0.001 A 
HETATM   40  C11 UNL     1      -7.805  18.026 -20.989  1.00  0.00     0.000 A 
HETATM   41  C12 UNL     1      -7.913  16.701 -21.300  1.00  0.00     0.001 A 
HETATM   42  C13 UNL     1      -7.932  16.279 -22.630  1.00  0.00     0.011 A 
ENDBRANCH  31  37
BRANCH  34  43
HETATM   43  O2  UNL     1      -5.074  16.030 -26.422  1.00  0.00    -0.291 OA
ATOM     44  H2  UNL     1      -4.427  15.472 -26.836  1.00  0.00     0.239 HD
ENDBRANCH  34  43
BRANCH  36  45
HETATM   45  O3  UNL     1      -8.348  15.589 -27.647  1.00  0.00    -0.210 OA
BRANCH  45  46
HETATM   46  O4  UNL     1      -9.303  16.350 -27.166  1.00  0.00    -0.248 OA
ATOM     47  H4  UNL     1      -9.730  16.894 -27.817  1.00  0.00     0.253 HD
ENDBRANCH  45  46
ENDBRANCH  36  45
ENDBRANCH  27  29
ENDBRANCH   1  27
TORSDOF 13
ENDMDL
MODEL 5
REMARK VINA RESULT: -8.920934789      2.812      4.857
REMARK  13 active torsions:
REMARK  status: ('A' for Active; 'I' for Inactive)
REMARK    1  A    between atoms: C4_4  and  C5_5 
REMARK    2  A    between atoms: C5_5  and  O1_6 
REMARK    3  A    between atoms: C5_5  and  N1_8 
REMARK    4  A    between atoms: N1_8  and  C6_10 
REMARK    5  A    between atoms: C7_13  and  C8_14 
REMARK    6  A    between atoms: N4_22  and  O2_23 
REMARK    7  A    between atoms: C14_25  and  O3_26 
REMARK    8  A    between atoms: O3_26  and  O4_27 
REMARK    9  A    between atoms: C15_31  and  N6_32 
REMARK   10  A    between atoms: N6_32  and  N7_33 
REMARK   11  A    between atoms: C16_35  and  C17_36 
REMARK   12  A    between atoms: N9_40  and  C20_41 
REMARK   13  A    between atoms: C20_41  and  C21_42 
ROOT
HETATM    1  C5  UNL     1      -7.980  18.868 -29.306  1.00  0.00     0.245 C 
ENDROOT
BRANCH   1   2
HETATM    2  C4  UNL     1      -7.766  18.598 -30.775  1.00  0.00     0.155 C 
HETATM    3  C3  UNL     1      -6.588  19.328 -31.264  1.00  0.00     0.034 C 
HETATM    4  C2  UNL     1      -5.619  18.731 -31.935  1.00  0.00     0.046 C 
HETATM    5  C1  UNL     1      -4.460  19.497 -32.408  1.00  0.00     0.076 C 
HETATM    6  O7  UNL     1      -5.721  17.404 -32.175  1.00  0.00    -0.301 OA
HETATM    7  C15 UNL     1      -6.947  16.650 -32.011  1.00  0.00     0.435 C 
HETATM    8  N5  UNL     1      -7.714  17.173 -30.929  1.00  0.00    -0.357 N 
ATOM      9  H5  UNL     1      -8.210  16.555 -30.286  1.00  0.00     0.159 HD
BRANCH   7  10
HETATM   10  N6  UNL     1      -7.621  16.479 -33.175  1.00  0.00    -0.315 NA
BRANCH  10  11
HETATM   11  N7  UNL     1      -8.281  16.312 -34.315  1.00  0.00    -0.251 N 
HETATM   12  C16 UNL     1      -9.328  16.853 -34.763  1.00  0.00     0.099 C 
ATOM     13  H7  UNL     1      -7.866  15.622 -34.940  1.00  0.00     0.200 HD
BRANCH  12  14
HETATM   14  C17 UNL     1      -9.759  16.371 -36.158  1.00  0.00     0.038 A 
HETATM   15  C18 UNL     1      -8.914  15.355 -36.690  1.00  0.00     0.017 A 
HETATM   16  C19 UNL     1      -8.886  14.558 -37.925  1.00  0.00     0.134 C 
HETATM   17  C23 UNL     1      -8.996  16.814 -37.254  1.00  0.00     0.015 A 
HETATM   18  N8  UNL     1      -7.726  15.100 -38.664  1.00  0.00    -0.164 NA
HETATM   19  N9  UNL     1      -6.923  15.912 -37.829  1.00  0.00    -0.224 NA
HETATM   20  C22 UNL     1      -7.596  17.159 -37.450  1.00  0.00     0.115 C 
BRANCH  19  21
HETATM   21  C20 UNL     1      -5.785  16.299 -38.648  1.00  0.00     0.222 C 
BRANCH  21  22
HETATM   22  C21 UNL     1      -4.615  16.736 -37.863  1.00  0.00     0.187 C 
HETATM   23  O5  UNL     1      -4.238  17.928 -37.943  1.00  0.00    -0.647 OA
HETATM   24  O6  UNL     1      -3.901  15.909 -37.037  1.00  0.00    -0.647 OA
ENDBRANCH  21  22
ENDBRANCH  19  21
ENDBRANCH  12  14
ENDBRANCH  10  11
ENDBRANCH   7  10
ENDBRANCH   1   2
BRANCH   1  25
HETATM   25  O1  UNL     1      -9.236  18.377 -28.914  1.00  0.00    -0.374 OA
ATOM     26  H1  UNL     1      -9.324  18.442 -27.970  1.00  0.00     0.212 HD
ENDBRANCH   1  25
BRANCH   1  27
HETATM   27  N1  UNL     1      -6.936  18.454 -28.432  1.00  0.00    -0.348 N 
ATOM     28  H1  UNL     1      -5.991  18.819 -28.554  1.00  0.00     0.163 HD
BRANCH  27  29
HETATM   29  C6  UNL     1      -7.213  17.526 -27.382  1.00  0.00     0.128 C 
HETATM   30  N2  UNL     1      -7.564  17.859 -26.187  1.00  0.00    -0.350 N 
HETATM   31  C7  UNL     1      -7.824  16.830 -25.221  1.00  0.00     0.230 C 
ATOM     32  H2  UNL     1      -7.657  18.842 -25.930  1.00  0.00     0.163 HD
HETATM   33  N3  UNL     1      -7.022  15.642 -25.351  1.00  0.00    -0.302 N 
HETATM   34  N4  UNL     1      -6.347  15.491 -26.526  1.00  0.00    -0.069 NA
ATOM     35  H3  UNL     1      -6.962  14.951 -24.605  1.00  0.00     0.179 HD
HETATM   36  C14 UNL     1      -7.080  16.076 -27.650  1.00  0.00     0.348 C 
BRANCH  31  37
HETATM   37  C8  UNL     1      -7.863  17.274 -23.818  1.00  0.00    -0.015 A 
HETATM   38  C9  UNL     1      -7.785  18.651 -23.547  1.00  0.00     0.011 A 
HETATM   39  C10 UNL     1      -7.774  19.152 -22.274  1.00  0.00     0.001 A 
HETATM   40  C11 UNL     1      -7.845  18.274 -21.180  1.00  0.00     0.000 A 
HETATM   41  C12 UNL     1      -7.922  16.933 -21.425  1.00  0.00     0.001 A 
HETATM   42  C13 UNL     1      -7.933  16.445 -22.732  1.00  0.00     0.011 A 
ENDBRANCH  31  37
BRANCH  34  43
HETATM   43  O2  UNL     1      -5.082  15.993 -26.486  1.00  0.00    -0.291 OA
ATOM     44  H2  UNL     1      -4.878  16.551 -27.227  1.00  0.00     0.239 HD
ENDBRANCH  34  43
BRANCH  36  45
HETATM   45  O3  UNL     1      -8.351  15.517 -27.714  1.00  0.00    -0.210 OA
BRANCH  45  46
HETATM   46  O4  UNL     1      -9.306  16.315 -27.297  1.00  0.00    -0.248 OA
ATOM     47  H4  UNL     1     -10.055  15.861 -26.927  1.00  0.00     0.253 HD
ENDBRANCH  45  46
ENDBRANCH  36  45
ENDBRANCH  27  29
ENDBRANCH   1  27
TORSDOF 13
ENDMDL
