MODEL 1
REMARK VINA RESULT: -7.777807200      0.000      0.000
REMARK  14 active torsions:
REMARK  status: ('A' for Active; 'I' for Inactive)
REMARK    1  A    between atoms: C2_2  and  C3_3 
REMARK    2  A    between atoms: C6_6  and  N1_7 
REMARK    3  A    between atoms: N1_7  and  C7_9 
REMARK    4  A    between atoms: C10_15  and  N3_16 
REMARK    5  A    between atoms: N3_16  and  C11_17 
REMARK    6  A    between atoms: N4_20  and  C14_21 
REMARK    7  A    between atoms: C14_21  and  C15_22 
REMARK    8  A    between atoms: C20_32  and  C21_33 
REMARK    9  A    between atoms: C21_33  and  N7_34 
REMARK   10  A    between atoms: N7_34  and  C22_37 
REMARK   11  A    between atoms: C22_37  and  C23_38 
REMARK   12  A    between atoms: C23_38  and  C24_39 
REMARK   13  A    between atoms: C23_38  and  N9_43 
REMARK   14  A    between atoms: C24_39  and  N8_40 
ROOT
HETATM    1  C3  UNL     1      28.525  28.846  18.668  1.00  0.00    -0.049 A 
HETATM    2  C4  UNL     1      27.139  28.760  18.647  1.00  0.00     0.010 A 
HETATM    3  C5  UNL     1      26.472  27.568  18.726  1.00  0.00     0.032 A 
HETATM    4  C6  UNL     1      27.232  26.428  18.832  1.00  0.00     0.070 A 
HETATM    5  C18 UNL     1      28.645  26.500  18.854  1.00  0.00     0.080 A 
HETATM    6  C19 UNL     1      29.331  25.258  19.008  1.00  0.00     0.102 C 
HETATM    7  N6  UNL     1      29.858  24.228  19.153  1.00  0.00    -0.191 NA
HETATM    8  C20 UNL     1      29.315  27.688  18.773  1.00  0.00    -0.003 A 
ENDROOT
BRANCH   4   9
HETATM    9  N1  UNL     1      26.576  25.160  18.930  1.00  0.00    -0.190 N 
ATOM     10  H1  UNL     1      26.723  24.581  19.756  1.00  0.00     0.184 HD
BRANCH   9  11
HETATM   11  C7  UNL     1      25.790  24.734  17.972  1.00  0.00     0.685 A 
HETATM   12  N2  UNL     1      24.718  23.971  18.242  1.00  0.00    -0.200 N 
HETATM   13  C8  UNL     1      23.894  23.531  17.286  1.00  0.00     0.135 A 
ATOM     14  H2  UNL     1      24.526  23.717  19.211  1.00  0.00     0.183 HD
HETATM   15  C9  UNL     1      24.116  23.848  15.977  1.00  0.00     0.108 A 
HETATM   16 CL1  UNL     1      22.990  23.267  14.727  1.00  0.00    -0.078 Cl
HETATM   17  C10 UNL     1      25.213  24.634  15.637  1.00  0.00     0.210 A 
HETATM   18  N5  UNL     1      26.001  25.035  16.705  1.00  0.00    -0.163 N 
ATOM     19  H5  UNL     1      26.814  25.612  16.493  1.00  0.00     0.187 HD
BRANCH  17  20
HETATM   20  N3  UNL     1      25.466  24.946  14.516  1.00  0.00    -0.423 NA
BRANCH  20  21
HETATM   21  C11 UNL     1      25.744  25.298  13.248  1.00  0.00     0.168 C 
HETATM   22  C12 UNL     1      25.363  26.648  12.706  1.00  0.00     0.069 C 
HETATM   23  C13 UNL     1      24.810  26.456  11.300  1.00  0.00     0.275 C 
HETATM   24  N4  UNL     1      25.863  25.812  10.525  1.00  0.00     0.093 N 
HETATM   25  C16 UNL     1      25.872  24.415  10.892  1.00  0.00     0.275 C 
HETATM   26  C17 UNL     1      25.275  24.203  12.272  1.00  0.00     0.069 C 
BRANCH  24  27
HETATM   27  C14 UNL     1      25.727  26.076   9.129  1.00  0.00     0.343 C 
BRANCH  27  28
HETATM   28  C15 UNL     1      26.849  26.904   8.592  1.00  0.00     0.381 C 
HETATM   29  F1  UNL     1      27.845  27.132   9.487  1.00  0.00    -0.213 F 
HETATM   30  F2  UNL     1      27.428  26.327   7.468  1.00  0.00    -0.213 F 
ENDBRANCH  27  28
ENDBRANCH  24  27
ENDBRANCH  20  21
ENDBRANCH  17  20
ENDBRANCH   9  11
ENDBRANCH   4   9
BRANCH   8  31
HETATM   31  C21 UNL     1      30.767  27.863  18.812  1.00  0.00     0.273 C 
BRANCH  31  32
HETATM   32  N7  UNL     1      31.546  27.029  17.954  1.00  0.00    -0.066 N 
ATOM     33  H72 UNL     1      32.120  26.387  18.501  1.00  0.00     0.277 HD
ATOM     34  H71 UNL     1      30.951  26.356  17.470  1.00  0.00     0.277 HD
BRANCH  32  35
HETATM   35  C22 UNL     1      32.357  27.759  17.013  1.00  0.00     0.284 C 
BRANCH  35  36
HETATM   36  C23 UNL     1      32.868  29.076  17.416  1.00  0.00     0.023 C 
BRANCH  36  37
HETATM   37  C24 UNL     1      32.387  30.281  16.709  1.00  0.00     0.079 C 
BRANCH  37  38
HETATM   38  N8  UNL     1      31.854  30.239  15.426  1.00  0.00    -0.300 NA
HETATM   39  C25 UNL     1      32.678  30.346  14.279  1.00  0.00     0.115 C 
HETATM   40  C26 UNL     1      30.816  31.272  15.330  1.00  0.00     0.115 C 
ENDBRANCH  37  38
ENDBRANCH  36  37
BRANCH  36  41
HETATM   41  N9  UNL     1      34.244  29.141  17.821  1.00  0.00    -0.293 NA
HETATM   42  C27 UNL     1      34.351  28.698  19.244  1.00  0.00     0.116 C 
HETATM   43  C28 UNL     1      35.112  28.268  17.055  1.00  0.00     0.116 C 
ENDBRANCH  36  41
ENDBRANCH  35  36
ENDBRANCH  32  35
ENDBRANCH  31  32
ENDBRANCH   8  31
BRANCH   1  44
HETATM   44  C2  UNL     1      29.156  30.166  18.589  1.00  0.00     0.035 C 
HETATM   45  C1  UNL     1      28.226  31.185  17.990  1.00  0.00     0.010 C 
ENDBRANCH   1  44
TORSDOF 14
ENDMDL
MODEL 2
REMARK VINA RESULT: -7.761525937      7.611     12.543
REMARK  14 active torsions:
REMARK  status: ('A' for Active; 'I' for Inactive)
REMARK    1  A    between atoms: C2_2  and  C3_3 
REMARK    2  A    between atoms: C6_6  and  N1_7 
REMARK    3  A    between atoms: N1_7  and  C7_9 
REMARK    4  A    between atoms: C10_15  and  N3_16 
REMARK    5  A    between atoms: N3_16  and  C11_17 
REMARK    6  A    between atoms: N4_20  and  C14_21 
REMARK    7  A    between atoms: C14_21  and  C15_22 
REMARK    8  A    between atoms: C20_32  and  C21_33 
REMARK    9  A    between atoms: C21_33  and  N7_34 
REMARK   10  A    between atoms: N7_34  and  C22_37 
REMARK   11  A    between atoms: C22_37  and  C23_38 
REMARK   12  A    between atoms: C23_38  and  C24_39 
REMARK   13  A    between atoms: C23_38  and  N9_43 
REMARK   14  A    between atoms: C24_39  and  N8_40 
ROOT
HETATM    1  C3  UNL     1      40.788  33.104  16.010  1.00  0.00    -0.049 A 
HETATM    2  C4  UNL     1      39.626  33.292  15.272  1.00  0.00     0.010 A 
HETATM    3  C5  UNL     1      39.046  32.291  14.541  1.00  0.00     0.032 A 
HETATM    4  C6  UNL     1      39.659  31.062  14.561  1.00  0.00     0.070 A 
HETATM    5  C18 UNL     1      40.842  30.855  15.309  1.00  0.00     0.080 A 
HETATM    6  C19 UNL     1      41.369  29.529  15.289  1.00  0.00     0.102 C 
HETATM    7  N6  UNL     1      41.761  28.431  15.266  1.00  0.00    -0.191 NA
HETATM    8  C20 UNL     1      41.427  31.853  16.037  1.00  0.00    -0.003 A 
ENDROOT
BRANCH   4   9
HETATM    9  N1  UNL     1      39.079  29.983  13.821  1.00  0.00    -0.190 N 
ATOM     10  H1  UNL     1      39.683  29.255  13.439  1.00  0.00     0.184 HD
BRANCH   9  11
HETATM   11  C7  UNL     1      37.785  29.917  13.628  1.00  0.00     0.685 A 
HETATM   12  N2  UNL     1      37.235  30.305  12.466  1.00  0.00    -0.200 N 
HETATM   13  C8  UNL     1      35.920  30.239  12.240  1.00  0.00     0.135 A 
ATOM     14  H2  UNL     1      37.843  30.663  11.730  1.00  0.00     0.183 HD
HETATM   15  C9  UNL     1      35.072  29.766  13.198  1.00  0.00     0.108 A 
HETATM   16 CL1  UNL     1      33.327  29.669  12.861  1.00  0.00    -0.078 Cl
HETATM   17  C10 UNL     1      35.585  29.352  14.425  1.00  0.00     0.210 A 
HETATM   18  N5  UNL     1      36.960  29.463  14.553  1.00  0.00    -0.163 N 
ATOM     19  H5  UNL     1      37.371  29.169  15.439  1.00  0.00     0.187 HD
BRANCH  17  20
HETATM   20  N3  UNL     1      34.902  28.931  15.305  1.00  0.00    -0.423 NA
BRANCH  20  21
HETATM   21  C11 UNL     1      34.126  28.460  16.298  1.00  0.00     0.168 C 
HETATM   22  C12 UNL     1      32.652  28.752  16.348  1.00  0.00     0.069 C 
HETATM   23  C13 UNL     1      32.282  29.082  17.788  1.00  0.00     0.275 C 
HETATM   24  N4  UNL     1      32.657  27.924  18.589  1.00  0.00     0.093 N 
HETATM   25  C16 UNL     1      34.089  27.972  18.769  1.00  0.00     0.275 C 
HETATM   26  C17 UNL     1      34.758  28.774  17.667  1.00  0.00     0.069 C 
BRANCH  24  27
HETATM   27  C14 UNL     1      31.891  27.843  19.790  1.00  0.00     0.343 C 
BRANCH  27  28
HETATM   28  C15 UNL     1      30.712  26.934  19.657  1.00  0.00     0.381 C 
HETATM   29  F1  UNL     1      29.538  27.581  19.438  1.00  0.00    -0.213 F 
HETATM   30  F2  UNL     1      30.877  26.018  18.625  1.00  0.00    -0.213 F 
ENDBRANCH  27  28
ENDBRANCH  24  27
ENDBRANCH  20  21
ENDBRANCH  17  20
ENDBRANCH   9  11
ENDBRANCH   4   9
BRANCH   8  31
HETATM   31  C21 UNL     1      42.632  31.728  16.857  1.00  0.00     0.273 C 
BRANCH  31  32
HETATM   32  N7  UNL     1      43.887  31.904  16.199  1.00  0.00    -0.066 N 
ATOM     33  H72 UNL     1      43.774  32.460  15.352  1.00  0.00     0.277 HD
ATOM     34  H71 UNL     1      44.490  32.529  16.735  1.00  0.00     0.277 HD
BRANCH  32  35
HETATM   35  C22 UNL     1      44.569  30.668  15.908  1.00  0.00     0.284 C 
BRANCH  35  36
HETATM   36  C23 UNL     1      45.328  30.575  14.655  1.00  0.00     0.023 C 
BRANCH  36  37
HETATM   37  C24 UNL     1      44.810  31.250  13.448  1.00  0.00     0.079 C 
BRANCH  37  38
HETATM   38  N8  UNL     1      43.475  31.186  13.064  1.00  0.00    -0.300 NA
HETATM   39  C25 UNL     1      43.043  30.313  12.036  1.00  0.00     0.115 C 
HETATM   40  C26 UNL     1      43.036  32.542  12.714  1.00  0.00     0.115 C 
ENDBRANCH  37  38
ENDBRANCH  36  37
BRANCH  36  41
HETATM   41  N9  UNL     1      45.997  29.332  14.392  1.00  0.00    -0.293 NA
HETATM   42  C27 UNL     1      46.694  29.426  13.074  1.00  0.00     0.116 C 
HETATM   43  C28 UNL     1      47.018  29.008  15.371  1.00  0.00     0.116 C 
ENDBRANCH  36  41
ENDBRANCH  35  36
ENDBRANCH  32  35
ENDBRANCH  31  32
ENDBRANCH   8  31
BRANCH   1  44
HETATM   44  C2  UNL     1      41.335  34.229  16.773  1.00  0.00     0.035 C 
HETATM   45  C1  UNL     1      42.010  35.227  15.872  1.00  0.00     0.010 C 
ENDBRANCH   1  44
TORSDOF 14
ENDMDL
MODEL 3
REMARK VINA RESULT: -7.752279308      7.474     12.425
REMARK  14 active torsions:
REMARK  status: ('A' for Active; 'I' for Inactive)
REMARK    1  A    between atoms: C2_2  and  C3_3 
REMARK    2  A    between atoms: C6_6  and  N1_7 
REMARK    3  A    between atoms: N1_7  and  C7_9 
REMARK    4  A    between atoms: C10_15  and  N3_16 
REMARK    5  A    between atoms: N3_16  and  C11_17 
REMARK    6  A    between atoms: N4_20  and  C14_21 
REMARK    7  A    between atoms: C14_21  and  C15_22 
REMARK    8  A    between atoms: C20_32  and  C21_33 
REMARK    9  A    between atoms: C21_33  and  N7_34 
REMARK   10  A    between atoms: N7_34  and  C22_37 
REMARK   11  A    between atoms: C22_37  and  C23_38 
REMARK   12  A    between atoms: C23_38  and  C24_39 
REMARK   13  A    between atoms: C23_38  and  N9_43 
REMARK   14  A    between atoms: C24_39  and  N8_40 
ROOT
HETATM    1  C3  UNL     1      40.499  33.179  16.146  1.00  0.00    -0.049 A 
HETATM    2  C4  UNL     1      39.510  33.677  15.308  1.00  0.00     0.010 A 
HETATM    3  C5  UNL     1      38.934  32.928  14.318  1.00  0.00     0.032 A 
HETATM    4  C6  UNL     1      39.372  31.633  14.176  1.00  0.00     0.070 A 
HETATM    5  C18 UNL     1      40.378  31.112  15.022  1.00  0.00     0.080 A 
HETATM    6  C19 UNL     1      40.725  29.744  14.810  1.00  0.00     0.102 C 
HETATM    7  N6  UNL     1      40.971  28.620  14.622  1.00  0.00    -0.191 NA
HETATM    8  C20 UNL     1      40.957  31.858  16.010  1.00  0.00    -0.003 A 
ENDROOT
BRANCH   4   9
HETATM    9  N1  UNL     1      38.789  30.809  13.161  1.00  0.00    -0.190 N 
ATOM     10  H1  UNL     1      39.384  30.403  12.440  1.00  0.00     0.184 HD
BRANCH   9  11
HETATM   11  C7  UNL     1      37.500  30.569  13.147  1.00  0.00     0.685 A 
HETATM   12  N2  UNL     1      36.795  30.630  12.005  1.00  0.00    -0.200 N 
HETATM   13  C8  UNL     1      35.483  30.379  11.961  1.00  0.00     0.135 A 
ATOM     14  H2  UNL     1      37.278  30.875  11.142  1.00  0.00     0.183 HD
HETATM   15  C9  UNL     1      34.800  30.046  13.094  1.00  0.00     0.108 A 
HETATM   16 CL1  UNL     1      33.057  29.697  13.002  1.00  0.00    -0.078 Cl
HETATM   17  C10 UNL     1      35.478  29.971  14.308  1.00  0.00     0.210 A 
HETATM   18  N5  UNL     1      36.834  30.249  14.241  1.00  0.00    -0.163 N 
ATOM     19  H5  UNL     1      37.363  30.204  15.111  1.00  0.00     0.187 HD
BRANCH  17  20
HETATM   20  N3  UNL     1      34.944  29.688  15.334  1.00  0.00    -0.423 NA
BRANCH  20  21
HETATM   21  C11 UNL     1      34.336  29.363  16.489  1.00  0.00     0.168 C 
HETATM   22  C12 UNL     1      34.957  28.395  17.458  1.00  0.00     0.069 C 
HETATM   23  C13 UNL     1      33.860  27.472  17.974  1.00  0.00     0.275 C 
HETATM   24  N4  UNL     1      32.855  28.326  18.593  1.00  0.00     0.093 N 
HETATM   25  C16 UNL     1      32.083  28.922  17.527  1.00  0.00     0.275 C 
HETATM   26  C17 UNL     1      32.872  28.962  16.230  1.00  0.00     0.069 C 
BRANCH  24  27
HETATM   27  C14 UNL     1      32.099  27.623  19.577  1.00  0.00     0.343 C 
BRANCH  27  28
HETATM   28  C15 UNL     1      30.846  27.029  19.019  1.00  0.00     0.381 C 
HETATM   29  F1  UNL     1      31.009  25.786  18.496  1.00  0.00    -0.213 F 
HETATM   30  F2  UNL     1      29.841  26.945  19.975  1.00  0.00    -0.213 F 
ENDBRANCH  27  28
ENDBRANCH  24  27
ENDBRANCH  20  21
ENDBRANCH  17  20
ENDBRANCH   9  11
ENDBRANCH   4   9
BRANCH   8  31
HETATM   31  C21 UNL     1      41.983  31.400  16.946  1.00  0.00     0.273 C 
BRANCH  31  32
HETATM   32  N7  UNL     1      43.344  31.519  16.529  1.00  0.00    -0.066 N 
ATOM     33  H72 UNL     1      43.436  32.225  15.799  1.00  0.00     0.277 HD
ATOM     34  H71 UNL     1      43.908  31.954  17.260  1.00  0.00     0.277 HD
BRANCH  32  35
HETATM   35  C22 UNL     1      43.934  30.273  16.108  1.00  0.00     0.284 C 
BRANCH  35  36
HETATM   36  C23 UNL     1      44.670  30.250  14.838  1.00  0.00     0.023 C 
BRANCH  36  37
HETATM   37  C24 UNL     1      44.012  30.758  13.616  1.00  0.00     0.079 C 
BRANCH  37  38
HETATM   38  N8  UNL     1      43.551  32.064  13.497  1.00  0.00    -0.300 NA
HETATM   39  C25 UNL     1      42.646  32.439  12.474  1.00  0.00     0.115 C 
HETATM   40  C26 UNL     1      44.717  32.952  13.411  1.00  0.00     0.115 C 
ENDBRANCH  37  38
ENDBRANCH  36  37
BRANCH  36  41
HETATM   41  N9  UNL     1      45.543  29.133  14.614  1.00  0.00    -0.293 NA
HETATM   42  C27 UNL     1      45.917  29.093  13.168  1.00  0.00     0.116 C 
HETATM   43  C28 UNL     1      46.788  29.217  15.356  1.00  0.00     0.116 C 
ENDBRANCH  36  41
ENDBRANCH  35  36
ENDBRANCH  32  35
ENDBRANCH  31  32
ENDBRANCH   8  31
BRANCH   1  44
HETATM   44  C2  UNL     1      41.052  34.049  17.187  1.00  0.00     0.035 C 
HETATM   45  C1  UNL     1      42.083  34.989  16.626  1.00  0.00     0.010 C 
ENDBRANCH   1  44
TORSDOF 14
ENDMDL
MODEL 4
REMARK VINA RESULT: -7.742307521      3.401      7.894
REMARK  14 active torsions:
REMARK  status: ('A' for Active; 'I' for Inactive)
REMARK    1  A    between atoms: C2_2  and  C3_3 
REMARK    2  A    between atoms: C6_6  and  N1_7 
REMARK    3  A    between atoms: N1_7  and  C7_9 
REMARK    4  A    between atoms: C10_15  and  N3_16 
REMARK    5  A    between atoms: N3_16  and  C11_17 
REMARK    6  A    between atoms: N4_20  and  C14_21 
REMARK    7  A    between atoms: C14_21  and  C15_22 
REMARK    8  A    between atoms: C20_32  and  C21_33 
REMARK    9  A    between atoms: C21_33  and  N7_34 
REMARK   10  A    between atoms: N7_34  and  C22_37 
REMARK   11  A    between atoms: C22_37  and  C23_38 
REMARK   12  A    between atoms: C23_38  and  C24_39 
REMARK   13  A    between atoms: C23_38  and  N9_43 
REMARK   14  A    between atoms: C24_39  and  N8_40 
ROOT
HETATM    1  C3  UNL     1      27.556  28.339  18.609  1.00  0.00    -0.049 A 
HETATM    2  C4  UNL     1      28.541  29.316  18.677  1.00  0.00     0.010 A 
HETATM    3  C5  UNL     1      29.862  29.020  18.876  1.00  0.00     0.032 A 
HETATM    4  C6  UNL     1      30.195  27.694  19.008  1.00  0.00     0.070 A 
HETATM    5  C18 UNL     1      29.203  26.688  18.942  1.00  0.00     0.080 A 
HETATM    6  C19 UNL     1      29.668  25.344  19.052  1.00  0.00     0.102 C 
HETATM    7  N6  UNL     1      30.086  24.257  19.126  1.00  0.00    -0.191 NA
HETATM    8  C20 UNL     1      27.882  26.980  18.746  1.00  0.00    -0.003 A 
ENDROOT
BRANCH   4   9
HETATM    9  N1  UNL     1      31.567  27.337  19.206  1.00  0.00    -0.190 N 
ATOM     10  H1  UNL     1      31.827  26.767  20.011  1.00  0.00     0.184 HD
BRANCH   9  11
HETATM   11  C7  UNL     1      32.493  27.734  18.368  1.00  0.00     0.685 A 
HETATM   12  N2  UNL     1      33.778  27.827  18.747  1.00  0.00    -0.200 N 
HETATM   13  C8  UNL     1      34.744  28.219  17.910  1.00  0.00     0.135 A 
ATOM     14  H2  UNL     1      34.026  27.592  19.707  1.00  0.00     0.183 HD
HETATM   15  C9  UNL     1      34.454  28.543  16.616  1.00  0.00     0.108 A 
HETATM   16 CL1  UNL     1      35.763  29.040  15.518  1.00  0.00    -0.078 Cl
HETATM   17  C10 UNL     1      33.138  28.467  16.168  1.00  0.00     0.210 A 
HETATM   18  N5  UNL     1      32.218  28.051  17.117  1.00  0.00    -0.163 N 
ATOM     19  H5  UNL     1      31.243  27.984  16.823  1.00  0.00     0.187 HD
BRANCH  17  20
HETATM   20  N3  UNL     1      32.815  28.736  15.054  1.00  0.00    -0.423 NA
BRANCH  20  21
HETATM   21  C11 UNL     1      32.458  29.039  13.793  1.00  0.00     0.168 C 
HETATM   22  C12 UNL     1      32.494  28.008  12.698  1.00  0.00     0.069 C 
HETATM   23  C13 UNL     1      33.075  28.662  11.451  1.00  0.00     0.275 C 
HETATM   24  N4  UNL     1      32.214  29.794  11.135  1.00  0.00     0.093 N 
HETATM   25  C16 UNL     1      32.550  30.858  12.052  1.00  0.00     0.275 C 
HETATM   26  C17 UNL     1      33.182  30.314  13.321  1.00  0.00     0.069 C 
BRANCH  24  27
HETATM   27  C14 UNL     1      32.279  30.135   9.751  1.00  0.00     0.343 C 
BRANCH  27  28
HETATM   28  C15 UNL     1      33.503  30.922   9.413  1.00  0.00     0.381 C 
HETATM   29  F1  UNL     1      34.388  30.257   8.627  1.00  0.00    -0.213 F 
HETATM   30  F2  UNL     1      33.192  32.113   8.767  1.00  0.00    -0.213 F 
ENDBRANCH  27  28
ENDBRANCH  24  27
ENDBRANCH  20  21
ENDBRANCH  17  20
ENDBRANCH   9  11
ENDBRANCH   4   9
BRANCH   8  31
HETATM   31  C21 UNL     1      26.792  26.010  18.639  1.00  0.00     0.273 C 
BRANCH  31  32
HETATM   32  N7  UNL     1      26.818  25.123  17.520  1.00  0.00    -0.066 N 
ATOM     33  H72 UNL     1      27.718  24.647  17.458  1.00  0.00     0.277 HD
ATOM     34  H71 UNL     1      26.210  24.320  17.683  1.00  0.00     0.277 HD
BRANCH  32  35
HETATM   35  C22 UNL     1      26.493  25.759  16.267  1.00  0.00     0.284 C 
BRANCH  35  36
HETATM   36  C23 UNL     1      25.077  25.968  15.944  1.00  0.00     0.023 C 
BRANCH  36  37
HETATM   37  C24 UNL     1      24.098  24.914  16.283  1.00  0.00     0.079 C 
BRANCH  37  38
HETATM   38  N8  UNL     1      24.346  23.562  16.075  1.00  0.00    -0.300 NA
HETATM   39  C25 UNL     1      23.869  22.891  14.923  1.00  0.00     0.115 C 
HETATM   40  C26 UNL     1      23.868  22.826  17.252  1.00  0.00     0.115 C 
ENDBRANCH  37  38
ENDBRANCH  36  37
BRANCH  36  41
HETATM   41  N9  UNL     1      24.786  26.670  14.726  1.00  0.00    -0.293 NA
HETATM   42  C27 UNL     1      25.368  28.044  14.808  1.00  0.00     0.116 C 
HETATM   43  C28 UNL     1      25.368  26.050  13.550  1.00  0.00     0.116 C 
ENDBRANCH  36  41
ENDBRANCH  35  36
ENDBRANCH  32  35
ENDBRANCH  31  32
ENDBRANCH   8  31
BRANCH   1  44
HETATM   44  C2  UNL     1      26.167  28.746  18.382  1.00  0.00     0.035 C 
HETATM   45  C1  UNL     1      26.075  30.199  18.001  1.00  0.00     0.010 C 
ENDBRANCH   1  44
TORSDOF 14
ENDMDL
MODEL 5
REMARK VINA RESULT: -7.727540689      7.940     12.923
REMARK  14 active torsions:
REMARK  status: ('A' for Active; 'I' for Inactive)
REMARK    1  A    between atoms: C2_2  and  C3_3 
REMARK    2  A    between atoms: C6_6  and  N1_7 
REMARK    3  A    between atoms: N1_7  and  C7_9 
REMARK    4  A    between atoms: C10_15  and  N3_16 
REMARK    5  A    between atoms: N3_16  and  C11_17 
REMARK    6  A    between atoms: N4_20  and  C14_21 
REMARK    7  A    between atoms: C14_21  and  C15_22 
REMARK    8  A    between atoms: C20_32  and  C21_33 
REMARK    9  A    between atoms: C21_33  and  N7_34 
REMARK   10  A    between atoms: N7_34  and  C22_37 
REMARK   11  A    between atoms: C22_37  and  C23_38 
REMARK   12  A    between atoms: C23_38  and  C24_39 
REMARK   13  A    between atoms: C23_38  and  N9_43 
REMARK   14  A    between atoms: C24_39  and  N8_40 
ROOT
HETATM    1  C3  UNL     1      40.925  33.061  16.106  1.00  0.00    -0.049 A 
HETATM    2  C4  UNL     1      39.783  33.298  15.353  1.00  0.00     0.010 A 
HETATM    3  C5  UNL     1      39.194  32.333  14.581  1.00  0.00     0.032 A 
HETATM    4  C6  UNL     1      39.778  31.089  14.576  1.00  0.00     0.070 A 
HETATM    5  C18 UNL     1      40.942  30.833  15.338  1.00  0.00     0.080 A 
HETATM    6  C19 UNL     1      41.438  29.496  15.289  1.00  0.00     0.102 C 
HETATM    7  N6  UNL     1      41.806  28.391  15.240  1.00  0.00    -0.191 NA
HETATM    8  C20 UNL     1      41.535  31.795  16.107  1.00  0.00    -0.003 A 
ENDROOT
BRANCH   4   9
HETATM    9  N1  UNL     1      39.189  30.047  13.793  1.00  0.00    -0.190 N 
ATOM     10  H1  UNL     1      39.784  29.325  13.387  1.00  0.00     0.184 HD
BRANCH   9  11
HETATM   11  C7  UNL     1      37.894  30.006  13.590  1.00  0.00     0.685 A 
HETATM   12  N2  UNL     1      37.359  30.433  12.435  1.00  0.00    -0.200 N 
HETATM   13  C8  UNL     1      36.044  30.393  12.199  1.00  0.00     0.135 A 
ATOM     14  H2  UNL     1      37.977  30.799  11.712  1.00  0.00     0.183 HD
HETATM   15  C9  UNL     1      35.182  29.909  13.140  1.00  0.00     0.108 A 
HETATM   16 CL1  UNL     1      33.439  29.848  12.789  1.00  0.00    -0.078 Cl
HETATM   17  C10 UNL     1      35.680  29.455  14.358  1.00  0.00     0.210 A 
HETATM   18  N5  UNL     1      37.057  29.541  14.498  1.00  0.00    -0.163 N 
ATOM     19  H5  UNL     1      37.456  29.218  15.379  1.00  0.00     0.187 HD
BRANCH  17  20
HETATM   20  N3  UNL     1      34.986  29.022  15.223  1.00  0.00    -0.423 NA
BRANCH  20  21
HETATM   21  C11 UNL     1      34.202  28.527  16.198  1.00  0.00     0.168 C 
HETATM   22  C12 UNL     1      32.725  28.809  16.238  1.00  0.00     0.069 C 
HETATM   23  C13 UNL     1      32.339  29.106  17.681  1.00  0.00     0.275 C 
HETATM   24  N4  UNL     1      32.712  27.934  18.461  1.00  0.00     0.093 N 
HETATM   25  C16 UNL     1      34.142  27.988  18.658  1.00  0.00     0.275 C 
HETATM   26  C17 UNL     1      34.818  28.817  17.580  1.00  0.00     0.069 C 
BRANCH  24  27
HETATM   27  C14 UNL     1      31.934  27.824  19.652  1.00  0.00     0.343 C 
BRANCH  27  28
HETATM   28  C15 UNL     1      30.774  26.895  19.494  1.00  0.00     0.381 C 
HETATM   29  F1  UNL     1      30.969  25.921  18.568  1.00  0.00    -0.213 F 
HETATM   30  F2  UNL     1      30.445  26.268  20.690  1.00  0.00    -0.213 F 
ENDBRANCH  27  28
ENDBRANCH  24  27
ENDBRANCH  20  21
ENDBRANCH  17  20
ENDBRANCH   9  11
ENDBRANCH   4   9
BRANCH   8  31
HETATM   31  C21 UNL     1      42.721  31.618  16.945  1.00  0.00     0.273 C 
BRANCH  31  32
HETATM   32  N7  UNL     1      43.960  32.107  16.430  1.00  0.00    -0.066 N 
ATOM     33  H72 UNL     1      43.966  33.127  16.418  1.00  0.00     0.277 HD
ATOM     34  H71 UNL     1      44.716  31.939  17.094  1.00  0.00     0.277 HD
BRANCH  32  35
HETATM   35  C22 UNL     1      44.298  31.581  15.132  1.00  0.00     0.284 C 
BRANCH  35  36
HETATM   36  C23 UNL     1      44.982  30.284  15.067  1.00  0.00     0.023 C 
BRANCH  36  37
HETATM   37  C24 UNL     1      46.329  30.150  15.661  1.00  0.00     0.079 C 
BRANCH  37  38
HETATM   38  N8  UNL     1      47.138  31.244  15.947  1.00  0.00    -0.300 NA
HETATM   39  C25 UNL     1      47.775  31.981  14.920  1.00  0.00     0.115 C 
HETATM   40  C26 UNL     1      48.170  30.810  16.895  1.00  0.00     0.115 C 
ENDBRANCH  37  38
ENDBRANCH  36  37
BRANCH  36  41
HETATM   41  N9  UNL     1      44.783  29.504  13.878  1.00  0.00    -0.293 NA
HETATM   42  C27 UNL     1      44.042  30.329  12.877  1.00  0.00     0.116 C 
HETATM   43  C28 UNL     1      46.022  29.102  13.239  1.00  0.00     0.116 C 
ENDBRANCH  36  41
ENDBRANCH  35  36
ENDBRANCH  32  35
ENDBRANCH  31  32
ENDBRANCH   8  31
BRANCH   1  44
HETATM   44  C2  UNL     1      41.483  34.150  16.912  1.00  0.00     0.035 C 
HETATM   45  C1  UNL     1      42.104  35.212  16.046  1.00  0.00     0.010 C 
ENDBRANCH   1  44
TORSDOF 14
ENDMDL
