MODEL 1
REMARK VINA RESULT: -6.016239352      0.000      0.000
REMARK  13 active torsions:
REMARK  status: ('A' for Active; 'I' for Inactive)
REMARK    1  A    between atoms: C2_2  and  O2_4 
REMARK    2  A    between atoms: O2_4  and  C3_5 
REMARK    3  A    between atoms: C3_5  and  N1_6 
REMARK    4  A    between atoms: N1_6  and  C5_8 
REMARK    5  A    between atoms: C5_8  and  C6_9 
REMARK    6  A    between atoms: C5_8  and  C19_34 
REMARK       I    between atoms: C6_9  and  N2_11 
REMARK    7  A    between atoms: C11_17  and  C12_18 
REMARK    8  A    between atoms: C12_18  and  C18_30 
REMARK    9  A    between atoms: N3_19  and  C13_21 
REMARK   10  A    between atoms: C13_21  and  C14_22 
REMARK   11  A    between atoms: C13_21  and  C17_27 
REMARK   12  A    between atoms: C14_22  and  C15_23 
REMARK   13  A    between atoms: C15_23  and  C16_24 
ROOT
HETATM    1  C6  UNL     1      45.831  32.294  14.369  1.00  0.00     0.244 C 
HETATM    2  O3  UNL     1      45.365  31.250  14.898  1.00  0.00    -0.271 OA
HETATM    3  N2  UNL     1      45.118  33.484  14.200  1.00  0.00    -0.330 N 
HETATM    4  C7  UNL     1      45.785  34.679  13.649  1.00  0.00     0.201 C 
HETATM    5  S1  UNL     1      44.445  35.536  12.789  1.00  0.00    -0.137 SA
HETATM    6  C8  UNL     1      43.136  34.232  13.206  1.00  0.00     0.028 C 
HETATM    7  C9  UNL     1      43.313  33.256  12.071  1.00  0.00     0.029 C 
HETATM    8  C10 UNL     1      41.890  35.014  13.108  1.00  0.00     0.029 C 
HETATM    9  C11 UNL     1      43.722  33.890  14.515  1.00  0.00     0.155 C 
ENDROOT
BRANCH   9  10
HETATM   10  C12 UNL     1      43.000  32.948  15.437  1.00  0.00     0.062 C 
HETATM   11  N3  UNL     1      42.666  31.729  14.942  1.00  0.00    -0.377 N 
ATOM     12  H3  UNL     1      43.303  31.430  14.203  1.00  0.00     0.160 HD
BRANCH  11  13
HETATM   13  C13 UNL     1      41.677  30.782  15.186  1.00  0.00     0.183 C 
BRANCH  13  14
HETATM   14  C14 UNL     1      40.995  30.369  13.911  1.00  0.00     0.046 C 
BRANCH  14  15
HETATM   15  C15 UNL     1      39.489  30.478  14.056  1.00  0.00     0.116 C 
BRANCH  15  16
HETATM   16  C16 UNL     1      38.852  29.214  13.545  1.00  0.00     0.172 C 
HETATM   17  O4  UNL     1      37.889  28.739  14.208  1.00  0.00    -0.648 OA
HETATM   18  O5  UNL     1      39.353  28.655  12.394  1.00  0.00    -0.648 OA
ENDBRANCH  15  16
ENDBRANCH  14  15
ENDBRANCH  13  14
BRANCH  13  19
HETATM   19  C17 UNL     1      42.348  29.512  15.715  1.00  0.00     0.196 C 
HETATM   20  O6  UNL     1      41.986  28.409  15.240  1.00  0.00    -0.646 OA
HETATM   21  O7  UNL     1      43.331  29.521  16.676  1.00  0.00    -0.646 OA
ENDBRANCH  13  19
ENDBRANCH  11  13
BRANCH  10  22
HETATM   22  C18 UNL     1      42.321  33.518  16.610  1.00  0.00     0.228 C 
HETATM   23 CL1  UNL     1      42.640  35.254  16.907  1.00  0.00    -0.077 Cl
HETATM   24 CL2  UNL     1      40.499  33.500  16.338  1.00  0.00    -0.077 Cl
HETATM   25 CL3  UNL     1      42.487  32.732  18.169  1.00  0.00    -0.077 Cl
ENDBRANCH  10  22
ENDBRANCH   9  10
BRANCH   1  26
HETATM   26  C5  UNL     1      47.286  32.188  13.905  1.00  0.00     0.176 C 
BRANCH  26  27
HETATM   27  N1  UNL     1      48.143  32.168  15.002  1.00  0.00    -0.383 N 
HETATM   28  C4  UNL     1      49.009  33.348  15.036  1.00  0.00     0.146 C 
BRANCH  27  29
HETATM   29  C3  UNL     1      48.862  31.087  15.473  1.00  0.00     0.299 C 
BRANCH  29  30
HETATM   30  O2  UNL     1      47.978  30.353  16.393  1.00  0.00    -0.302 OA
BRANCH  30  31
HETATM   31  C2  UNL     1      47.843  28.991  16.200  1.00  0.00     0.256 C 
HETATM   32  C1  UNL     1      49.002  28.113  16.470  1.00  0.00     0.126 C 
HETATM   33  O1  UNL     1      46.761  28.530  15.807  1.00  0.00    -0.266 OA
ENDBRANCH  30  31
ENDBRANCH  29  30
ENDBRANCH  27  29
ENDBRANCH  26  27
BRANCH  26  34
HETATM   34  C19 UNL     1      47.262  31.004  12.984  1.00  0.00     0.009 C 
HETATM   35  C20 UNL     1      48.545  30.336  12.690  1.00  0.00     0.012 C 
HETATM   36  C21 UNL     1      46.425  31.268  11.729  1.00  0.00     0.012 C 
ENDBRANCH  26  34
ENDBRANCH   1  26
TORSDOF 13
ENDMDL
MODEL 2
REMARK VINA RESULT: -5.981686817      1.153      1.610
REMARK  13 active torsions:
REMARK  status: ('A' for Active; 'I' for Inactive)
REMARK    1  A    between atoms: C2_2  and  O2_4 
REMARK    2  A    between atoms: O2_4  and  C3_5 
REMARK    3  A    between atoms: C3_5  and  N1_6 
REMARK    4  A    between atoms: N1_6  and  C5_8 
REMARK    5  A    between atoms: C5_8  and  C6_9 
REMARK    6  A    between atoms: C5_8  and  C19_34 
REMARK       I    between atoms: C6_9  and  N2_11 
REMARK    7  A    between atoms: C11_17  and  C12_18 
REMARK    8  A    between atoms: C12_18  and  C18_30 
REMARK    9  A    between atoms: N3_19  and  C13_21 
REMARK   10  A    between atoms: C13_21  and  C14_22 
REMARK   11  A    between atoms: C13_21  and  C17_27 
REMARK   12  A    between atoms: C14_22  and  C15_23 
REMARK   13  A    between atoms: C15_23  and  C16_24 
ROOT
HETATM    1  C6  UNL     1      46.305  31.809  15.127  1.00  0.00     0.244 C 
HETATM    2  O3  UNL     1      45.650  30.862  15.637  1.00  0.00    -0.271 OA
HETATM    3  N2  UNL     1      45.747  33.010  14.682  1.00  0.00    -0.330 N 
HETATM    4  C7  UNL     1      46.615  34.092  14.181  1.00  0.00     0.201 C 
HETATM    5  S1  UNL     1      45.573  34.921  12.957  1.00  0.00    -0.137 SA
HETATM    6  C8  UNL     1      44.101  33.752  13.193  1.00  0.00     0.028 C 
HETATM    7  C9  UNL     1      44.443  32.642  12.231  1.00  0.00     0.029 C 
HETATM    8  C10 UNL     1      42.977  34.588  12.736  1.00  0.00     0.029 C 
HETATM    9  C11 UNL     1      44.354  33.530  14.628  1.00  0.00     0.155 C 
ENDROOT
BRANCH   9  10
HETATM   10  C12 UNL     1      43.372  32.745  15.450  1.00  0.00     0.062 C 
HETATM   11  N3  UNL     1      43.018  31.517  14.991  1.00  0.00    -0.377 N 
ATOM     12  H3  UNL     1      43.754  31.097  14.422  1.00  0.00     0.160 HD
BRANCH  11  13
HETATM   13  C13 UNL     1      41.909  30.686  15.097  1.00  0.00     0.183 C 
BRANCH  13  14
HETATM   14  C14 UNL     1      41.367  30.328  13.741  1.00  0.00     0.046 C 
BRANCH  14  15
HETATM   15  C15 UNL     1      39.875  30.595  13.678  1.00  0.00     0.116 C 
BRANCH  15  16
HETATM   16  C16 UNL     1      39.170  29.348  13.218  1.00  0.00     0.172 C 
HETATM   17  O4  UNL     1      38.228  28.913  13.936  1.00  0.00    -0.648 OA
HETATM   18  O5  UNL     1      39.591  28.760  12.049  1.00  0.00    -0.648 OA
ENDBRANCH  15  16
ENDBRANCH  14  15
ENDBRANCH  13  14
BRANCH  13  19
HETATM   19  C17 UNL     1      42.359  29.360  15.715  1.00  0.00     0.196 C 
HETATM   20  O6  UNL     1      41.883  28.297  15.249  1.00  0.00    -0.646 OA
HETATM   21  O7  UNL     1      43.263  29.276  16.747  1.00  0.00    -0.646 OA
ENDBRANCH  13  19
ENDBRANCH  11  13
BRANCH  10  22
HETATM   22  C18 UNL     1      42.538  33.478  16.413  1.00  0.00     0.228 C 
HETATM   23 CL1  UNL     1      42.855  33.105  18.135  1.00  0.00    -0.077 Cl
HETATM   24 CL2  UNL     1      42.933  35.276  16.328  1.00  0.00    -0.077 Cl
HETATM   25 CL3  UNL     1      40.794  33.457  16.237  1.00  0.00    -0.077 Cl
ENDBRANCH  10  22
ENDBRANCH   9  10
BRANCH   1  26
HETATM   26  C5  UNL     1      47.812  31.566  15.020  1.00  0.00     0.176 C 
BRANCH  26  27
HETATM   27  N1  UNL     1      48.206  30.574  15.914  1.00  0.00    -0.383 N 
HETATM   28  C4  UNL     1      48.499  31.122  17.239  1.00  0.00     0.146 C 
BRANCH  27  29
HETATM   29  C3  UNL     1      49.087  29.538  15.668  1.00  0.00     0.299 C 
BRANCH  29  30
HETATM   30  O2  UNL     1      48.484  28.320  16.233  1.00  0.00    -0.302 OA
BRANCH  30  31
HETATM   31  C2  UNL     1      49.317  27.447  16.907  1.00  0.00     0.256 C 
HETATM   32  C1  UNL     1      50.422  27.999  17.720  1.00  0.00     0.126 C 
HETATM   33  O1  UNL     1      49.125  26.225  16.821  1.00  0.00    -0.266 OA
ENDBRANCH  30  31
ENDBRANCH  29  30
ENDBRANCH  27  29
ENDBRANCH  26  27
BRANCH  26  34
HETATM   34  C19 UNL     1      48.015  31.338  13.551  1.00  0.00     0.009 C 
HETATM   35  C20 UNL     1      47.555  30.053  12.985  1.00  0.00     0.012 C 
HETATM   36  C21 UNL     1      49.428  31.718  13.098  1.00  0.00     0.012 C 
ENDBRANCH  26  34
ENDBRANCH   1  26
TORSDOF 13
ENDMDL
MODEL 3
REMARK VINA RESULT: -5.827261894      2.678      3.928
REMARK  13 active torsions:
REMARK  status: ('A' for Active; 'I' for Inactive)
REMARK    1  A    between atoms: C2_2  and  O2_4 
REMARK    2  A    between atoms: O2_4  and  C3_5 
REMARK    3  A    between atoms: C3_5  and  N1_6 
REMARK    4  A    between atoms: N1_6  and  C5_8 
REMARK    5  A    between atoms: C5_8  and  C6_9 
REMARK    6  A    between atoms: C5_8  and  C19_34 
REMARK       I    between atoms: C6_9  and  N2_11 
REMARK    7  A    between atoms: C11_17  and  C12_18 
REMARK    8  A    between atoms: C12_18  and  C18_30 
REMARK    9  A    between atoms: N3_19  and  C13_21 
REMARK   10  A    between atoms: C13_21  and  C14_22 
REMARK   11  A    between atoms: C13_21  and  C17_27 
REMARK   12  A    between atoms: C14_22  and  C15_23 
REMARK   13  A    between atoms: C15_23  and  C16_24 
ROOT
HETATM    1  C6  UNL     1      47.839  30.855  15.609  1.00  0.00     0.244 C 
HETATM    2  O3  UNL     1      46.890  30.862  16.438  1.00  0.00    -0.271 OA
HETATM    3  N2  UNL     1      47.723  31.228  14.268  1.00  0.00    -0.330 N 
HETATM    4  C7  UNL     1      48.917  31.268  13.402  1.00  0.00     0.201 C 
HETATM    5  S1  UNL     1      48.253  30.871  11.768  1.00  0.00    -0.137 SA
HETATM    6  C8  UNL     1      46.471  30.658  12.375  1.00  0.00     0.028 C 
HETATM    7  C9  UNL     1      46.467  29.208  12.789  1.00  0.00     0.029 C 
HETATM    8  C10 UNL     1      45.702  30.910  11.143  1.00  0.00     0.029 C 
HETATM    9  C11 UNL     1      46.582  31.682  13.429  1.00  0.00     0.155 C 
ENDROOT
BRANCH   9  10
HETATM   10  C12 UNL     1      45.365  32.085  14.213  1.00  0.00     0.062 C 
HETATM   11  N3  UNL     1      44.506  31.099  14.578  1.00  0.00    -0.377 N 
ATOM     12  H3  UNL     1      44.978  30.200  14.676  1.00  0.00     0.160 HD
BRANCH  11  13
HETATM   13  C13 UNL     1      43.146  31.002  14.853  1.00  0.00     0.183 C 
BRANCH  13  14
HETATM   14  C14 UNL     1      42.496  29.942  14.006  1.00  0.00     0.046 C 
BRANCH  14  15
HETATM   15  C15 UNL     1      41.263  30.497  13.318  1.00  0.00     0.116 C 
BRANCH  15  16
HETATM   16  C16 UNL     1      40.090  29.601  13.613  1.00  0.00     0.172 C 
HETATM   17  O4  UNL     1      39.625  29.620  14.786  1.00  0.00    -0.648 OA
HETATM   18  O5  UNL     1      39.598  28.821  12.594  1.00  0.00    -0.648 OA
ENDBRANCH  15  16
ENDBRANCH  14  15
ENDBRANCH  13  14
BRANCH  13  19
HETATM   19  C17 UNL     1      42.981  30.522  16.296  1.00  0.00     0.196 C 
HETATM   20  O6  UNL     1      43.438  29.395  16.604  1.00  0.00    -0.646 OA
HETATM   21  O7  UNL     1      42.364  31.267  17.274  1.00  0.00    -0.646 OA
ENDBRANCH  13  19
ENDBRANCH  11  13
BRANCH  10  22
HETATM   22  C18 UNL     1      44.946  33.493  14.159  1.00  0.00     0.228 C 
HETATM   23 CL1  UNL     1      46.281  34.684  14.103  1.00  0.00    -0.077 Cl
HETATM   24 CL2  UNL     1      44.072  33.815  12.570  1.00  0.00    -0.077 Cl
HETATM   25 CL3  UNL     1      43.816  34.104  15.352  1.00  0.00    -0.077 Cl
ENDBRANCH  10  22
ENDBRANCH   9  10
BRANCH   1  26
HETATM   26  C5  UNL     1      49.187  30.400  16.176  1.00  0.00     0.176 C 
BRANCH  26  27
HETATM   27  N1  UNL     1      49.745  31.407  16.959  1.00  0.00    -0.383 N 
HETATM   28  C4  UNL     1      51.097  31.752  16.515  1.00  0.00     0.146 C 
BRANCH  27  29
HETATM   29  C3  UNL     1      49.701  31.508  18.335  1.00  0.00     0.299 C 
BRANCH  29  30
HETATM   30  O2  UNL     1      51.058  31.225  18.830  1.00  0.00    -0.302 OA
BRANCH  30  31
HETATM   31  C2  UNL     1      51.206  30.958  20.178  1.00  0.00     0.256 C 
HETATM   32  C1  UNL     1      51.190  29.551  20.633  1.00  0.00     0.126 C 
HETATM   33  O1  UNL     1      51.348  31.894  20.978  1.00  0.00    -0.266 OA
ENDBRANCH  30  31
ENDBRANCH  29  30
ENDBRANCH  27  29
ENDBRANCH  26  27
BRANCH  26  34
HETATM   34  C19 UNL     1      48.858  29.084  16.817  1.00  0.00     0.009 C 
HETATM   35  C20 UNL     1      49.976  28.278  17.345  1.00  0.00     0.012 C 
HETATM   36  C21 UNL     1      47.876  28.263  15.975  1.00  0.00     0.012 C 
ENDBRANCH  26  34
ENDBRANCH   1  26
TORSDOF 13
ENDMDL
MODEL 4
REMARK VINA RESULT: -5.660543359      1.324      1.849
REMARK  13 active torsions:
REMARK  status: ('A' for Active; 'I' for Inactive)
REMARK    1  A    between atoms: C2_2  and  O2_4 
REMARK    2  A    between atoms: O2_4  and  C3_5 
REMARK    3  A    between atoms: C3_5  and  N1_6 
REMARK    4  A    between atoms: N1_6  and  C5_8 
REMARK    5  A    between atoms: C5_8  and  C6_9 
REMARK    6  A    between atoms: C5_8  and  C19_34 
REMARK       I    between atoms: C6_9  and  N2_11 
REMARK    7  A    between atoms: C11_17  and  C12_18 
REMARK    8  A    between atoms: C12_18  and  C18_30 
REMARK    9  A    between atoms: N3_19  and  C13_21 
REMARK   10  A    between atoms: C13_21  and  C14_22 
REMARK   11  A    between atoms: C13_21  and  C17_27 
REMARK   12  A    between atoms: C14_22  and  C15_23 
REMARK   13  A    between atoms: C15_23  and  C16_24 
ROOT
HETATM    1  C6  UNL     1      45.533  31.668  15.138  1.00  0.00     0.244 C 
HETATM    2  O3  UNL     1      44.823  30.734  15.597  1.00  0.00    -0.271 OA
HETATM    3  N2  UNL     1      45.041  32.911  14.730  1.00  0.00    -0.330 N 
HETATM    4  C7  UNL     1      45.970  33.968  14.288  1.00  0.00     0.201 C 
HETATM    5  S1  UNL     1      44.993  34.893  13.079  1.00  0.00    -0.137 SA
HETATM    6  C8  UNL     1      43.463  33.789  13.242  1.00  0.00     0.028 C 
HETATM    7  C9  UNL     1      43.771  32.702  12.243  1.00  0.00     0.029 C 
HETATM    8  C10 UNL     1      42.389  34.695  12.798  1.00  0.00     0.029 C 
HETATM    9  C11 UNL     1      43.677  33.500  14.672  1.00  0.00     0.155 C 
ENDROOT
BRANCH   9  10
HETATM   10  C12 UNL     1      42.642  32.732  15.444  1.00  0.00     0.062 C 
HETATM   11  N3  UNL     1      42.161  31.595  14.879  1.00  0.00    -0.377 N 
ATOM     12  H3  UNL     1      42.840  31.167  14.249  1.00  0.00     0.160 HD
BRANCH  11  13
HETATM   13  C13 UNL     1      40.979  30.866  14.939  1.00  0.00     0.183 C 
BRANCH  13  14
HETATM   14  C14 UNL     1      40.261  30.886  13.618  1.00  0.00     0.046 C 
BRANCH  14  15
HETATM   15  C15 UNL     1      38.854  31.428  13.788  1.00  0.00     0.116 C 
BRANCH  15  16
HETATM   16  C16 UNL     1      37.867  30.386  13.334  1.00  0.00     0.172 C 
HETATM   17  O4  UNL     1      37.338  30.542  12.199  1.00  0.00    -0.648 OA
HETATM   18  O5  UNL     1      37.602  29.334  14.177  1.00  0.00    -0.648 OA
ENDBRANCH  15  16
ENDBRANCH  14  15
ENDBRANCH  13  14
BRANCH  13  19
HETATM   19  C17 UNL     1      41.333  29.397  15.183  1.00  0.00     0.196 C 
HETATM   20  O6  UNL     1      40.816  28.530  14.438  1.00  0.00    -0.646 OA
HETATM   21  O7  UNL     1      42.193  28.981  16.172  1.00  0.00    -0.646 OA
ENDBRANCH  13  19
ENDBRANCH  11  13
BRANCH  10  22
HETATM   22  C18 UNL     1      41.904  33.440  16.500  1.00  0.00     0.228 C 
HETATM   23 CL1  UNL     1      41.967  32.675  18.118  1.00  0.00    -0.077 Cl
HETATM   24 CL2  UNL     1      42.695  35.074  16.815  1.00  0.00    -0.077 Cl
HETATM   25 CL3  UNL     1      40.224  33.867  16.243  1.00  0.00    -0.077 Cl
ENDBRANCH  10  22
ENDBRANCH   9  10
BRANCH   1  26
HETATM   26  C5  UNL     1      47.029  31.356  15.048  1.00  0.00     0.176 C 
BRANCH  26  27
HETATM   27  N1  UNL     1      47.388  30.431  16.025  1.00  0.00    -0.383 N 
HETATM   28  C4  UNL     1      48.245  31.031  17.050  1.00  0.00     0.146 C 
BRANCH  27  29
HETATM   29  C3  UNL     1      47.800  29.129  15.822  1.00  0.00     0.299 C 
BRANCH  29  30
HETATM   30  O2  UNL     1      49.265  29.115  15.962  1.00  0.00    -0.302 OA
BRANCH  30  31
HETATM   31  C2  UNL     1      49.893  27.885  15.995  1.00  0.00     0.256 C 
HETATM   32  C1  UNL     1      49.367  26.838  16.898  1.00  0.00     0.126 C 
HETATM   33  O1  UNL     1      50.881  27.679  15.274  1.00  0.00    -0.266 OA
ENDBRANCH  30  31
ENDBRANCH  29  30
ENDBRANCH  27  29
ENDBRANCH  26  27
BRANCH  26  34
HETATM   34  C19 UNL     1      47.212  30.991  13.604  1.00  0.00     0.009 C 
HETATM   35  C20 UNL     1      46.650  29.706  13.143  1.00  0.00     0.012 C 
HETATM   36  C21 UNL     1      48.652  31.217  13.132  1.00  0.00     0.012 C 
ENDBRANCH  26  34
ENDBRANCH   1  26
TORSDOF 13
ENDMDL
MODEL 5
REMARK VINA RESULT: -5.645171074      2.846      6.893
REMARK  13 active torsions:
REMARK  status: ('A' for Active; 'I' for Inactive)
REMARK    1  A    between atoms: C2_2  and  O2_4 
REMARK    2  A    between atoms: O2_4  and  C3_5 
REMARK    3  A    between atoms: C3_5  and  N1_6 
REMARK    4  A    between atoms: N1_6  and  C5_8 
REMARK    5  A    between atoms: C5_8  and  C6_9 
REMARK    6  A    between atoms: C5_8  and  C19_34 
REMARK       I    between atoms: C6_9  and  N2_11 
REMARK    7  A    between atoms: C11_17  and  C12_18 
REMARK    8  A    between atoms: C12_18  and  C18_30 
REMARK    9  A    between atoms: N3_19  and  C13_21 
REMARK   10  A    between atoms: C13_21  and  C14_22 
REMARK   11  A    between atoms: C13_21  and  C17_27 
REMARK   12  A    between atoms: C14_22  and  C15_23 
REMARK   13  A    between atoms: C15_23  and  C16_24 
ROOT
HETATM    1  C6  UNL     1      43.436  32.649  14.902  1.00  0.00     0.244 C 
HETATM    2  O3  UNL     1      43.865  31.714  15.629  1.00  0.00    -0.271 OA
HETATM    3  N2  UNL     1      44.047  33.079  13.721  1.00  0.00    -0.330 N 
HETATM    4  C7  UNL     1      43.414  34.125  12.895  1.00  0.00     0.201 C 
HETATM    5  S1  UNL     1      44.828  34.956  12.132  1.00  0.00    -0.137 SA
HETATM    6  C8  UNL     1      46.124  33.873  12.990  1.00  0.00     0.028 C 
HETATM    7  C9  UNL     1      46.321  34.613  14.288  1.00  0.00     0.029 C 
HETATM    8  C10 UNL     1      47.272  33.995  12.074  1.00  0.00     0.029 C 
HETATM    9  C11 UNL     1      45.280  32.664  12.999  1.00  0.00     0.155 C 
ENDROOT
BRANCH   9  10
HETATM   10  C12 UNL     1      45.852  31.354  13.462  1.00  0.00     0.062 C 
HETATM   11  N3  UNL     1      46.448  31.333  14.682  1.00  0.00    -0.377 N 
ATOM     12  H3  UNL     1      46.063  32.042  15.306  1.00  0.00     0.160 HD
BRANCH  11  13
HETATM   13  C13 UNL     1      47.450  30.591  15.298  1.00  0.00     0.183 C 
BRANCH  13  14
HETATM   14  C14 UNL     1      47.959  31.285  16.531  1.00  0.00     0.046 C 
BRANCH  14  15
HETATM   15  C15 UNL     1      49.469  31.167  16.619  1.00  0.00     0.116 C 
BRANCH  15  16
HETATM   16  C16 UNL     1      49.846  30.692  17.997  1.00  0.00     0.172 C 
HETATM   17  O4  UNL     1      49.900  29.446  18.188  1.00  0.00    -0.648 OA
HETATM   18  O5  UNL     1      50.108  31.639  18.959  1.00  0.00    -0.648 OA
ENDBRANCH  15  16
ENDBRANCH  14  15
ENDBRANCH  13  14
BRANCH  13  19
HETATM   19  C17 UNL     1      46.838  29.280  15.797  1.00  0.00     0.196 C 
HETATM   20  O6  UNL     1      45.590  29.212  15.910  1.00  0.00    -0.646 OA
HETATM   21  O7  UNL     1      47.585  28.172  16.120  1.00  0.00    -0.646 OA
ENDBRANCH  13  19
ENDBRANCH  11  13
BRANCH  10  22
HETATM   22  C18 UNL     1      46.133  30.328  12.448  1.00  0.00     0.228 C 
HETATM   23 CL1  UNL     1      45.265  28.778  12.672  1.00  0.00    -0.077 Cl
HETATM   24 CL2  UNL     1      45.503  30.890  10.811  1.00  0.00    -0.077 Cl
HETATM   25 CL3  UNL     1      47.794  29.894  12.096  1.00  0.00    -0.077 Cl
ENDBRANCH  10  22
ENDBRANCH   9  10
BRANCH   1  26
HETATM   26  C5  UNL     1      42.152  33.317  15.400  1.00  0.00     0.176 C 
BRANCH  26  27
HETATM   27  N1  UNL     1      41.117  32.388  15.458  1.00  0.00    -0.383 N 
HETATM   28  C4  UNL     1      39.846  32.963  15.010  1.00  0.00     0.146 C 
BRANCH  27  29
HETATM   29  C3  UNL     1      40.855  31.502  16.485  1.00  0.00     0.299 C 
BRANCH  29  30
HETATM   30  O2  UNL     1      40.506  30.215  15.861  1.00  0.00    -0.302 OA
BRANCH  30  31
HETATM   31  C2  UNL     1      41.539  29.448  15.356  1.00  0.00     0.256 C 
HETATM   32  C1  UNL     1      41.783  29.451  13.897  1.00  0.00     0.126 C 
HETATM   33  O1  UNL     1      42.239  28.776  16.127  1.00  0.00    -0.266 OA
ENDBRANCH  30  31
ENDBRANCH  29  30
ENDBRANCH  27  29
ENDBRANCH  26  27
BRANCH  26  34
HETATM   34  C19 UNL     1      42.591  33.992  16.666  1.00  0.00     0.009 C 
HETATM   35  C20 UNL     1      42.031  33.496  17.939  1.00  0.00     0.012 C 
HETATM   36  C21 UNL     1      42.548  35.519  16.550  1.00  0.00     0.012 C 
ENDBRANCH  26  34
ENDBRANCH   1  26
TORSDOF 13
ENDMDL
