MODEL 1
REMARK VINA RESULT: -8.570574360      0.000      0.000
REMARK  1 active torsions:
REMARK  status: ('A' for Active; 'I' for Inactive)
REMARK    1  A    between atoms: N1_4  and  N2_6 
ROOT
HETATM    1  C1  UNL     1       3.594  16.831  21.990  1.00  0.00     0.017 C 
HETATM    2  C2  UNL     1       3.867  18.306  21.803  1.00  0.00     0.037 C 
HETATM    3  C3  UNL     1       3.338  18.820  20.516  1.00  0.00     0.008 C 
HETATM    4  N1  UNL     1       2.328  18.314  19.898  1.00  0.00    -0.309 N 
ATOM      5  H1  UNL     1       1.857  17.510  20.314  1.00  0.00     0.186 HD
HETATM    6  C10 UNL     1       4.197  19.975  20.147  1.00  0.00     0.060 C 
HETATM    7  C11 UNL     1       5.515  19.647  20.728  1.00  0.00     0.007 C 
HETATM    8  C12 UNL     1       6.213  20.723  21.462  1.00  0.00    -0.043 C 
HETATM    9  C13 UNL     1       7.269  21.428  20.640  1.00  0.00     0.015 C 
HETATM   10  C14 UNL     1       5.327  21.742  22.110  1.00  0.00     0.015 C 
HETATM   11  C15 UNL     1       6.955  19.965  22.557  1.00  0.00     0.010 C 
HETATM   12  C16 UNL     1       5.903  18.957  22.982  1.00  0.00     0.011 C 
HETATM   13  C17 UNL     1       5.342  18.492  21.660  1.00  0.00    -0.031 C 
HETATM   14  C18 UNL     1       6.051  17.256  21.150  1.00  0.00     0.016 C 
ENDROOT
BRANCH   4  15
HETATM   15  N2  UNL     1       1.846  18.813  18.689  1.00  0.00    -0.309 N 
HETATM   16  C4  UNL     1       0.603  18.788  18.356  1.00  0.00     0.003 C 
HETATM   17  C5  UNL     1       0.247  19.360  17.031  1.00  0.00     0.054 C 
HETATM   18  C9  UNL     1      -0.500  18.252  19.151  1.00  0.00     0.054 C 
HETATM   19  C6  UNL     1      -0.415  18.238  16.271  1.00  0.00     0.006 C 
HETATM   20  C7  UNL     1      -1.612  17.672  16.958  1.00  0.00     0.001 C 
HETATM   21  C8  UNL     1      -1.493  17.444  18.412  1.00  0.00     0.006 C 
ATOM     22  H2  UNL     1       2.514  19.220  18.034  1.00  0.00     0.186 HD
ENDBRANCH   4  15
TORSDOF 1
ENDMDL
MODEL 2
REMARK VINA RESULT: -7.214123418      2.480      4.125
REMARK  1 active torsions:
REMARK  status: ('A' for Active; 'I' for Inactive)
REMARK    1  A    between atoms: N1_4  and  N2_6 
ROOT
HETATM    1  C1  UNL     1       2.983  19.673  18.783  1.00  0.00     0.017 C 
HETATM    2  C2  UNL     1       4.220  19.482  19.633  1.00  0.00     0.037 C 
HETATM    3  C3  UNL     1       4.013  18.488  20.714  1.00  0.00     0.008 C 
HETATM    4  N1  UNL     1       3.174  17.513  20.648  1.00  0.00    -0.309 N 
ATOM      5  H1  UNL     1       2.614  17.412  19.802  1.00  0.00     0.186 HD
HETATM    6  C10 UNL     1       4.944  18.868  21.809  1.00  0.00     0.060 C 
HETATM    7  C11 UNL     1       5.066  20.334  21.689  1.00  0.00     0.007 C 
HETATM    8  C12 UNL     1       6.426  20.905  21.770  1.00  0.00    -0.043 C 
HETATM    9  C13 UNL     1       6.771  21.454  23.136  1.00  0.00     0.015 C 
HETATM   10  C14 UNL     1       7.531  20.009  21.302  1.00  0.00     0.015 C 
HETATM   11  C15 UNL     1       6.350  22.104  20.831  1.00  0.00     0.010 C 
HETATM   12  C16 UNL     1       5.555  21.525  19.676  1.00  0.00     0.011 C 
HETATM   13  C17 UNL     1       4.470  20.749  20.383  1.00  0.00    -0.031 C 
HETATM   14  C18 UNL     1       3.220  21.581  20.581  1.00  0.00     0.016 C 
ENDROOT
BRANCH   4  15
HETATM   15  N2  UNL     1       2.996  16.589  21.676  1.00  0.00    -0.309 N 
HETATM   16  C4  UNL     1       2.302  15.512  21.550  1.00  0.00     0.003 C 
HETATM   17  C5  UNL     1       2.207  14.627  22.740  1.00  0.00     0.054 C 
HETATM   18  C9  UNL     1       1.595  15.068  20.351  1.00  0.00     0.054 C 
HETATM   19  C6  UNL     1       0.734  14.514  23.043  1.00  0.00     0.006 C 
HETATM   20  C7  UNL     1      -0.075  13.986  21.907  1.00  0.00     0.001 C 
HETATM   21  C8  UNL     1       0.239  14.522  20.567  1.00  0.00     0.006 C 
ATOM     22  H2  UNL     1       3.439  16.776  22.576  1.00  0.00     0.186 HD
ENDBRANCH   4  15
TORSDOF 1
ENDMDL
MODEL 3
REMARK VINA RESULT: -7.087407723      1.430      6.977
REMARK  1 active torsions:
REMARK  status: ('A' for Active; 'I' for Inactive)
REMARK    1  A    between atoms: N1_4  and  N2_6 
ROOT
HETATM    1  C1  UNL     1       1.937  15.961  20.694  1.00  0.00     0.017 C 
HETATM    2  C2  UNL     1       1.639  16.718  19.419  1.00  0.00     0.037 C 
HETATM    3  C3  UNL     1       2.062  18.137  19.493  1.00  0.00     0.008 C 
HETATM    4  N1  UNL     1       3.025  18.565  20.233  1.00  0.00    -0.309 N 
ATOM      5  H1  UNL     1       3.533  17.892  20.807  1.00  0.00     0.186 HD
HETATM    6  C10 UNL     1       1.168  18.885  18.571  1.00  0.00     0.060 C 
HETATM    7  C11 UNL     1      -0.098  18.125  18.599  1.00  0.00     0.007 C 
HETATM    8  C12 UNL     1      -0.745  17.850  17.300  1.00  0.00    -0.043 C 
HETATM    9  C13 UNL     1      -1.868  18.809  16.968  1.00  0.00     0.015 C 
HETATM   10  C14 UNL     1       0.180  17.746  16.126  1.00  0.00     0.015 C 
HETATM   11  C15 UNL     1      -1.394  16.488  17.522  1.00  0.00     0.010 C 
HETATM   12  C16 UNL     1      -0.305  15.765  18.291  1.00  0.00     0.011 C 
HETATM   13  C17 UNL     1       0.156  16.816  19.272  1.00  0.00    -0.031 C 
HETATM   14  C18 UNL     1      -0.581  16.718  20.591  1.00  0.00     0.016 C 
ENDROOT
BRANCH   4  15
HETATM   15  N2  UNL     1       3.408  19.905  20.288  1.00  0.00    -0.309 N 
HETATM   16  C4  UNL     1       4.608  20.290  20.547  1.00  0.00     0.003 C 
HETATM   17  C5  UNL     1       4.858  21.755  20.569  1.00  0.00     0.054 C 
HETATM   18  C9  UNL     1       5.757  19.430  20.825  1.00  0.00     0.054 C 
HETATM   19  C6  UNL     1       5.383  22.055  21.950  1.00  0.00     0.006 C 
HETATM   20  C7  UNL     1       6.613  21.289  22.305  1.00  0.00     0.001 C 
HETATM   21  C8  UNL     1       6.629  19.859  21.938  1.00  0.00     0.006 C 
ATOM     22  H2  UNL     1       2.699  20.617  20.112  1.00  0.00     0.186 HD
ENDBRANCH   4  15
TORSDOF 1
ENDMDL
MODEL 4
REMARK VINA RESULT: -6.435253030      1.926      7.114
REMARK  1 active torsions:
REMARK  status: ('A' for Active; 'I' for Inactive)
REMARK    1  A    between atoms: N1_4  and  N2_6 
ROOT
HETATM    1  C1  UNL     1       0.893  19.976  18.673  1.00  0.00     0.017 C 
HETATM    2  C2  UNL     1       0.832  18.749  19.555  1.00  0.00     0.037 C 
HETATM    3  C3  UNL     1       2.158  18.389  20.113  1.00  0.00     0.008 C 
HETATM    4  N1  UNL     1       3.105  19.235  20.327  1.00  0.00    -0.309 N 
ATOM      5  H1  UNL     1       2.940  20.216  20.100  1.00  0.00     0.186 HD
HETATM    6  C10 UNL     1       2.124  16.921  20.347  1.00  0.00     0.060 C 
HETATM    7  C11 UNL     1       1.206  16.410  19.310  1.00  0.00     0.007 C 
HETATM    8  C12 UNL     1       0.186  15.431  19.739  1.00  0.00    -0.043 C 
HETATM    9  C13 UNL     1       0.566  13.996  19.451  1.00  0.00     0.015 C 
HETATM   10  C14 UNL     1      -0.264  15.548  21.163  1.00  0.00     0.015 C 
HETATM   11  C15 UNL     1      -0.999  15.752  18.834  1.00  0.00     0.010 C 
HETATM   12  C16 UNL     1      -0.975  17.269  18.844  1.00  0.00     0.011 C 
HETATM   13  C17 UNL     1       0.497  17.574  18.697  1.00  0.00    -0.031 C 
HETATM   14  C18 UNL     1       0.892  17.763  17.247  1.00  0.00     0.016 C 
ENDROOT
BRANCH   4  15
HETATM   15  N2  UNL     1       4.345  18.875  20.853  1.00  0.00    -0.309 N 
HETATM   16  C4  UNL     1       5.035  19.638  21.627  1.00  0.00     0.003 C 
HETATM   17  C5  UNL     1       6.340  19.110  22.106  1.00  0.00     0.054 C 
HETATM   18  C9  UNL     1       4.667  20.975  22.084  1.00  0.00     0.054 C 
HETATM   19  C6  UNL     1       7.375  20.100  21.634  1.00  0.00     0.006 C 
HETATM   20  C7  UNL     1       7.140  21.491  22.119  1.00  0.00     0.001 C 
HETATM   21  C8  UNL     1       5.749  21.983  22.067  1.00  0.00     0.006 C 
ATOM     22  H2  UNL     1       4.724  17.959  20.613  1.00  0.00     0.186 HD
ENDBRANCH   4  15
TORSDOF 1
ENDMDL
MODEL 5
REMARK VINA RESULT: -5.842814660      2.059      6.911
REMARK  1 active torsions:
REMARK  status: ('A' for Active; 'I' for Inactive)
REMARK    1  A    between atoms: N1_4  and  N2_6 
ROOT
HETATM    1  C1  UNL     1       2.910  15.161  21.791  1.00  0.00     0.017 C 
HETATM    2  C2  UNL     1       2.378  15.747  20.502  1.00  0.00     0.037 C 
HETATM    3  C3  UNL     1       2.546  17.219  20.440  1.00  0.00     0.008 C 
HETATM    4  N1  UNL     1       3.475  17.866  21.054  1.00  0.00    -0.309 N 
ATOM      5  H1  UNL     1       4.140  17.339  21.621  1.00  0.00     0.186 HD
HETATM    6  C10 UNL     1       1.461  17.723  19.558  1.00  0.00     0.060 C 
HETATM    7  C11 UNL     1       0.357  16.762  19.758  1.00  0.00     0.007 C 
HETATM    8  C12 UNL     1      -0.335  16.273  18.548  1.00  0.00    -0.043 C 
HETATM    9  C13 UNL     1      -1.634  16.994  18.261  1.00  0.00     0.015 C 
HETATM   10  C14 UNL     1       0.494  16.231  17.301  1.00  0.00     0.015 C 
HETATM   11  C15 UNL     1      -0.711  14.843  18.923  1.00  0.00     0.010 C 
HETATM   12  C16 UNL     1       0.549  14.384  19.632  1.00  0.00     0.011 C 
HETATM   13  C17 UNL     1       0.894  15.576  20.491  1.00  0.00    -0.031 C 
HETATM   14  C18 UNL     1       0.297  15.464  21.878  1.00  0.00     0.016 C 
ENDROOT
BRANCH   4  15
HETATM   15  N2  UNL     1       3.616  19.251  20.981  1.00  0.00    -0.309 N 
HETATM   16  C4  UNL     1       4.753  19.852  21.037  1.00  0.00     0.003 C 
HETATM   17  C5  UNL     1       4.737  21.336  20.944  1.00  0.00     0.054 C 
HETATM   18  C9  UNL     1       6.064  19.223  21.183  1.00  0.00     0.054 C 
HETATM   19  C6  UNL     1       5.387  21.826  22.214  1.00  0.00     0.006 C 
HETATM   20  C7  UNL     1       6.771  21.309  22.420  1.00  0.00     0.001 C 
HETATM   21  C8  UNL     1       6.991  19.878  22.129  1.00  0.00     0.006 C 
ATOM     22  H2  UNL     1       2.774  19.817  20.877  1.00  0.00     0.186 HD
ENDBRANCH   4  15
TORSDOF 1
ENDMDL
