MODEL 1
REMARK VINA RESULT: -6.773954653      0.000      0.000
REMARK  2 active torsions:
REMARK  status: ('A' for Active; 'I' for Inactive)
REMARK    1  A    between atoms: C11_12  and  S1_13 
REMARK    2  A    between atoms: S1_13  and  C12_14 
ROOT
HETATM    1  C1  UNL     1       1.492  20.460  19.570  1.00  0.00     0.311 C 
HETATM    2  N1  UNL     1       1.158  19.166  19.063  1.00  0.00     0.098 N 
HETATM    3  C2  UNL     1      -0.093  18.770  19.651  1.00  0.00     0.278 C 
HETATM    4  C3  UNL     1      -0.737  17.660  18.822  1.00  0.00     0.018 C 
HETATM    5  C4  UNL     1      -0.519  17.954  17.383  1.00  0.00     0.007 C 
HETATM    6  C5  UNL     1      -0.419  16.770  16.475  1.00  0.00     0.000 C 
HETATM    7  C6  UNL     1      -0.861  15.482  17.127  1.00  0.00     0.000 C 
HETATM    8  C7  UNL     1       0.074  15.320  18.298  1.00  0.00     0.005 C 
HETATM    9  C8  UNL     1      -0.265  16.362  19.351  1.00  0.00    -0.009 C 
HETATM   10  C9  UNL     1       0.696  16.396  20.487  1.00  0.00     0.008 C 
HETATM   11  C10 UNL     1       1.862  17.263  20.468  1.00  0.00     0.047 C 
HETATM   12  C11 UNL     1       2.124  18.140  19.291  1.00  0.00     0.284 C 
ENDROOT
BRANCH  12  13
HETATM   13  S1  UNL     1       3.832  18.718  19.236  1.00  0.00    -0.129 SA
BRANCH  13  14
HETATM   14  C12 UNL     1       4.448  19.510  20.686  1.00  0.00     0.049 C 
HETATM   15  C13 UNL     1       5.333  18.696  21.567  1.00  0.00     0.015 C 
HETATM   16  C14 UNL     1       6.422  19.601  22.100  1.00  0.00     0.001 C 
HETATM   17  C15 UNL     1       6.316  20.905  21.364  1.00  0.00     0.001 C 
HETATM   18  C16 UNL     1       5.371  20.635  20.227  1.00  0.00     0.015 C 
ENDBRANCH  13  14
ENDBRANCH  12  13
TORSDOF 2
ENDMDL
MODEL 2
REMARK VINA RESULT: -5.574114697      1.747      7.026
REMARK  2 active torsions:
REMARK  status: ('A' for Active; 'I' for Inactive)
REMARK    1  A    between atoms: C11_12  and  S1_13 
REMARK    2  A    between atoms: S1_13  and  C12_14 
ROOT
HETATM    1  C1  UNL     1       4.008  18.032  22.626  1.00  0.00     0.311 C 
HETATM    2  N1  UNL     1       4.794  18.967  21.885  1.00  0.00     0.098 N 
HETATM    3  C2  UNL     1       4.833  20.198  22.627  1.00  0.00     0.278 C 
HETATM    4  C3  UNL     1       6.007  21.057  22.164  1.00  0.00     0.018 C 
HETATM    5  C4  UNL     1       7.171  20.172  21.908  1.00  0.00     0.007 C 
HETATM    6  C5  UNL     1       8.126  20.627  20.850  1.00  0.00     0.000 C 
HETATM    7  C6  UNL     1       7.911  22.061  20.430  1.00  0.00     0.000 C 
HETATM    8  C7  UNL     1       6.499  22.084  19.902  1.00  0.00     0.005 C 
HETATM    9  C8  UNL     1       5.532  21.925  21.064  1.00  0.00    -0.009 C 
HETATM   10  C9  UNL     1       4.113  21.779  20.643  1.00  0.00     0.008 C 
HETATM   11  C10 UNL     1       3.526  20.472  20.396  1.00  0.00     0.047 C 
HETATM   12  C11 UNL     1       4.349  19.239  20.556  1.00  0.00     0.284 C 
ENDROOT
BRANCH  12  13
HETATM   13  S1  UNL     1       3.618  17.817  19.724  1.00  0.00    -0.129 SA
BRANCH  13  14
HETATM   14  C12 UNL     1       1.862  17.668  19.801  1.00  0.00     0.049 C 
HETATM   15  C13 UNL     1       1.121  17.827  18.517  1.00  0.00     0.015 C 
HETATM   16  C14 UNL     1      -0.026  16.842  18.515  1.00  0.00     0.001 C 
HETATM   17  C15 UNL     1       0.158  15.942  19.702  1.00  0.00     0.001 C 
HETATM   18  C16 UNL     1       1.549  16.228  20.196  1.00  0.00     0.015 C 
ENDBRANCH  13  14
ENDBRANCH  12  13
TORSDOF 2
ENDMDL
MODEL 3
REMARK VINA RESULT: -5.442089915      2.691      6.991
REMARK  2 active torsions:
REMARK  status: ('A' for Active; 'I' for Inactive)
REMARK    1  A    between atoms: C11_12  and  S1_13 
REMARK    2  A    between atoms: S1_13  and  C12_14 
ROOT
HETATM    1  C1  UNL     1       4.412  18.253  23.474  1.00  0.00     0.311 C 
HETATM    2  N1  UNL     1       5.084  19.044  22.491  1.00  0.00     0.098 N 
HETATM    3  C2  UNL     1       4.809  20.427  22.773  1.00  0.00     0.278 C 
HETATM    4  C3  UNL     1       5.843  21.321  22.092  1.00  0.00     0.018 C 
HETATM    5  C4  UNL     1       7.174  20.671  22.197  1.00  0.00     0.007 C 
HETATM    6  C5  UNL     1       8.135  20.952  21.085  1.00  0.00     0.000 C 
HETATM    7  C6  UNL     1       7.700  22.092  20.197  1.00  0.00     0.000 C 
HETATM    8  C7  UNL     1       6.374  21.641  19.638  1.00  0.00     0.005 C 
HETATM    9  C8  UNL     1       5.335  21.663  20.746  1.00  0.00    -0.009 C 
HETATM   10  C9  UNL     1       4.023  21.088  20.344  1.00  0.00     0.008 C 
HETATM   11  C10 UNL     1       3.723  19.678  20.532  1.00  0.00     0.047 C 
HETATM   12  C11 UNL     1       4.742  18.770  21.132  1.00  0.00     0.284 C 
ENDROOT
BRANCH  12  13
HETATM   13  S1  UNL     1       4.387  17.033  20.803  1.00  0.00    -0.129 SA
BRANCH  13  14
HETATM   14  C12 UNL     1       2.811  16.434  21.321  1.00  0.00     0.049 C 
HETATM   15  C13 UNL     1       1.745  16.371  20.281  1.00  0.00     0.015 C 
HETATM   16  C14 UNL     1       0.929  15.120  20.523  1.00  0.00     0.001 C 
HETATM   17  C15 UNL     1       1.642  14.321  21.574  1.00  0.00     0.001 C 
HETATM   18  C16 UNL     1       2.991  14.969  21.709  1.00  0.00     0.015 C 
ENDBRANCH  13  14
ENDBRANCH  12  13
TORSDOF 2
ENDMDL
MODEL 4
REMARK VINA RESULT: -5.195378874      0.910      1.396
REMARK  2 active torsions:
REMARK  status: ('A' for Active; 'I' for Inactive)
REMARK    1  A    between atoms: C11_12  and  S1_13 
REMARK    2  A    between atoms: S1_13  and  C12_14 
ROOT
HETATM    1  C1  UNL     1       1.192  20.322  19.319  1.00  0.00     0.311 C 
HETATM    2  N1  UNL     1       0.950  18.961  18.959  1.00  0.00     0.098 N 
HETATM    3  C2  UNL     1      -0.193  18.503  19.701  1.00  0.00     0.278 C 
HETATM    4  C3  UNL     1      -0.791  17.264  19.038  1.00  0.00     0.018 C 
HETATM    5  C4  UNL     1      -0.738  17.442  17.564  1.00  0.00     0.007 C 
HETATM    6  C5  UNL     1      -0.599  16.193  16.753  1.00  0.00     0.000 C 
HETATM    7  C6  UNL     1      -0.842  14.935  17.552  1.00  0.00     0.000 C 
HETATM    8  C7  UNL     1       0.209  14.974  18.632  1.00  0.00     0.005 C 
HETATM    9  C8  UNL     1      -0.139  16.072  19.622  1.00  0.00    -0.009 C 
HETATM   10  C9  UNL     1       0.914  16.305  20.649  1.00  0.00     0.008 C 
HETATM   11  C10 UNL     1       1.976  17.274  20.439  1.00  0.00     0.047 C 
HETATM   12  C11 UNL     1       2.035  18.058  19.173  1.00  0.00     0.284 C 
ENDROOT
BRANCH  12  13
HETATM   13  S1  UNL     1       3.661  18.789  18.897  1.00  0.00    -0.129 SA
BRANCH  13  14
HETATM   14  C12 UNL     1       4.832  18.635  20.207  1.00  0.00     0.049 C 
HETATM   15  C13 UNL     1       4.652  19.543  21.375  1.00  0.00     0.015 C 
HETATM   16  C14 UNL     1       4.995  18.767  22.627  1.00  0.00     0.001 C 
HETATM   17  C15 UNL     1       5.168  17.331  22.227  1.00  0.00     0.001 C 
HETATM   18  C16 UNL     1       4.641  17.252  20.822  1.00  0.00     0.015 C 
ENDBRANCH  13  14
ENDBRANCH  12  13
TORSDOF 2
ENDMDL
MODEL 5
REMARK VINA RESULT: -5.037369675      1.910      6.509
REMARK  2 active torsions:
REMARK  status: ('A' for Active; 'I' for Inactive)
REMARK    1  A    between atoms: C11_12  and  S1_13 
REMARK    2  A    between atoms: S1_13  and  C12_14 
ROOT
HETATM    1  C1  UNL     1       2.756  19.536  18.304  1.00  0.00     0.311 C 
HETATM    2  N1  UNL     1       3.443  19.775  19.534  1.00  0.00     0.098 N 
HETATM    3  C2  UNL     1       4.842  19.923  19.238  1.00  0.00     0.278 C 
HETATM    4  C3  UNL     1       5.551  20.637  20.386  1.00  0.00     0.018 C 
HETATM    5  C4  UNL     1       4.663  21.711  20.899  1.00  0.00     0.007 C 
HETATM    6  C5  UNL     1       4.799  22.044  22.351  1.00  0.00     0.000 C 
HETATM    7  C6  UNL     1       6.030  21.444  22.986  1.00  0.00     0.000 C 
HETATM    8  C7  UNL     1       5.852  19.958  22.807  1.00  0.00     0.005 C 
HETATM    9  C8  UNL     1       6.028  19.611  21.338  1.00  0.00    -0.009 C 
HETATM   10  C9  UNL     1       5.721  18.190  21.021  1.00  0.00     0.008 C 
HETATM   11  C10 UNL     1       4.385  17.773  20.627  1.00  0.00     0.047 C 
HETATM   12  C11 UNL     1       3.284  18.774  20.539  1.00  0.00     0.284 C 
ENDROOT
BRANCH  12  13
HETATM   13  S1  UNL     1       1.655  18.000  20.551  1.00  0.00    -0.129 SA
BRANCH  13  14
HETATM   14  C12 UNL     1       1.583  16.298  20.094  1.00  0.00     0.049 C 
HETATM   15  C13 UNL     1       1.585  15.306  21.207  1.00  0.00     0.015 C 
HETATM   16  C14 UNL     1       0.651  14.178  20.829  1.00  0.00     0.001 C 
HETATM   17  C15 UNL     1      -0.079  14.601  19.588  1.00  0.00     0.001 C 
HETATM   18  C16 UNL     1       0.225  16.065  19.437  1.00  0.00     0.015 C 
ENDBRANCH  13  14
ENDBRANCH  12  13
TORSDOF 2
ENDMDL
