MODEL 1
REMARK VINA RESULT: -5.067019475      0.000      0.000
REMARK  3 active torsions:
REMARK  status: ('A' for Active; 'I' for Inactive)
REMARK    1  A    between atoms: C2_2  and  N1_3 
REMARK    2  A    between atoms: C4_5  and  C6_7 
REMARK    3  A    between atoms: C8_10  and  O1_11 
ROOT
HETATM    1  C6  UNL     1      51.852  22.718  29.845  1.00  0.00     0.139 C 
HETATM    2  C7  UNL     1      50.394  22.967  29.689  1.00  0.00     0.060 C 
HETATM    3  N2  UNL     1      49.258  23.158  29.609  1.00  0.00    -0.197 NA
ENDROOT
BRANCH   1   4
HETATM    4  C4  UNL     1      52.320  22.222  28.501  1.00  0.00     0.049 C 
HETATM    5  C3  UNL     1      53.804  21.971  28.575  1.00  0.00     0.290 C 
HETATM    6  N1  UNL     1      53.949  22.616  27.260  1.00  0.00     0.118 N 
HETATM    7  C8  UNL     1      52.655  23.231  27.468  1.00  0.00     0.367 C 
HETATM    8  C5  UNL     1      51.580  20.998  28.041  1.00  0.00     0.022 C 
BRANCH   6   9
HETATM    9  C2  UNL     1      55.099  23.501  27.309  1.00  0.00     0.271 C 
HETATM   10  C1  UNL     1      56.015  23.339  26.109  1.00  0.00     0.037 C 
ENDBRANCH   6   9
BRANCH   7  11
HETATM   11  O1  UNL     1      52.591  24.550  27.789  1.00  0.00    -0.367 OA
ATOM     12  H1  UNL     1      51.891  24.856  28.352  1.00  0.00     0.212 HD
ENDBRANCH   7  11
ENDBRANCH   1   4
TORSDOF 3
ENDMDL
MODEL 2
REMARK VINA RESULT: -5.036464840      1.361      1.477
REMARK  3 active torsions:
REMARK  status: ('A' for Active; 'I' for Inactive)
REMARK    1  A    between atoms: C2_2  and  N1_3 
REMARK    2  A    between atoms: C4_5  and  C6_7 
REMARK    3  A    between atoms: C8_10  and  O1_11 
ROOT
HETATM    1  C6  UNL     1      51.626  22.800  29.768  1.00  0.00     0.139 C 
HETATM    2  C7  UNL     1      52.089  21.896  30.854  1.00  0.00     0.060 C 
HETATM    3  N2  UNL     1      52.441  21.225  31.724  1.00  0.00    -0.197 NA
ENDROOT
BRANCH   1   4
HETATM    4  C4  UNL     1      52.211  22.235  28.498  1.00  0.00     0.049 C 
HETATM    5  C3  UNL     1      53.699  22.086  28.682  1.00  0.00     0.290 C 
HETATM    6  N1  UNL     1      53.890  22.637  27.332  1.00  0.00     0.118 N 
HETATM    7  C8  UNL     1      52.552  23.181  27.411  1.00  0.00     0.367 C 
HETATM    8  C5  UNL     1      51.576  20.934  28.094  1.00  0.00     0.022 C 
BRANCH   6   9
HETATM    9  C2  UNL     1      54.980  23.595  27.379  1.00  0.00     0.271 C 
HETATM   10  C1  UNL     1      55.962  23.423  26.234  1.00  0.00     0.037 C 
ENDBRANCH   6   9
BRANCH   7  11
HETATM   11  O1  UNL     1      52.389  24.514  27.621  1.00  0.00    -0.367 OA
ATOM     12  H1  UNL     1      53.131  25.095  27.510  1.00  0.00     0.212 HD
ENDBRANCH   7  11
ENDBRANCH   1   4
TORSDOF 3
ENDMDL
MODEL 3
REMARK VINA RESULT: -4.950540045      1.881      4.815
REMARK  3 active torsions:
REMARK  status: ('A' for Active; 'I' for Inactive)
REMARK    1  A    between atoms: C2_2  and  N1_3 
REMARK    2  A    between atoms: C4_5  and  C6_7 
REMARK    3  A    between atoms: C8_10  and  O1_11 
ROOT
HETATM    1  C6  UNL     1      52.294  23.617  28.460  1.00  0.00     0.139 C 
HETATM    2  C7  UNL     1      53.147  23.054  27.379  1.00  0.00     0.060 C 
HETATM    3  N2  UNL     1      53.813  22.655  26.524  1.00  0.00    -0.197 NA
ENDROOT
BRANCH   1   4
HETATM    4  C4  UNL     1      51.514  22.448  29.005  1.00  0.00     0.049 C 
HETATM    5  C3  UNL     1      50.162  22.942  29.450  1.00  0.00     0.290 C 
HETATM    6  N1  UNL     1      50.296  22.124  30.665  1.00  0.00     0.118 N 
HETATM    7  C8  UNL     1      51.722  22.077  30.424  1.00  0.00     0.367 C 
HETATM    8  C5  UNL     1      51.388  21.321  28.019  1.00  0.00     0.022 C 
BRANCH   6   9
HETATM    9  C2  UNL     1      49.859  22.915  31.800  1.00  0.00     0.271 C 
HETATM   10  C1  UNL     1      49.183  22.080  32.873  1.00  0.00     0.037 C 
ENDBRANCH   6   9
BRANCH   7  11
HETATM   11  O1  UNL     1      52.550  22.837  31.190  1.00  0.00    -0.367 OA
ATOM     12  H1  UNL     1      52.644  22.633  32.113  1.00  0.00     0.212 HD
ENDBRANCH   7  11
ENDBRANCH   1   4
TORSDOF 3
ENDMDL
MODEL 4
REMARK VINA RESULT: -4.721311823      2.648      5.900
REMARK  3 active torsions:
REMARK  status: ('A' for Active; 'I' for Inactive)
REMARK    1  A    between atoms: C2_2  and  N1_3 
REMARK    2  A    between atoms: C4_5  and  C6_7 
REMARK    3  A    between atoms: C8_10  and  O1_11 
ROOT
HETATM    1  C6  UNL     1      57.744  23.937  26.324  1.00  0.00     0.139 C 
HETATM    2  C7  UNL     1      59.089  23.345  26.558  1.00  0.00     0.060 C 
HETATM    3  N2  UNL     1      60.148  22.919  26.723  1.00  0.00    -0.197 NA
ENDROOT
BRANCH   1   4
HETATM    4  C4  UNL     1      56.789  22.771  26.307  1.00  0.00     0.049 C 
HETATM    5  C3  UNL     1      55.495  23.223  25.681  1.00  0.00     0.290 C 
HETATM    6  N1  UNL     1      54.767  22.505  26.739  1.00  0.00     0.118 N 
HETATM    7  C8  UNL     1      55.983  22.518  27.524  1.00  0.00     0.367 C 
HETATM    8  C5  UNL     1      57.349  21.569  25.600  1.00  0.00     0.022 C 
BRANCH   6   9
HETATM    9  C2  UNL     1      53.687  23.353  27.208  1.00  0.00     0.271 C 
HETATM   10  C1  UNL     1      52.568  22.567  27.868  1.00  0.00     0.037 C 
ENDBRANCH   6   9
BRANCH   7  11
HETATM   11  O1  UNL     1      56.086  23.375  28.574  1.00  0.00    -0.367 OA
ATOM     12  H1  UNL     1      55.324  23.876  28.840  1.00  0.00     0.212 HD
ENDBRANCH   7  11
ENDBRANCH   1   4
TORSDOF 3
ENDMDL
MODEL 5
REMARK VINA RESULT: -4.637254598      2.206      2.632
REMARK  3 active torsions:
REMARK  status: ('A' for Active; 'I' for Inactive)
REMARK    1  A    between atoms: C2_2  and  N1_3 
REMARK    2  A    between atoms: C4_5  and  C6_7 
REMARK    3  A    between atoms: C8_10  and  O1_11 
ROOT
HETATM    1  C6  UNL     1      51.603  22.550  31.873  1.00  0.00     0.139 C 
HETATM    2  C7  UNL     1      50.299  22.142  32.461  1.00  0.00     0.060 C 
HETATM    3  N2  UNL     1      49.300  21.841  32.953  1.00  0.00    -0.197 NA
ENDROOT
BRANCH   1   4
HETATM    4  C4  UNL     1      51.777  21.692  30.646  1.00  0.00     0.049 C 
HETATM    5  C3  UNL     1      53.042  22.112  29.944  1.00  0.00     0.290 C 
HETATM    6  N1  UNL     1      52.323  22.032  28.664  1.00  0.00     0.118 N 
HETATM    7  C8  UNL     1      51.083  22.107  29.405  1.00  0.00     0.367 C 
HETATM    8  C5  UNL     1      51.787  20.222  30.961  1.00  0.00     0.022 C 
BRANCH   6   9
HETATM    9  C2  UNL     1      52.672  23.196  27.870  1.00  0.00     0.271 C 
HETATM   10  C1  UNL     1      53.705  22.889  26.800  1.00  0.00     0.037 C 
ENDBRANCH   6   9
BRANCH   7  11
HETATM   11  O1  UNL     1      50.377  23.269  29.401  1.00  0.00    -0.367 OA
ATOM     12  H1  UNL     1      50.255  23.735  28.583  1.00  0.00     0.212 HD
ENDBRANCH   7  11
ENDBRANCH   1   4
TORSDOF 3
ENDMDL
