MODEL 1
REMARK VINA RESULT: -4.451931446      0.000      0.000
REMARK  2 active torsions:
REMARK  status: ('A' for Active; 'I' for Inactive)
REMARK    1  A    between atoms: O1_2  and  C2_3 
REMARK    2  A    between atoms: C2_3  and  C4_5 
ROOT
HETATM    1  C4  UNL     1      51.588  22.578  31.089  1.00  0.00     0.224 C 
HETATM    2  C5  UNL     1      52.365  21.415  31.613  1.00  0.00     0.111 C 
HETATM    3  S1  UNL     1      52.490  20.392  30.089  1.00  0.00    -0.140 SA
HETATM    4  C6  UNL     1      51.808  21.661  28.946  1.00  0.00     0.306 C 
HETATM    5  N1  UNL     1      51.939  22.838  29.745  1.00  0.00    -0.059 N 
ATOM      6  H11 UNL     1      52.873  23.241  29.671  1.00  0.00     0.278 HD
ATOM      7  H12 UNL     1      51.404  23.617  29.360  1.00  0.00     0.278 HD
ENDROOT
BRANCH   1   8
HETATM    8  C2  UNL     1      50.102  22.442  31.324  1.00  0.00     0.148 C 
HETATM    9  C3  UNL     1      49.844  21.940  32.729  1.00  0.00     0.042 C 
BRANCH   8  10
HETATM   10  O1  UNL     1      49.417  23.621  31.167  1.00  0.00    -0.389 OA
HETATM   11  C1  UNL     1      48.970  24.110  32.390  1.00  0.00     0.202 C 
ENDBRANCH   8  10
ENDBRANCH   1   8
TORSDOF 2
ENDMDL
MODEL 2
REMARK VINA RESULT: -4.187773812      2.871      3.755
REMARK  2 active torsions:
REMARK  status: ('A' for Active; 'I' for Inactive)
REMARK    1  A    between atoms: O1_2  and  C2_3 
REMARK    2  A    between atoms: C2_3  and  C4_5 
ROOT
HETATM    1  C4  UNL     1      52.986  21.719  29.464  1.00  0.00     0.224 C 
HETATM    2  C5  UNL     1      52.458  22.024  30.827  1.00  0.00     0.111 C 
HETATM    3  S1  UNL     1      51.871  20.355  31.332  1.00  0.00    -0.140 SA
HETATM    4  C6  UNL     1      52.604  19.451  29.907  1.00  0.00     0.306 C 
HETATM    5  N1  UNL     1      53.542  20.419  29.431  1.00  0.00    -0.059 N 
ATOM      6  H11 UNL     1      54.422  20.373  29.942  1.00  0.00     0.278 HD
ATOM      7  H12 UNL     1      53.890  20.182  28.502  1.00  0.00     0.278 HD
ENDROOT
BRANCH   1   8
HETATM    8  C2  UNL     1      51.977  21.987  28.372  1.00  0.00     0.148 C 
HETATM    9  C3  UNL     1      50.979  23.027  28.834  1.00  0.00     0.042 C 
BRANCH   8  10
HETATM   10  O1  UNL     1      52.543  22.438  27.206  1.00  0.00    -0.389 OA
HETATM   11  C1  UNL     1      53.631  23.266  27.463  1.00  0.00     0.202 C 
ENDBRANCH   8  10
ENDBRANCH   1   8
TORSDOF 2
ENDMDL
MODEL 3
REMARK VINA RESULT: -4.077645679      0.983      1.053
REMARK  2 active torsions:
REMARK  status: ('A' for Active; 'I' for Inactive)
REMARK    1  A    between atoms: O1_2  and  C2_3 
REMARK    2  A    between atoms: C2_3  and  C4_5 
ROOT
HETATM    1  C4  UNL     1      52.047  22.193  31.040  1.00  0.00     0.224 C 
HETATM    2  C5  UNL     1      52.637  20.915  31.540  1.00  0.00     0.111 C 
HETATM    3  S1  UNL     1      52.694  19.947  29.977  1.00  0.00    -0.140 SA
HETATM    4  C6  UNL     1      52.240  21.342  28.867  1.00  0.00     0.306 C 
HETATM    5  N1  UNL     1      52.491  22.457  29.724  1.00  0.00    -0.059 N 
ATOM      6  H11 UNL     1      53.472  22.733  29.706  1.00  0.00     0.278 HD
ATOM      7  H12 UNL     1      52.083  23.316  29.354  1.00  0.00     0.278 HD
ENDROOT
BRANCH   1   8
HETATM    8  C2  UNL     1      50.547  22.250  31.209  1.00  0.00     0.148 C 
HETATM    9  C3  UNL     1      50.176  21.947  32.645  1.00  0.00     0.042 C 
BRANCH   8  10
HETATM   10  O1  UNL     1      50.010  23.471  30.885  1.00  0.00    -0.389 OA
HETATM   11  C1  UNL     1      49.188  23.379  29.767  1.00  0.00     0.202 C 
ENDBRANCH   8  10
ENDBRANCH   1   8
TORSDOF 2
ENDMDL
MODEL 4
REMARK VINA RESULT: -3.999751542      2.610      3.592
REMARK  2 active torsions:
REMARK  status: ('A' for Active; 'I' for Inactive)
REMARK    1  A    between atoms: O1_2  and  C2_3 
REMARK    2  A    between atoms: C2_3  and  C4_5 
ROOT
HETATM    1  C4  UNL     1      52.525  21.291  29.302  1.00  0.00     0.224 C 
HETATM    2  C5  UNL     1      51.404  22.028  28.646  1.00  0.00     0.111 C 
HETATM    3  S1  UNL     1      52.322  23.454  27.934  1.00  0.00    -0.140 SA
HETATM    4  C6  UNL     1      54.004  22.808  28.305  1.00  0.00     0.306 C 
HETATM    5  N1  UNL     1      53.714  21.431  28.549  1.00  0.00    -0.059 N 
ATOM      6  H11 UNL     1      53.675  20.896  27.682  1.00  0.00     0.278 HD
ATOM      7  H12 UNL     1      54.498  20.952  28.991  1.00  0.00     0.278 HD
ENDROOT
BRANCH   1   8
HETATM    8  C2  UNL     1      52.677  21.639  30.765  1.00  0.00     0.148 C 
HETATM    9  C3  UNL     1      51.379  22.208  31.298  1.00  0.00     0.042 C 
BRANCH   8  10
HETATM   10  O1  UNL     1      53.017  20.563  31.547  1.00  0.00    -0.389 OA
HETATM   11  C1  UNL     1      52.702  19.363  30.917  1.00  0.00     0.202 C 
ENDBRANCH   8  10
ENDBRANCH   1   8
TORSDOF 2
ENDMDL
MODEL 5
REMARK VINA RESULT: -3.972854690      2.109      3.067
REMARK  2 active torsions:
REMARK  status: ('A' for Active; 'I' for Inactive)
REMARK    1  A    between atoms: O1_2  and  C2_3 
REMARK    2  A    between atoms: C2_3  and  C4_5 
ROOT
HETATM    1  C4  UNL     1      52.135  22.247  30.471  1.00  0.00     0.224 C 
HETATM    2  C5  UNL     1      51.353  21.378  31.400  1.00  0.00     0.111 C 
HETATM    3  S1  UNL     1      52.036  19.728  30.960  1.00  0.00    -0.140 SA
HETATM    4  C6  UNL     1      53.390  20.358  29.886  1.00  0.00     0.306 C 
HETATM    5  N1  UNL     1      53.438  21.727  30.292  1.00  0.00    -0.059 N 
ATOM      6  H11 UNL     1      54.010  21.852  31.126  1.00  0.00     0.278 HD
ATOM      7  H12 UNL     1      53.984  22.294  29.643  1.00  0.00     0.278 HD
ENDROOT
BRANCH   1   8
HETATM    8  C2  UNL     1      51.402  22.533  29.181  1.00  0.00     0.148 C 
HETATM    9  C3  UNL     1      49.979  22.957  29.477  1.00  0.00     0.042 C 
BRANCH   8  10
HETATM   10  O1  UNL     1      51.988  23.522  28.431  1.00  0.00    -0.389 OA
HETATM   11  C1  UNL     1      52.774  22.986  27.416  1.00  0.00     0.202 C 
ENDBRANCH   8  10
ENDBRANCH   1   8
TORSDOF 2
ENDMDL
