MODEL 1
REMARK VINA RESULT: -6.382119671      0.000      0.000
REMARK  2 active torsions:
REMARK  status: ('A' for Active; 'I' for Inactive)
REMARK       I    between atoms: C1_2  and  N1_3 
REMARK    1  A    between atoms: C1_2  and  C5_8 
REMARK    2  A    between atoms: N1_3  and  C2_5 
ROOT
HETATM    1  O1  UNL     1      52.647  24.401  27.545  1.00  0.00    -0.273 OA
HETATM    2  C1  UNL     1      52.769  23.173  27.655  1.00  0.00     0.227 C 
HETATM    3  N1  UNL     1      53.957  22.423  27.567  1.00  0.00    -0.356 N 
ATOM      4  H1  UNL     1      53.912  21.410  27.678  1.00  0.00     0.162 HD
ENDROOT
BRANCH   2   5
HETATM    5  C5  UNL     1      51.477  22.380  27.912  1.00  0.00     0.045 A 
HETATM    6  C6  UNL     1      50.665  22.839  28.714  1.00  0.00     0.025 A 
HETATM    7  C7  UNL     1      50.730  22.924  29.308  1.00  0.00     0.006 A 
HETATM    8  C8  UNL     1      51.725  22.667  30.016  1.00  0.00     0.025 A 
ENDBRANCH   2   5
BRANCH   3   9
HETATM    9  C2  UNL     1      55.249  23.048  27.323  1.00  0.00     0.084 A 
HETATM   10  C3  UNL     1      56.245  22.191  26.587  1.00  0.00     0.027 A 
HETATM   11  C4  UNL     1      55.616  23.368  25.923  1.00  0.00     0.027 A 
ENDBRANCH   3   9
TORSDOF 2
ENDMDL
MODEL 2
REMARK VINA RESULT: -6.340633797      2.662      5.203
REMARK  2 active torsions:
REMARK  status: ('A' for Active; 'I' for Inactive)
REMARK       I    between atoms: C1_2  and  N1_3 
REMARK    1  A    between atoms: C1_2  and  C5_8 
REMARK    2  A    between atoms: N1_3  and  C2_5 
ROOT
HETATM    1  O1  UNL     1      52.502  21.984  30.304  1.00  0.00    -0.273 OA
HETATM    2  C1  UNL     1      51.487  22.391  29.720  1.00  0.00     0.227 C 
HETATM    3  N1  UNL     1      50.412  23.108  30.280  1.00  0.00    -0.356 N 
ATOM      4  H1  UNL     1      49.635  23.381  29.678  1.00  0.00     0.162 HD
ENDROOT
BRANCH   2   5
HETATM    5  C5  UNL     1      51.390  22.073  28.220  1.00  0.00     0.045 A 
HETATM    6  C6  UNL     1      52.335  22.390  27.498  1.00  0.00     0.025 A 
HETATM    7  C7  UNL     1      52.539  22.943  27.366  1.00  0.00     0.006 A 
HETATM    8  C8  UNL     1      52.094  24.040  27.763  1.00  0.00     0.025 A 
ENDBRANCH   2   5
BRANCH   3   9
HETATM    9  C2  UNL     1      50.375  23.471  31.689  1.00  0.00     0.084 A 
HETATM   10  C3  UNL     1      49.130  24.194  32.130  1.00  0.00     0.027 A 
HETATM   11  C4  UNL     1      49.386  22.791  32.559  1.00  0.00     0.027 A 
ENDBRANCH   3   9
TORSDOF 2
ENDMDL
MODEL 3
REMARK VINA RESULT: -6.127849394      0.996      1.076
REMARK  2 active torsions:
REMARK  status: ('A' for Active; 'I' for Inactive)
REMARK       I    between atoms: C1_2  and  N1_3 
REMARK    1  A    between atoms: C1_2  and  C5_8 
REMARK    2  A    between atoms: N1_3  and  C2_5 
ROOT
HETATM    1  O1  UNL     1      53.800  24.503  27.537  1.00  0.00    -0.273 OA
HETATM    2  C1  UNL     1      53.670  23.306  27.241  1.00  0.00     0.227 C 
HETATM    3  N1  UNL     1      54.684  22.411  26.849  1.00  0.00    -0.356 N 
ATOM      4  H1  UNL     1      54.433  21.445  26.633  1.00  0.00     0.162 HD
ENDROOT
BRANCH   2   5
HETATM    5  C5  UNL     1      52.244  22.738  27.308  1.00  0.00     0.045 A 
HETATM    6  C6  UNL     1      51.583  22.949  28.325  1.00  0.00     0.025 A 
HETATM    7  C7  UNL     1      51.685  22.754  28.886  1.00  0.00     0.006 A 
HETATM    8  C8  UNL     1      52.621  22.035  29.291  1.00  0.00     0.025 A 
ENDBRANCH   2   5
BRANCH   3   9
HETATM    9  C2  UNL     1      56.076  22.819  26.741  1.00  0.00     0.084 A 
HETATM   10  C3  UNL     1      56.882  22.077  25.707  1.00  0.00     0.027 A 
HETATM   11  C4  UNL     1      56.509  23.505  25.501  1.00  0.00     0.027 A 
ENDBRANCH   3   9
TORSDOF 2
ENDMDL
MODEL 4
REMARK VINA RESULT: -5.917606185      1.178      4.650
REMARK  2 active torsions:
REMARK  status: ('A' for Active; 'I' for Inactive)
REMARK       I    between atoms: C1_2  and  N1_3 
REMARK    1  A    between atoms: C1_2  and  C5_8 
REMARK    2  A    between atoms: N1_3  and  C2_5 
ROOT
HETATM    1  O1  UNL     1      53.461  22.777  25.937  1.00  0.00    -0.273 OA
HETATM    2  C1  UNL     1      54.178  22.994  26.924  1.00  0.00     0.227 C 
HETATM    3  N1  UNL     1      53.932  22.612  28.257  1.00  0.00    -0.356 N 
ATOM      4  H1  UNL     1      54.614  22.859  28.975  1.00  0.00     0.162 HD
ENDROOT
BRANCH   2   5
HETATM    5  C5  UNL     1      55.480  23.770  26.664  1.00  0.00     0.045 A 
HETATM    6  C6  UNL     1      56.110  23.515  25.639  1.00  0.00     0.025 A 
HETATM    7  C7  UNL     1      56.388  23.002  25.485  1.00  0.00     0.006 A 
HETATM    8  C8  UNL     1      56.458  21.942  26.141  1.00  0.00     0.025 A 
ENDBRANCH   2   5
BRANCH   3   9
HETATM    9  C2  UNL     1      52.737  21.877  28.642  1.00  0.00     0.084 A 
HETATM   10  C3  UNL     1      52.273  22.107  30.056  1.00  0.00     0.027 A 
HETATM   11  C4  UNL     1      51.498  22.648  28.905  1.00  0.00     0.027 A 
ENDBRANCH   3   9
TORSDOF 2
ENDMDL
MODEL 5
REMARK VINA RESULT: -5.670088522      1.187      4.783
REMARK  2 active torsions:
REMARK  status: ('A' for Active; 'I' for Inactive)
REMARK       I    between atoms: C1_2  and  N1_3 
REMARK    1  A    between atoms: C1_2  and  C5_8 
REMARK    2  A    between atoms: N1_3  and  C2_5 
ROOT
HETATM    1  O1  UNL     1      54.711  24.610  26.932  1.00  0.00    -0.273 OA
HETATM    2  C1  UNL     1      54.833  23.392  27.127  1.00  0.00     0.227 C 
HETATM    3  N1  UNL     1      53.802  22.453  27.320  1.00  0.00    -0.356 N 
ATOM      4  H1  UNL     1      54.047  21.474  27.471  1.00  0.00     0.162 HD
ENDROOT
BRANCH   2   5
HETATM    5  C5  UNL     1      56.270  22.848  27.165  1.00  0.00     0.045 A 
HETATM    6  C6  UNL     1      56.990  23.045  26.187  1.00  0.00     0.025 A 
HETATM    7  C7  UNL     1      56.927  22.835  25.625  1.00  0.00     0.006 A 
HETATM    8  C8  UNL     1      56.030  22.089  25.181  1.00  0.00     0.025 A 
ENDBRANCH   2   5
BRANCH   3   9
HETATM    9  C2  UNL     1      52.397  22.835  27.311  1.00  0.00     0.084 A 
HETATM   10  C3  UNL     1      51.477  21.903  28.055  1.00  0.00     0.027 A 
HETATM   11  C4  UNL     1      51.781  23.259  28.591  1.00  0.00     0.027 A 
ENDBRANCH   3   9
TORSDOF 2
ENDMDL
