MODEL 1
REMARK VINA RESULT: -5.828283577      0.000      0.000
REMARK  1 active torsions:
REMARK  status: ('A' for Active; 'I' for Inactive)
REMARK    1  A    between atoms: C2_2  and  C3_3 
REMARK       I    between atoms: N1_6  and  C6_7 
ROOT
HETATM    1  C3  UNL     1      51.205  22.246  29.079  1.00  0.00     0.027 C 
HETATM    2  C4  UNL     1      52.259  21.863  30.124  1.00  0.00     0.030 C 
HETATM    3  C5  UNL     1      51.460  22.068  31.397  1.00  0.00     0.128 C 
HETATM    4  N1  UNL     1      50.471  23.077  31.083  1.00  0.00    -0.336 N 
HETATM    5  C6  UNL     1      49.497  23.570  31.968  1.00  0.00     0.330 C 
HETATM    6  N2  UNL     1      48.578  24.560  31.549  1.00  0.00    -0.040 NA
HETATM    7  O1  UNL     1      49.445  23.127  33.136  1.00  0.00    -0.251 OA
HETATM    8  C7  UNL     1      50.642  23.500  29.708  1.00  0.00     0.135 C 
ENDROOT
BRANCH   1   9
HETATM    9  C2  UNL     1      51.787  22.466  27.758  1.00  0.00    -0.031 C 
HETATM   10  C1  UNL     1      52.487  23.567  27.539  1.00  0.00     0.007 C 
ENDBRANCH   1   9
TORSDOF 1
ENDMDL
MODEL 2
REMARK VINA RESULT: -5.713157227      2.585      4.130
REMARK  1 active torsions:
REMARK  status: ('A' for Active; 'I' for Inactive)
REMARK    1  A    between atoms: C2_2  and  C3_3 
REMARK       I    between atoms: N1_6  and  C6_7 
ROOT
HETATM    1  C3  UNL     1      50.576  23.468  31.617  1.00  0.00     0.027 C 
HETATM    2  C4  UNL     1      51.188  22.148  32.101  1.00  0.00     0.030 C 
HETATM    3  C5  UNL     1      52.264  21.951  31.050  1.00  0.00     0.128 C 
HETATM    4  N1  UNL     1      51.784  22.625  29.863  1.00  0.00    -0.336 N 
HETATM    5  C6  UNL     1      52.470  22.715  28.641  1.00  0.00     0.330 C 
HETATM    6  N2  UNL     1      51.900  23.401  27.543  1.00  0.00    -0.040 NA
HETATM    7  O1  UNL     1      53.595  22.181  28.524  1.00  0.00    -0.251 OA
HETATM    8  C7  UNL     1      50.479  23.195  30.133  1.00  0.00     0.135 C 
ENDROOT
BRANCH   1   9
HETATM    9  C2  UNL     1      49.288  23.746  32.245  1.00  0.00    -0.031 C 
HETATM   10  C1  UNL     1      48.688  24.899  31.999  1.00  0.00     0.007 C 
ENDBRANCH   1   9
TORSDOF 1
ENDMDL
MODEL 3
REMARK VINA RESULT: -5.290501690      2.705      4.591
REMARK  1 active torsions:
REMARK  status: ('A' for Active; 'I' for Inactive)
REMARK    1  A    between atoms: C2_2  and  C3_3 
REMARK       I    between atoms: N1_6  and  C6_7 
ROOT
HETATM    1  C3  UNL     1      49.830  22.436  31.192  1.00  0.00     0.027 C 
HETATM    2  C4  UNL     1      49.225  23.638  30.457  1.00  0.00     0.030 C 
HETATM    3  C5  UNL     1      49.972  23.551  29.141  1.00  0.00     0.128 C 
HETATM    4  N1  UNL     1      51.233  22.909  29.445  1.00  0.00    -0.336 N 
HETATM    5  C6  UNL     1      52.242  22.608  28.515  1.00  0.00     0.330 C 
HETATM    6  N2  UNL     1      53.439  21.977  28.928  1.00  0.00    -0.040 NA
HETATM    7  O1  UNL     1      52.078  22.900  27.310  1.00  0.00    -0.251 OA
HETATM    8  C7  UNL     1      51.293  22.626  30.865  1.00  0.00     0.135 C 
ENDROOT
BRANCH   1   9
HETATM    9  C2  UNL     1      49.544  22.458  32.623  1.00  0.00    -0.031 C 
HETATM   10  C1  UNL     1      48.742  21.539  33.134  1.00  0.00     0.007 C 
ENDBRANCH   1   9
TORSDOF 1
ENDMDL
MODEL 4
REMARK VINA RESULT: -5.138475629      1.349      1.579
REMARK  1 active torsions:
REMARK  status: ('A' for Active; 'I' for Inactive)
REMARK    1  A    between atoms: C2_2  and  C3_3 
REMARK       I    between atoms: N1_6  and  C6_7 
ROOT
HETATM    1  C3  UNL     1      52.185  22.439  27.858  1.00  0.00     0.027 C 
HETATM    2  C4  UNL     1      53.038  22.011  29.058  1.00  0.00     0.030 C 
HETATM    3  C5  UNL     1      51.973  21.959  30.137  1.00  0.00     0.128 C 
HETATM    4  N1  UNL     1      50.955  22.904  29.733  1.00  0.00    -0.336 N 
HETATM    5  C6  UNL     1      49.767  23.173  30.432  1.00  0.00     0.330 C 
HETATM    6  N2  UNL     1      48.840  24.123  29.941  1.00  0.00    -0.040 NA
HETATM    7  O1  UNL     1      49.528  22.567  31.499  1.00  0.00    -0.251 OA
HETATM    8  C7  UNL     1      51.354  23.532  28.490  1.00  0.00     0.135 C 
ENDROOT
BRANCH   1   9
HETATM    9  C2  UNL     1      52.996  22.897  26.734  1.00  0.00    -0.031 C 
HETATM   10  C1  UNL     1      54.261  23.223  26.945  1.00  0.00     0.007 C 
ENDBRANCH   1   9
TORSDOF 1
ENDMDL
MODEL 5
REMARK VINA RESULT: -4.934067764      2.772      4.222
REMARK  1 active torsions:
REMARK  status: ('A' for Active; 'I' for Inactive)
REMARK    1  A    between atoms: C2_2  and  C3_3 
REMARK       I    between atoms: N1_6  and  C6_7 
ROOT
HETATM    1  C3  UNL     1      51.116  23.035  31.649  1.00  0.00     0.027 C 
HETATM    2  C4  UNL     1      51.895  21.728  31.843  1.00  0.00     0.030 C 
HETATM    3  C5  UNL     1      52.824  21.792  30.646  1.00  0.00     0.128 C 
HETATM    4  N1  UNL     1      52.129  22.575  29.647  1.00  0.00    -0.336 N 
HETATM    5  C6  UNL     1      52.627  22.905  28.376  1.00  0.00     0.330 C 
HETATM    6  N2  UNL     1      51.855  23.679  27.478  1.00  0.00    -0.040 NA
HETATM    7  O1  UNL     1      53.764  22.510  28.037  1.00  0.00    -0.251 OA
HETATM    8  C7  UNL     1      50.834  22.967  30.166  1.00  0.00     0.135 C 
ENDROOT
BRANCH   1   9
HETATM    9  C2  UNL     1      49.910  23.090  32.470  1.00  0.00    -0.031 C 
HETATM   10  C1  UNL     1      49.017  22.120  32.368  1.00  0.00     0.007 C 
ENDBRANCH   1   9
TORSDOF 1
ENDMDL
