MODEL 1
REMARK VINA RESULT: -8.383723572      0.000      0.000
REMARK  11 active torsions:
REMARK  status: ('A' for Active; 'I' for Inactive)
REMARK    1  A    between atoms: C2_2  and  C3_3 
REMARK    2  A    between atoms: C3_3  and  C4_4 
REMARK    3  A    between atoms: C4_4  and  C5_5 
REMARK    4  A    between atoms: C5_5  and  C6_6 
REMARK    5  A    between atoms: C11_11  and  C12_12 
REMARK    6  A    between atoms: C12_12  and  O1_13 
REMARK    7  A    between atoms: C12_12  and  C13_15 
REMARK    8  A    between atoms: C13_15  and  O2_16 
REMARK    9  A    between atoms: C13_15  and  C14_18 
REMARK   10  A    between atoms: C17_21  and  N1_22 
REMARK   11  A    between atoms: C19_26  and  N2_27 
ROOT
HETATM    1  C12 UNL     1      48.056   6.064   0.285  1.00  0.00     0.161 C 
ENDROOT
BRANCH   1   2
HETATM    2  C11 UNL     1      47.924   5.723  -1.123  1.00  0.00     0.067 C 
HETATM    3  C10 UNL     1      46.543   5.402  -1.588  1.00  0.00     0.051 C 
HETATM    4  C4  UNL     1      46.544   5.634  -3.108  1.00  0.00     0.068 C 
HETATM    5  O7  UNL     1      47.569   5.195  -3.803  1.00  0.00    -0.374 OA
HETATM    6  C21 UNL     1      48.752   4.793  -3.257  1.00  0.00     0.221 C 
HETATM    7  C20 UNL     1      48.755   4.731  -1.778  1.00  0.00     0.011 C 
HETATM    8  N3  UNL     1      49.443   3.885  -1.188  1.00  0.00    -0.403 N 
ATOM      9  H32 UNL     1      49.445   3.842  -0.169  1.00  0.00     0.155 HD
ATOM     10  H31 UNL     1      50.027   3.188  -1.649  1.00  0.00     0.155 HD
BRANCH   4  11
HETATM   11  C3  UNL     1      45.257   4.976  -3.566  1.00  0.00     0.064 C 
BRANCH  11  12
HETATM   12  C2  UNL     1      44.215   4.859  -2.556  1.00  0.00    -0.034 C 
HETATM   13  C1  UNL     1      42.948   4.781  -2.394  1.00  0.00     0.007 C 
ENDBRANCH  11  12
ENDBRANCH   4  11
BRANCH   4  14
HETATM   14  C5  UNL     1      46.363   7.157  -3.241  1.00  0.00     0.065 C 
BRANCH  14  15
HETATM   15  C6  UNL     1      46.488   7.584  -4.649  1.00  0.00    -0.022 C 
HETATM   16  C7  UNL     1      46.853   8.748  -5.102  1.00  0.00    -0.091 C 
HETATM   17  C8  UNL     1      46.901   8.969  -6.625  1.00  0.00     0.042 C 
HETATM   18  C9  UNL     1      47.274   9.928  -4.316  1.00  0.00     0.042 C 
ENDBRANCH  14  15
ENDBRANCH   4  14
ENDBRANCH   1   2
BRANCH   1  19
HETATM   19  O1  UNL     1      47.898   4.911   0.999  1.00  0.00    -0.392 OA
ATOM     20  H1  UNL     1      47.440   5.135   1.801  1.00  0.00     0.210 HD
ENDBRANCH   1  19
BRANCH   1  21
HETATM   21  C13 UNL     1      49.069   7.005   0.832  1.00  0.00     0.183 C 
BRANCH  21  22
HETATM   22  O2  UNL     1      49.076   6.968   2.254  1.00  0.00    -0.388 OA
ATOM     23  H2  UNL     1      49.933   7.202   2.592  1.00  0.00     0.210 HD
ENDBRANCH  21  22
BRANCH  21  24
HETATM   24  C14 UNL     1      48.525   8.365   0.461  1.00  0.00     0.006 A 
HETATM   25  C15 UNL     1      47.190   8.479   0.095  1.00  0.00     0.015 A 
HETATM   26  C16 UNL     1      46.638   9.685  -0.274  1.00  0.00     0.037 A 
HETATM   27  C17 UNL     1      47.409  10.843  -0.294  1.00  0.00     0.105 A 
HETATM   28  C18 UNL     1      48.720  10.747   0.073  1.00  0.00     0.072 A 
HETATM   29  C19 UNL     1      49.279   9.486   0.458  1.00  0.00     0.114 A 
BRANCH  27  30
HETATM   30  N1  UNL     1      46.821  12.032  -0.762  1.00  0.00    -0.116 N 
HETATM   31  O3  UNL     1      45.825  12.003  -1.550  1.00  0.00    -0.532 OA
HETATM   32  O4  UNL     1      47.253  13.279  -0.388  1.00  0.00    -0.532 OA
ENDBRANCH  27  30
BRANCH  29  33
HETATM   33  N2  UNL     1      50.643   9.512   0.821  1.00  0.00    -0.115 N 
HETATM   34  O5  UNL     1      51.127   9.190   1.893  1.00  0.00    -0.532 OA
HETATM   35  O6  UNL     1      51.541  10.002  -0.128  1.00  0.00    -0.532 OA
ENDBRANCH  29  33
ENDBRANCH  21  24
ENDBRANCH   1  21
TORSDOF 11
ENDMDL
MODEL 2
REMARK VINA RESULT: -8.093839503      2.872      6.338
REMARK  11 active torsions:
REMARK  status: ('A' for Active; 'I' for Inactive)
REMARK    1  A    between atoms: C2_2  and  C3_3 
REMARK    2  A    between atoms: C3_3  and  C4_4 
REMARK    3  A    between atoms: C4_4  and  C5_5 
REMARK    4  A    between atoms: C5_5  and  C6_6 
REMARK    5  A    between atoms: C11_11  and  C12_12 
REMARK    6  A    between atoms: C12_12  and  O1_13 
REMARK    7  A    between atoms: C12_12  and  C13_15 
REMARK    8  A    between atoms: C13_15  and  O2_16 
REMARK    9  A    between atoms: C13_15  and  C14_18 
REMARK   10  A    between atoms: C17_21  and  N1_22 
REMARK   11  A    between atoms: C19_26  and  N2_27 
ROOT
HETATM    1  C12 UNL     1      47.257   5.951  -3.180  1.00  0.00     0.161 C 
ENDROOT
BRANCH   1   2
HETATM    2  C11 UNL     1      48.060   6.182  -1.990  1.00  0.00     0.067 C 
HETATM    3  C10 UNL     1      48.717   7.518  -1.898  1.00  0.00     0.051 C 
HETATM    4  C4  UNL     1      49.004   7.746  -0.403  1.00  0.00     0.068 C 
HETATM    5  O7  UNL     1      49.493   6.746   0.295  1.00  0.00    -0.374 OA
HETATM    6  C21 UNL     1      49.511   5.450  -0.129  1.00  0.00     0.221 C 
HETATM    7  C20 UNL     1      49.079   5.256  -1.531  1.00  0.00     0.011 C 
HETATM    8  N3  UNL     1      49.571   4.350  -2.219  1.00  0.00    -0.403 N 
ATOM      9  H32 UNL     1      49.273   4.216  -3.185  1.00  0.00     0.155 HD
ATOM     10  H31 UNL     1      50.287   3.700  -1.896  1.00  0.00     0.155 HD
BRANCH   4  11
HETATM   11  C3  UNL     1      49.959   8.924  -0.403  1.00  0.00     0.064 C 
BRANCH  11  12
HETATM   12  C2  UNL     1      50.598   9.217   0.873  1.00  0.00    -0.034 C 
HETATM   13  C1  UNL     1      51.696   9.601   1.404  1.00  0.00     0.007 C 
ENDBRANCH  11  12
ENDBRANCH   4  11
BRANCH   4  14
HETATM   14  C5  UNL     1      47.656   8.238   0.152  1.00  0.00     0.065 C 
BRANCH  14  15
HETATM   15  C6  UNL     1      47.107   9.328  -0.678  1.00  0.00    -0.022 C 
HETATM   16  C7  UNL     1      47.031  10.594  -0.389  1.00  0.00    -0.091 C 
HETATM   17  C8  UNL     1      46.403  11.554  -1.416  1.00  0.00     0.042 C 
HETATM   18  C9  UNL     1      47.516  11.268   0.836  1.00  0.00     0.042 C 
ENDBRANCH  14  15
ENDBRANCH   4  14
ENDBRANCH   1   2
BRANCH   1  19
HETATM   19  O1  UNL     1      47.286   4.611  -3.436  1.00  0.00    -0.392 OA
ATOM     20  H1  UNL     1      46.497   4.234  -3.063  1.00  0.00     0.210 HD
ENDBRANCH   1  19
BRANCH   1  21
HETATM   21  C13 UNL     1      45.955   6.613  -3.458  1.00  0.00     0.183 C 
BRANCH  21  22
HETATM   22  O2  UNL     1      45.016   5.681  -3.981  1.00  0.00    -0.388 OA
ATOM     23  H2  UNL     1      44.136   6.038  -3.953  1.00  0.00     0.210 HD
ENDBRANCH  21  22
BRANCH  21  24
HETATM   24  C14 UNL     1      46.274   7.555  -4.596  1.00  0.00     0.006 A 
HETATM   25  C15 UNL     1      46.623   8.867  -4.306  1.00  0.00     0.015 A 
HETATM   26  C16 UNL     1      46.904   9.781  -5.298  1.00  0.00     0.037 A 
HETATM   27  C17 UNL     1      46.847   9.414  -6.639  1.00  0.00     0.105 A 
HETATM   28  C18 UNL     1      46.515   8.125  -6.938  1.00  0.00     0.072 A 
HETATM   29  C19 UNL     1      46.229   7.185  -5.895  1.00  0.00     0.114 A 
BRANCH  27  30
HETATM   30  N1  UNL     1      47.058  10.405  -7.614  1.00  0.00    -0.116 N 
HETATM   31  O3  UNL     1      47.695  11.469  -7.338  1.00  0.00    -0.532 OA
HETATM   32  O4  UNL     1      46.626  10.285  -8.911  1.00  0.00    -0.532 OA
ENDBRANCH  27  30
BRANCH  29  33
HETATM   33  N2  UNL     1      45.903   5.881  -6.326  1.00  0.00    -0.115 N 
HETATM   34  O5  UNL     1      46.657   4.928  -6.430  1.00  0.00    -0.532 OA
HETATM   35  O6  UNL     1      44.584   5.657  -6.724  1.00  0.00    -0.532 OA
ENDBRANCH  29  33
ENDBRANCH  21  24
ENDBRANCH   1  21
TORSDOF 11
ENDMDL
MODEL 3
REMARK VINA RESULT: -7.647121297      2.083      3.326
REMARK  11 active torsions:
REMARK  status: ('A' for Active; 'I' for Inactive)
REMARK    1  A    between atoms: C2_2  and  C3_3 
REMARK    2  A    between atoms: C3_3  and  C4_4 
REMARK    3  A    between atoms: C4_4  and  C5_5 
REMARK    4  A    between atoms: C5_5  and  C6_6 
REMARK    5  A    between atoms: C11_11  and  C12_12 
REMARK    6  A    between atoms: C12_12  and  O1_13 
REMARK    7  A    between atoms: C12_12  and  C13_15 
REMARK    8  A    between atoms: C13_15  and  O2_16 
REMARK    9  A    between atoms: C13_15  and  C14_18 
REMARK   10  A    between atoms: C17_21  and  N1_22 
REMARK   11  A    between atoms: C19_26  and  N2_27 
ROOT
HETATM    1  C12 UNL     1      45.502   5.322  -1.586  1.00  0.00     0.161 C 
ENDROOT
BRANCH   1   2
HETATM    2  C11 UNL     1      45.832   5.417  -2.999  1.00  0.00     0.067 C 
HETATM    3  C10 UNL     1      44.832   6.123  -3.854  1.00  0.00     0.051 C 
HETATM    4  C4  UNL     1      45.600   6.593  -5.101  1.00  0.00     0.068 C 
HETATM    5  O7  UNL     1      46.442   5.756  -5.665  1.00  0.00    -0.374 OA
HETATM    6  C21 UNL     1      46.892   4.610  -5.080  1.00  0.00     0.221 C 
HETATM    7  C20 UNL     1      46.233   4.274  -3.798  1.00  0.00     0.011 C 
HETATM    8  N3  UNL     1      46.068   3.090  -3.469  1.00  0.00    -0.403 N 
ATOM      9  H32 UNL     1      45.613   2.860  -2.585  1.00  0.00     0.155 HD
ATOM     10  H31 UNL     1      46.349   2.287  -4.030  1.00  0.00     0.155 HD
BRANCH   4  11
HETATM   11  C3  UNL     1      44.497   6.983  -6.067  1.00  0.00     0.064 C 
BRANCH  11  12
HETATM   12  C2  UNL     1      44.646   6.484  -7.428  1.00  0.00    -0.034 C 
HETATM   13  C1  UNL     1      44.760   6.853  -8.647  1.00  0.00     0.007 C 
ENDBRANCH  11  12
ENDBRANCH   4  11
BRANCH   4  14
HETATM   14  C5  UNL     1      46.291   7.886  -4.635  1.00  0.00     0.065 C 
BRANCH  14  15
HETATM   15  C6  UNL     1      46.456   8.832  -5.756  1.00  0.00    -0.022 C 
HETATM   16  C7  UNL     1      47.149   9.934  -5.778  1.00  0.00    -0.091 C 
HETATM   17  C8  UNL     1      47.166  10.773  -7.069  1.00  0.00     0.042 C 
HETATM   18  C9  UNL     1      47.980  10.496  -4.692  1.00  0.00     0.042 C 
ENDBRANCH  14  15
ENDBRANCH   4  14
ENDBRANCH   1   2
BRANCH   1  19
HETATM   19  O1  UNL     1      44.568   4.336  -1.452  1.00  0.00    -0.392 OA
ATOM     20  H1  UNL     1      45.017   3.562  -1.130  1.00  0.00     0.210 HD
ENDBRANCH   1  19
BRANCH   1  21
HETATM   21  C13 UNL     1      46.497   5.395  -0.483  1.00  0.00     0.183 C 
BRANCH  21  22
HETATM   22  O2  UNL     1      45.848   5.411   0.782  1.00  0.00    -0.388 OA
ATOM     23  H2  UNL     1      46.419   5.066   1.459  1.00  0.00     0.210 HD
ENDBRANCH  21  22
BRANCH  21  24
HETATM   24  C14 UNL     1      47.108   6.767  -0.648  1.00  0.00     0.006 A 
HETATM   25  C15 UNL     1      46.328   7.886  -0.388  1.00  0.00     0.015 A 
HETATM   26  C16 UNL     1      46.818   9.164  -0.540  1.00  0.00     0.037 A 
HETATM   27  C17 UNL     1      48.125   9.379  -0.964  1.00  0.00     0.105 A 
HETATM   28  C18 UNL     1      48.905   8.288  -1.215  1.00  0.00     0.072 A 
HETATM   29  C19 UNL     1      48.383   6.964  -1.048  1.00  0.00     0.114 A 
BRANCH  27  30
HETATM   30  N1  UNL     1      48.549  10.701  -1.187  1.00  0.00    -0.116 N 
HETATM   31  O3  UNL     1      49.737  10.952  -1.564  1.00  0.00    -0.532 OA
HETATM   32  O4  UNL     1      47.724  11.787  -1.043  1.00  0.00    -0.532 OA
ENDBRANCH  27  30
BRANCH  29  33
HETATM   33  N2  UNL     1      49.285   5.916  -1.332  1.00  0.00    -0.115 N 
HETATM   34  O5  UNL     1      49.527   5.426  -2.422  1.00  0.00    -0.532 OA
HETATM   35  O6  UNL     1      49.944   5.337  -0.246  1.00  0.00    -0.532 OA
ENDBRANCH  29  33
ENDBRANCH  21  24
ENDBRANCH   1  21
TORSDOF 11
ENDMDL
MODEL 4
REMARK VINA RESULT: -7.592778450      3.046      6.556
REMARK  11 active torsions:
REMARK  status: ('A' for Active; 'I' for Inactive)
REMARK    1  A    between atoms: C2_2  and  C3_3 
REMARK    2  A    between atoms: C3_3  and  C4_4 
REMARK    3  A    between atoms: C4_4  and  C5_5 
REMARK    4  A    between atoms: C5_5  and  C6_6 
REMARK    5  A    between atoms: C11_11  and  C12_12 
REMARK    6  A    between atoms: C12_12  and  O1_13 
REMARK    7  A    between atoms: C12_12  and  C13_15 
REMARK    8  A    between atoms: C13_15  and  O2_16 
REMARK    9  A    between atoms: C13_15  and  C14_18 
REMARK   10  A    between atoms: C17_21  and  N1_22 
REMARK   11  A    between atoms: C19_26  and  N2_27 
ROOT
HETATM    1  C12 UNL     1      47.481   5.694  -3.516  1.00  0.00     0.161 C 
ENDROOT
BRANCH   1   2
HETATM    2  C11 UNL     1      48.257   5.665  -2.286  1.00  0.00     0.067 C 
HETATM    3  C10 UNL     1      48.585   6.995  -1.692  1.00  0.00     0.051 C 
HETATM    4  C4  UNL     1      48.872   6.734  -0.204  1.00  0.00     0.068 C 
HETATM    5  O7  UNL     1      49.610   5.695   0.114  1.00  0.00    -0.374 OA
HETATM    6  C21 UNL     1      49.915   4.679  -0.743  1.00  0.00     0.221 C 
HETATM    7  C20 UNL     1      49.483   4.903  -2.140  1.00  0.00     0.011 C 
HETATM    8  N3  UNL     1      50.145   4.444  -3.083  1.00  0.00    -0.403 N 
ATOM      9  H32 UNL     1      49.846   4.600  -4.046  1.00  0.00     0.155 HD
ATOM     10  H31 UNL     1      51.007   3.909  -2.981  1.00  0.00     0.155 HD
BRANCH   4  11
HETATM   11  C3  UNL     1      49.522   8.022   0.261  1.00  0.00     0.064 C 
BRANCH  11  12
HETATM   12  C2  UNL     1      49.503   9.119  -0.698  1.00  0.00    -0.034 C 
HETATM   13  C1  UNL     1      49.883  10.327  -0.881  1.00  0.00     0.007 C 
ENDBRANCH  11  12
ENDBRANCH   4  11
BRANCH   4  14
HETATM   14  C5  UNL     1      47.470   6.665   0.428  1.00  0.00     0.065 C 
BRANCH  14  15
HETATM   15  C6  UNL     1      47.198   5.317   0.968  1.00  0.00    -0.022 C 
HETATM   16  C7  UNL     1      46.241   4.501   0.635  1.00  0.00    -0.091 C 
HETATM   17  C8  UNL     1      46.148   3.139   1.348  1.00  0.00     0.042 C 
HETATM   18  C9  UNL     1      45.205   4.702  -0.401  1.00  0.00     0.042 C 
ENDBRANCH  14  15
ENDBRANCH   4  14
ENDBRANCH   1   2
BRANCH   1  19
HETATM   19  O1  UNL     1      47.545   4.446  -4.066  1.00  0.00    -0.392 OA
ATOM     20  H1  UNL     1      48.367   4.057  -3.789  1.00  0.00     0.210 HD
ENDBRANCH   1  19
BRANCH   1  21
HETATM   21  C13 UNL     1      46.170   6.379  -3.669  1.00  0.00     0.183 C 
BRANCH  21  22
HETATM   22  O2  UNL     1      45.196   5.491  -4.204  1.00  0.00    -0.388 OA
ATOM     23  H2  UNL     1      45.061   5.658  -5.129  1.00  0.00     0.210 HD
ENDBRANCH  21  22
BRANCH  21  24
HETATM   24  C14 UNL     1      46.430   7.401  -4.750  1.00  0.00     0.006 A 
HETATM   25  C15 UNL     1      46.866   8.669  -4.387  1.00  0.00     0.015 A 
HETATM   26  C16 UNL     1      47.100   9.652  -5.323  1.00  0.00     0.037 A 
HETATM   27  C17 UNL     1      46.905   9.405  -6.678  1.00  0.00     0.105 A 
HETATM   28  C18 UNL     1      46.486   8.161  -7.049  1.00  0.00     0.072 A 
HETATM   29  C19 UNL     1      46.250   7.147  -6.065  1.00  0.00     0.114 A 
BRANCH  27  30
HETATM   30  N1  UNL     1      47.074  10.467  -7.584  1.00  0.00    -0.116 N 
HETATM   31  O3  UNL     1      47.723  11.510  -7.256  1.00  0.00    -0.532 OA
HETATM   32  O4  UNL     1      46.587  10.444  -8.866  1.00  0.00    -0.532 OA
ENDBRANCH  27  30
BRANCH  29  33
HETATM   33  N2  UNL     1      45.824   5.899  -6.569  1.00  0.00    -0.115 N 
HETATM   34  O5  UNL     1      46.518   4.927  -6.816  1.00  0.00    -0.532 OA
HETATM   35  O6  UNL     1      44.466   5.766  -6.865  1.00  0.00    -0.532 OA
ENDBRANCH  29  33
ENDBRANCH  21  24
ENDBRANCH   1  21
TORSDOF 11
ENDMDL
MODEL 5
REMARK VINA RESULT: -7.577040631      3.591      6.685
REMARK  11 active torsions:
REMARK  status: ('A' for Active; 'I' for Inactive)
REMARK    1  A    between atoms: C2_2  and  C3_3 
REMARK    2  A    between atoms: C3_3  and  C4_4 
REMARK    3  A    between atoms: C4_4  and  C5_5 
REMARK    4  A    between atoms: C5_5  and  C6_6 
REMARK    5  A    between atoms: C11_11  and  C12_12 
REMARK    6  A    between atoms: C12_12  and  O1_13 
REMARK    7  A    between atoms: C12_12  and  C13_15 
REMARK    8  A    between atoms: C13_15  and  O2_16 
REMARK    9  A    between atoms: C13_15  and  C14_18 
REMARK   10  A    between atoms: C17_21  and  N1_22 
REMARK   11  A    between atoms: C19_26  and  N2_27 
ROOT
HETATM    1  C12 UNL     1      45.763   5.584  -2.231  1.00  0.00     0.161 C 
ENDROOT
BRANCH   1   2
HETATM    2  C11 UNL     1      46.821   6.557  -2.010  1.00  0.00     0.067 C 
HETATM    3  C10 UNL     1      46.681   7.849  -2.744  1.00  0.00     0.051 C 
HETATM    4  C4  UNL     1      47.526   8.871  -1.964  1.00  0.00     0.068 C 
HETATM    5  O7  UNL     1      48.715   8.503  -1.544  1.00  0.00    -0.374 OA
HETATM    6  C21 UNL     1      49.149   7.211  -1.504  1.00  0.00     0.221 C 
HETATM    7  C20 UNL     1      48.231   6.235  -2.131  1.00  0.00     0.011 C 
HETATM    8  N3  UNL     1      48.678   5.225  -2.695  1.00  0.00    -0.403 N 
ATOM      9  H32 UNL     1      48.045   4.553  -3.128  1.00  0.00     0.155 HD
ATOM     10  H31 UNL     1      49.669   4.999  -2.781  1.00  0.00     0.155 HD
BRANCH   4  11
HETATM   11  C3  UNL     1      47.630  10.044  -2.920  1.00  0.00     0.064 C 
BRANCH  11  12
HETATM   12  C2  UNL     1      47.288   9.759  -4.307  1.00  0.00    -0.034 C 
HETATM   13  C1  UNL     1      47.557  10.080  -5.516  1.00  0.00     0.007 C 
ENDBRANCH  11  12
ENDBRANCH   4  11
BRANCH   4  14
HETATM   14  C5  UNL     1      46.605   9.292  -0.806  1.00  0.00     0.065 C 
BRANCH  14  15
HETATM   15  C6  UNL     1      47.390   9.812   0.332  1.00  0.00    -0.022 C 
HETATM   16  C7  UNL     1      47.608  11.054   0.652  1.00  0.00    -0.091 C 
HETATM   17  C8  UNL     1      48.474  11.360   1.888  1.00  0.00     0.042 C 
HETATM   18  C9  UNL     1      47.090  12.263  -0.025  1.00  0.00     0.042 C 
ENDBRANCH  14  15
ENDBRANCH   4  14
ENDBRANCH   1   2
BRANCH   1  19
HETATM   19  O1  UNL     1      45.583   5.480  -3.580  1.00  0.00    -0.392 OA
ATOM     20  H1  UNL     1      45.240   4.610  -3.754  1.00  0.00     0.210 HD
ENDBRANCH   1  19
BRANCH   1  21
HETATM   21  C13 UNL     1      45.622   4.308  -1.481  1.00  0.00     0.183 C 
BRANCH  21  22
HETATM   22  O2  UNL     1      45.049   3.299  -2.303  1.00  0.00    -0.388 OA
ATOM     23  H2  UNL     1      44.463   3.681  -2.947  1.00  0.00     0.210 HD
ENDBRANCH  21  22
BRANCH  21  24
HETATM   24  C14 UNL     1      44.578   4.627  -0.436  1.00  0.00     0.006 A 
HETATM   25  C15 UNL     1      44.987   4.919   0.858  1.00  0.00     0.015 A 
HETATM   26  C16 UNL     1      44.085   5.196   1.861  1.00  0.00     0.037 A 
HETATM   27  C17 UNL     1      42.717   5.193   1.607  1.00  0.00     0.105 A 
HETATM   28  C18 UNL     1      42.301   4.917   0.337  1.00  0.00     0.072 A 
HETATM   29  C19 UNL     1      43.252   4.634  -0.697  1.00  0.00     0.114 A 
BRANCH  27  30
HETATM   30  N1  UNL     1      41.835   5.397   2.683  1.00  0.00    -0.116 N 
HETATM   31  O3  UNL     1      41.764   6.524   3.266  1.00  0.00    -0.532 OA
HETATM   32  O4  UNL     1      40.988   4.425   3.153  1.00  0.00    -0.532 OA
ENDBRANCH  27  30
BRANCH  29  33
HETATM   33  N2  UNL     1      42.703   4.369  -1.970  1.00  0.00    -0.115 N 
HETATM   34  O5  UNL     1      42.619   5.139  -2.912  1.00  0.00    -0.532 OA
HETATM   35  O6  UNL     1      42.152   3.102  -2.170  1.00  0.00    -0.532 OA
ENDBRANCH  29  33
ENDBRANCH  21  24
ENDBRANCH   1  21
TORSDOF 11
ENDMDL
