MODEL 1
REMARK VINA RESULT: -8.286621705      0.000      0.000
REMARK  13 active torsions:
REMARK  status: ('A' for Active; 'I' for Inactive)
REMARK    1  A    between atoms: C2_2  and  C3_3 
REMARK    2  A    between atoms: C2_2  and  C13_15 
REMARK    3  A    between atoms: C3_3  and  O1_4 
REMARK    4  A    between atoms: O1_4  and  C4_5 
REMARK    5  A    between atoms: C4_5  and  C5_7 
REMARK    6  A    between atoms: C5_7  and  C6_8 
REMARK    7  A    between atoms: C13_15  and  C15_17 
REMARK    8  A    between atoms: C16_18  and  C17_19 
REMARK    9  A    between atoms: C18_20  and  C19_21 
REMARK   10  A    between atoms: C19_21  and  C20_22 
REMARK   11  A    between atoms: N2_25  and  O3_27 
REMARK   12  A    between atoms: C22_30  and  O5_31 
REMARK   13  A    between atoms: C23_33  and  O6_34 
ROOT
HETATM    1  C20 UNL     1      47.609  11.818   0.554  1.00  0.00     0.115 C 
HETATM    2  C21 UNL     1      48.023  11.242   1.820  1.00  0.00     0.115 C 
HETATM    3  N1  UNL     1      48.342  10.785   2.844  1.00  0.00    -0.190 NA
HETATM    4  N2  UNL     1      47.232  13.031   0.538  1.00  0.00    -0.263 N 
ATOM      5  H2  UNL     1      47.259  13.527   1.429  1.00  0.00     0.194 HD
ENDROOT
BRANCH   1   6
HETATM    6  C19 UNL     1      47.642  10.929  -0.645  1.00  0.00     0.098 C 
BRANCH   6   7
HETATM    7  C18 UNL     1      48.990  10.623  -1.092  1.00  0.00    -0.017 C 
HETATM    8  C17 UNL     1      49.673   9.543  -0.852  1.00  0.00     0.034 C 
BRANCH   8   9
HETATM    9  C16 UNL     1      49.242   8.399  -0.083  1.00  0.00     0.088 A 
HETATM   10  C15 UNL     1      48.467   7.354  -0.641  1.00  0.00     0.022 A 
HETATM   11  C23 UNL     1      48.269   6.472   0.394  1.00  0.00     0.134 A 
HETATM   12  C22 UNL     1      48.908   6.978   1.533  1.00  0.00     0.218 A 
HETATM   13  O4  UNL     1      49.445   8.100   1.155  1.00  0.00    -0.285 OA
BRANCH  10  14
HETATM   14  C13 UNL     1      48.000   7.253  -2.038  1.00  0.00     0.050 C 
HETATM   15  C14 UNL     1      46.475   7.323  -2.094  1.00  0.00     0.020 C 
BRANCH  14  16
HETATM   16  C2  UNL     1      48.317   5.890  -2.642  1.00  0.00    -0.057 C 
HETATM   17  C1  UNL     1      49.499   5.374  -2.550  1.00  0.00     0.017 C 
BRANCH  16  18
HETATM   18  C3  UNL     1      47.185   5.236  -3.309  1.00  0.00     0.213 C 
BRANCH  18  19
HETATM   19  O1  UNL     1      47.324   5.085  -4.672  1.00  0.00    -0.317 OA
BRANCH  19  20
HETATM   20  C4  UNL     1      46.601   5.672  -5.687  1.00  0.00     0.259 C 
HETATM   21  O2  UNL     1      46.515   5.006  -6.778  1.00  0.00    -0.265 OA
BRANCH  20  22
HETATM   22  C5  UNL     1      45.961   6.981  -5.535  1.00  0.00     0.116 C 
BRANCH  22  23
HETATM   23  C6  UNL     1      46.646   8.126  -6.215  1.00  0.00    -0.002 C 
HETATM   24  C7  UNL     1      46.113   8.334  -7.586  1.00  0.00     0.005 C 
HETATM   25  C8  UNL     1      46.737   9.531  -8.280  1.00  0.00     0.000 C 
HETATM   26  C9  UNL     1      47.094  10.635  -7.332  1.00  0.00     0.000 C 
HETATM   27  C10 UNL     1      46.140  10.575  -6.156  1.00  0.00     0.004 C 
HETATM   28  C11 UNL     1      46.531   9.359  -5.344  1.00  0.00    -0.014 C 
HETATM   29  C12 UNL     1      47.837   9.671  -4.646  1.00  0.00     0.010 C 
ENDBRANCH  22  23
ENDBRANCH  20  22
ENDBRANCH  19  20
ENDBRANCH  18  19
ENDBRANCH  16  18
ENDBRANCH  14  16
ENDBRANCH  10  14
BRANCH  11  30
HETATM   30  O6  UNL     1      47.563   5.278   0.350  1.00  0.00    -0.356 OA
ATOM     31  H6  UNL     1      47.760   4.480   0.828  1.00  0.00     0.218 HD
ENDBRANCH  11  30
BRANCH  12  32
HETATM   32  O5  UNL     1      48.927   6.363   2.775  1.00  0.00    -0.339 OA
ATOM     33  H5  UNL     1      49.522   5.707   3.116  1.00  0.00     0.220 HD
ENDBRANCH  12  32
ENDBRANCH   8   9
ENDBRANCH   6   7
ENDBRANCH   1   6
BRANCH   4  34
HETATM   34  O3  UNL     1      46.802  13.733  -0.526  1.00  0.00    -0.289 OA
ATOM     35  H3  UNL     1      46.104  13.496  -1.125  1.00  0.00     0.244 HD
ENDBRANCH   4  34
TORSDOF 13
ENDMDL
MODEL 2
REMARK VINA RESULT: -8.051347645      2.700      6.614
REMARK  13 active torsions:
REMARK  status: ('A' for Active; 'I' for Inactive)
REMARK    1  A    between atoms: C2_2  and  C3_3 
REMARK    2  A    between atoms: C2_2  and  C13_15 
REMARK    3  A    between atoms: C3_3  and  O1_4 
REMARK    4  A    between atoms: O1_4  and  C4_5 
REMARK    5  A    between atoms: C4_5  and  C5_7 
REMARK    6  A    between atoms: C5_7  and  C6_8 
REMARK    7  A    between atoms: C13_15  and  C15_17 
REMARK    8  A    between atoms: C16_18  and  C17_19 
REMARK    9  A    between atoms: C18_20  and  C19_21 
REMARK   10  A    between atoms: C19_21  and  C20_22 
REMARK   11  A    between atoms: N2_25  and  O3_27 
REMARK   12  A    between atoms: C22_30  and  O5_31 
REMARK   13  A    between atoms: C23_33  and  O6_34 
ROOT
HETATM    1  C20 UNL     1      47.184   9.503  -7.278  1.00  0.00     0.115 C 
HETATM    2  C21 UNL     1      48.035  10.455  -6.590  1.00  0.00     0.115 C 
HETATM    3  N1  UNL     1      48.710  11.233  -6.044  1.00  0.00    -0.190 NA
HETATM    4  N2  UNL     1      46.910   9.712  -8.500  1.00  0.00    -0.263 N 
ATOM      5  H2  UNL     1      47.325  10.542  -8.923  1.00  0.00     0.194 HD
ENDROOT
BRANCH   1   6
HETATM    6  C19 UNL     1      46.674   8.344  -6.485  1.00  0.00     0.098 C 
BRANCH   6   7
HETATM    7  C18 UNL     1      46.529   8.640  -5.070  1.00  0.00    -0.017 C 
HETATM    8  C17 UNL     1      46.481   7.788  -4.090  1.00  0.00     0.034 C 
BRANCH   8   9
HETATM    9  C16 UNL     1      46.562   6.349  -4.187  1.00  0.00     0.088 A 
HETATM   10  C15 UNL     1      47.485   5.585  -3.433  1.00  0.00     0.022 A 
HETATM   11  C23 UNL     1      47.249   4.283  -3.805  1.00  0.00     0.134 A 
HETATM   12  C22 UNL     1      46.218   4.274  -4.751  1.00  0.00     0.218 A 
HETATM   13  O4  UNL     1      45.884   5.521  -4.907  1.00  0.00    -0.285 OA
BRANCH  10  14
HETATM   14  C13 UNL     1      48.464   6.100  -2.457  1.00  0.00     0.050 C 
HETATM   15  C14 UNL     1      49.700   5.203  -2.420  1.00  0.00     0.020 C 
BRANCH  14  16
HETATM   16  C2  UNL     1      47.931   6.030  -1.030  1.00  0.00    -0.057 C 
HETATM   17  C1  UNL     1      46.676   6.209  -0.773  1.00  0.00     0.017 C 
BRANCH  16  18
HETATM   18  C3  UNL     1      48.944   5.738  -0.010  1.00  0.00     0.213 C 
BRANCH  18  19
HETATM   19  O1  UNL     1      49.822   6.770   0.247  1.00  0.00    -0.317 OA
BRANCH  19  20
HETATM   20  C4  UNL     1      49.644   7.878   1.045  1.00  0.00     0.259 C 
HETATM   21  O2  UNL     1      48.981   7.695   2.126  1.00  0.00    -0.265 OA
BRANCH  20  22
HETATM   22  C5  UNL     1      50.182   9.193   0.689  1.00  0.00     0.116 C 
BRANCH  22  23
HETATM   23  C6  UNL     1      49.253  10.098  -0.060  1.00  0.00    -0.002 C 
HETATM   24  C7  UNL     1      49.171   9.716  -1.494  1.00  0.00     0.005 C 
HETATM   25  C8  UNL     1      48.184  10.570  -2.269  1.00  0.00     0.000 C 
HETATM   26  C9  UNL     1      47.016  11.010  -1.441  1.00  0.00     0.000 C 
HETATM   27  C10 UNL     1      46.774   9.964  -0.370  1.00  0.00     0.004 C 
HETATM   28  C11 UNL     1      47.904  10.099   0.628  1.00  0.00    -0.014 C 
HETATM   29  C12 UNL     1      47.680  11.376   1.410  1.00  0.00     0.010 C 
ENDBRANCH  22  23
ENDBRANCH  20  22
ENDBRANCH  19  20
ENDBRANCH  18  19
ENDBRANCH  16  18
ENDBRANCH  14  16
ENDBRANCH  10  14
BRANCH  11  30
HETATM   30  O6  UNL     1      47.904   3.150  -3.340  1.00  0.00    -0.356 OA
ATOM     31  H6  UNL     1      47.659   2.245  -3.494  1.00  0.00     0.218 HD
ENDBRANCH  11  30
BRANCH  12  32
HETATM   32  O5  UNL     1      45.703   3.139  -5.359  1.00  0.00    -0.339 OA
ATOM     33  H5  UNL     1      45.887   2.224  -5.186  1.00  0.00     0.220 HD
ENDBRANCH  12  32
ENDBRANCH   8   9
ENDBRANCH   6   7
ENDBRANCH   1   6
BRANCH   4  34
HETATM   34  O3  UNL     1      46.133   8.958  -9.299  1.00  0.00    -0.289 OA
ATOM     35  H3  UNL     1      46.370   8.577 -10.136  1.00  0.00     0.244 HD
ENDBRANCH   4  34
TORSDOF 13
ENDMDL
MODEL 3
REMARK VINA RESULT: -7.738276754      2.663      6.084
REMARK  13 active torsions:
REMARK  status: ('A' for Active; 'I' for Inactive)
REMARK    1  A    between atoms: C2_2  and  C3_3 
REMARK    2  A    between atoms: C2_2  and  C13_15 
REMARK    3  A    between atoms: C3_3  and  O1_4 
REMARK    4  A    between atoms: O1_4  and  C4_5 
REMARK    5  A    between atoms: C4_5  and  C5_7 
REMARK    6  A    between atoms: C5_7  and  C6_8 
REMARK    7  A    between atoms: C13_15  and  C15_17 
REMARK    8  A    between atoms: C16_18  and  C17_19 
REMARK    9  A    between atoms: C18_20  and  C19_21 
REMARK   10  A    between atoms: C19_21  and  C20_22 
REMARK   11  A    between atoms: N2_25  and  O3_27 
REMARK   12  A    between atoms: C22_30  and  O5_31 
REMARK   13  A    between atoms: C23_33  and  O6_34 
ROOT
HETATM    1  C20 UNL     1      49.022   5.070  -0.226  1.00  0.00     0.115 C 
HETATM    2  C21 UNL     1      48.796   5.958   0.898  1.00  0.00     0.115 C 
HETATM    3  N1  UNL     1      48.621   6.661   1.812  1.00  0.00    -0.190 NA
HETATM    4  N2  UNL     1      48.748   3.837  -0.086  1.00  0.00    -0.263 N 
ATOM      5  H2  UNL     1      48.370   3.556   0.819  1.00  0.00     0.194 HD
ENDROOT
BRANCH   1   6
HETATM    6  C19 UNL     1      49.581   5.673  -1.472  1.00  0.00     0.098 C 
BRANCH   6   7
HETATM    7  C18 UNL     1      48.769   6.758  -1.995  1.00  0.00    -0.017 C 
HETATM    8  C17 UNL     1      47.759   6.664  -2.808  1.00  0.00     0.034 C 
BRANCH   8   9
HETATM    9  C16 UNL     1      47.214   5.452  -3.376  1.00  0.00     0.088 A 
HETATM   10  C15 UNL     1      46.061   5.446  -4.197  1.00  0.00     0.022 A 
HETATM   11  C23 UNL     1      45.872   4.126  -4.528  1.00  0.00     0.134 A 
HETATM   12  C22 UNL     1      46.884   3.370  -3.922  1.00  0.00     0.218 A 
HETATM   13  O4  UNL     1      47.613   4.230  -3.275  1.00  0.00    -0.285 OA
BRANCH  10  14
HETATM   14  C13 UNL     1      45.264   6.620  -4.604  1.00  0.00     0.050 C 
HETATM   15  C14 UNL     1      43.801   6.227  -4.799  1.00  0.00     0.020 C 
BRANCH  14  16
HETATM   16  C2  UNL     1      45.680   7.136  -5.978  1.00  0.00    -0.057 C 
HETATM   17  C1  UNL     1      45.266   6.566  -7.062  1.00  0.00     0.017 C 
BRANCH  16  18
HETATM   18  C3  UNL     1      46.559   8.311  -5.951  1.00  0.00     0.213 C 
BRANCH  18  19
HETATM   19  O1  UNL     1      46.663   8.929  -4.722  1.00  0.00    -0.317 OA
BRANCH  19  20
HETATM   20  C4  UNL     1      47.355  10.070  -4.383  1.00  0.00     0.259 C 
HETATM   21  O2  UNL     1      48.154  10.531  -5.273  1.00  0.00    -0.265 OA
BRANCH  20  22
HETATM   22  C5  UNL     1      47.190  10.728  -3.085  1.00  0.00     0.116 C 
BRANCH  22  23
HETATM   23  C6  UNL     1      47.949  10.122  -1.946  1.00  0.00    -0.002 C 
HETATM   24  C7  UNL     1      49.337  10.649  -1.882  1.00  0.00     0.005 C 
HETATM   25  C8  UNL     1      50.113  10.107  -0.696  1.00  0.00     0.000 C 
HETATM   26  C9  UNL     1      49.249   9.851   0.500  1.00  0.00     0.000 C 
HETATM   27  C10 UNL     1      48.080  10.815   0.456  1.00  0.00     0.004 C 
HETATM   28  C11 UNL     1      47.175  10.344  -0.663  1.00  0.00    -0.014 C 
HETATM   29  C12 UNL     1      46.490   9.076  -0.200  1.00  0.00     0.010 C 
ENDBRANCH  22  23
ENDBRANCH  20  22
ENDBRANCH  19  20
ENDBRANCH  18  19
ENDBRANCH  16  18
ENDBRANCH  14  16
ENDBRANCH  10  14
BRANCH  11  30
HETATM   30  O6  UNL     1      44.864   3.601  -5.325  1.00  0.00    -0.356 OA
ATOM     31  H6  UNL     1      44.631   2.684  -5.421  1.00  0.00     0.218 HD
ENDBRANCH  11  30
BRANCH  12  32
HETATM   32  O5  UNL     1      47.023   1.995  -4.028  1.00  0.00    -0.339 OA
ATOM     33  H5  UNL     1      46.368   1.312  -3.942  1.00  0.00     0.220 HD
ENDBRANCH  12  32
ENDBRANCH   8   9
ENDBRANCH   6   7
ENDBRANCH   1   6
BRANCH   4  34
HETATM   34  O3  UNL     1      48.901   2.862  -1.000  1.00  0.00    -0.289 OA
ATOM     35  H3  UNL     1      48.299   2.152  -1.186  1.00  0.00     0.244 HD
ENDBRANCH   4  34
TORSDOF 13
ENDMDL
MODEL 4
REMARK VINA RESULT: -7.702970040      1.313      2.037
REMARK  13 active torsions:
REMARK  status: ('A' for Active; 'I' for Inactive)
REMARK    1  A    between atoms: C2_2  and  C3_3 
REMARK    2  A    between atoms: C2_2  and  C13_15 
REMARK    3  A    between atoms: C3_3  and  O1_4 
REMARK    4  A    between atoms: O1_4  and  C4_5 
REMARK    5  A    between atoms: C4_5  and  C5_7 
REMARK    6  A    between atoms: C5_7  and  C6_8 
REMARK    7  A    between atoms: C13_15  and  C15_17 
REMARK    8  A    between atoms: C16_18  and  C17_19 
REMARK    9  A    between atoms: C18_20  and  C19_21 
REMARK   10  A    between atoms: C19_21  and  C20_22 
REMARK   11  A    between atoms: N2_25  and  O3_27 
REMARK   12  A    between atoms: C22_30  and  O5_31 
REMARK   13  A    between atoms: C23_33  and  O6_34 
ROOT
HETATM    1  C20 UNL     1      48.347  11.190   0.744  1.00  0.00     0.115 C 
HETATM    2  C21 UNL     1      47.444  12.061   0.016  1.00  0.00     0.115 C 
HETATM    3  N1  UNL     1      46.717  12.771  -0.556  1.00  0.00    -0.190 NA
HETATM    4  N2  UNL     1      47.999  10.791   1.899  1.00  0.00    -0.263 N 
ATOM      5  H2  UNL     1      47.090  11.107   2.234  1.00  0.00     0.194 HD
ENDROOT
BRANCH   1   6
HETATM    6  C19 UNL     1      49.637  10.835   0.082  1.00  0.00     0.098 C 
BRANCH   6   7
HETATM    7  C18 UNL     1      49.459  10.170  -1.197  1.00  0.00    -0.017 C 
HETATM    8  C17 UNL     1      49.121   8.931  -1.399  1.00  0.00     0.034 C 
BRANCH   8   9
HETATM    9  C16 UNL     1      48.845   7.933  -0.392  1.00  0.00     0.088 A 
HETATM   10  C15 UNL     1      48.053   6.789  -0.650  1.00  0.00     0.022 A 
HETATM   11  C23 UNL     1      48.030   6.102   0.541  1.00  0.00     0.134 A 
HETATM   12  C22 UNL     1      48.787   6.817   1.477  1.00  0.00     0.218 A 
HETATM   13  O4  UNL     1      49.219   7.865   0.840  1.00  0.00    -0.285 OA
BRANCH  10  14
HETATM   14  C13 UNL     1      47.415   6.430  -1.931  1.00  0.00     0.050 C 
HETATM   15  C14 UNL     1      46.033   5.826  -1.686  1.00  0.00     0.020 C 
BRANCH  14  16
HETATM   16  C2  UNL     1      48.169   5.313  -2.644  1.00  0.00    -0.057 C 
HETATM   17  C1  UNL     1      49.443   5.157  -2.486  1.00  0.00     0.017 C 
BRANCH  16  18
HETATM   18  C3  UNL     1      47.335   4.454  -3.493  1.00  0.00     0.213 C 
BRANCH  18  19
HETATM   19  O1  UNL     1      47.251   4.850  -4.811  1.00  0.00    -0.317 OA
BRANCH  19  20
HETATM   20  C4  UNL     1      46.240   5.538  -5.445  1.00  0.00     0.259 C 
HETATM   21  O2  UNL     1      45.061   5.372  -4.971  1.00  0.00    -0.265 OA
BRANCH  20  22
HETATM   22  C5  UNL     1      46.489   6.412  -6.594  1.00  0.00     0.116 C 
BRANCH  22  23
HETATM   23  C6  UNL     1      46.413   7.883  -6.323  1.00  0.00    -0.002 C 
HETATM   24  C7  UNL     1      46.925   8.208  -4.967  1.00  0.00     0.005 C 
HETATM   25  C8  UNL     1      46.927   9.699  -4.686  1.00  0.00     0.000 C 
HETATM   26  C9  UNL     1      47.185  10.524  -5.909  1.00  0.00     0.000 C 
HETATM   27  C10 UNL     1      48.038   9.708  -6.859  1.00  0.00     0.004 C 
HETATM   28  C11 UNL     1      47.143   8.625  -7.423  1.00  0.00    -0.014 C 
HETATM   29  C12 UNL     1      46.177   9.281  -8.387  1.00  0.00     0.010 C 
ENDBRANCH  22  23
ENDBRANCH  20  22
ENDBRANCH  19  20
ENDBRANCH  18  19
ENDBRANCH  16  18
ENDBRANCH  14  16
ENDBRANCH  10  14
BRANCH  11  30
HETATM   30  O6  UNL     1      47.380   4.904   0.801  1.00  0.00    -0.356 OA
ATOM     31  H6  UNL     1      47.724   4.159   1.281  1.00  0.00     0.218 HD
ENDBRANCH  11  30
BRANCH  12  32
HETATM   32  O5  UNL     1      48.994   6.435   2.793  1.00  0.00    -0.339 OA
ATOM     33  H5  UNL     1      48.374   6.367   3.509  1.00  0.00     0.220 HD
ENDBRANCH  12  32
ENDBRANCH   8   9
ENDBRANCH   6   7
ENDBRANCH   1   6
BRANCH   4  34
HETATM   34  O3  UNL     1      48.700   9.997   2.728  1.00  0.00    -0.289 OA
ATOM     35  H3  UNL     1      48.366   9.505   3.469  1.00  0.00     0.244 HD
ENDBRANCH   4  34
TORSDOF 13
ENDMDL
MODEL 5
REMARK VINA RESULT: -7.649177909      1.882      2.790
REMARK  13 active torsions:
REMARK  status: ('A' for Active; 'I' for Inactive)
REMARK    1  A    between atoms: C2_2  and  C3_3 
REMARK    2  A    between atoms: C2_2  and  C13_15 
REMARK    3  A    between atoms: C3_3  and  O1_4 
REMARK    4  A    between atoms: O1_4  and  C4_5 
REMARK    5  A    between atoms: C4_5  and  C5_7 
REMARK    6  A    between atoms: C5_7  and  C6_8 
REMARK    7  A    between atoms: C13_15  and  C15_17 
REMARK    8  A    between atoms: C16_18  and  C17_19 
REMARK    9  A    between atoms: C18_20  and  C19_21 
REMARK   10  A    between atoms: C19_21  and  C20_22 
REMARK   11  A    between atoms: N2_25  and  O3_27 
REMARK   12  A    between atoms: C22_30  and  O5_31 
REMARK   13  A    between atoms: C23_33  and  O6_34 
ROOT
HETATM    1  C20 UNL     1      47.639  10.503   0.591  1.00  0.00     0.115 C 
HETATM    2  C21 UNL     1      47.226  11.695  -0.126  1.00  0.00     0.115 C 
HETATM    3  N1  UNL     1      46.910  12.658  -0.701  1.00  0.00    -0.190 NA
HETATM    4  N2  UNL     1      48.292  10.645   1.671  1.00  0.00    -0.263 N 
ATOM      5  H2  UNL     1      48.472  11.603   1.970  1.00  0.00     0.194 HD
ENDROOT
BRANCH   1   6
HETATM    6  C19 UNL     1      47.275   9.185  -0.008  1.00  0.00     0.098 C 
BRANCH   6   7
HETATM    7  C18 UNL     1      47.338   9.179  -1.459  1.00  0.00    -0.017 C 
HETATM    8  C17 UNL     1      47.705   8.197  -2.227  1.00  0.00     0.034 C 
BRANCH   8   9
HETATM    9  C16 UNL     1      48.135   6.883  -1.808  1.00  0.00     0.088 A 
HETATM   10  C15 UNL     1      47.368   5.718  -2.048  1.00  0.00     0.022 A 
HETATM   11  C23 UNL     1      48.107   4.693  -1.506  1.00  0.00     0.134 A 
HETATM   12  C22 UNL     1      49.277   5.235  -0.961  1.00  0.00     0.218 A 
HETATM   13  O4  UNL     1      49.202   6.513  -1.186  1.00  0.00    -0.285 OA
BRANCH  10  14
HETATM   14  C13 UNL     1      46.068   5.647  -2.744  1.00  0.00     0.050 C 
HETATM   15  C14 UNL     1      44.978   5.170  -1.787  1.00  0.00     0.020 C 
BRANCH  14  16
HETATM   16  C2  UNL     1      46.071   4.584  -3.838  1.00  0.00    -0.057 C 
HETATM   17  C1  UNL     1      45.161   3.666  -3.884  1.00  0.00     0.017 C 
BRANCH  16  18
HETATM   18  C3  UNL     1      47.165   4.705  -4.808  1.00  0.00     0.213 C 
BRANCH  18  19
HETATM   19  O1  UNL     1      47.038   5.752  -5.697  1.00  0.00    -0.317 OA
BRANCH  19  20
HETATM   20  C4  UNL     1      46.108   5.929  -6.697  1.00  0.00     0.259 C 
HETATM   21  O2  UNL     1      46.145   5.084  -7.660  1.00  0.00    -0.265 OA
BRANCH  20  22
HETATM   22  C5  UNL     1      45.127   7.017  -6.670  1.00  0.00     0.116 C 
BRANCH  22  23
HETATM   23  C6  UNL     1      45.690   8.404  -6.645  1.00  0.00    -0.002 C 
HETATM   24  C7  UNL     1      46.253   8.733  -5.310  1.00  0.00     0.005 C 
HETATM   25  C8  UNL     1      46.895  10.107  -5.271  1.00  0.00     0.000 C 
HETATM   26  C9  UNL     1      47.522  10.498  -6.574  1.00  0.00     0.000 C 
HETATM   27  C10 UNL     1      47.962   9.234  -7.285  1.00  0.00     0.004 C 
HETATM   28  C11 UNL     1      46.702   8.545  -7.764  1.00  0.00    -0.014 C 
HETATM   29  C12 UNL     1      46.146   9.352  -8.918  1.00  0.00     0.010 C 
ENDBRANCH  22  23
ENDBRANCH  20  22
ENDBRANCH  19  20
ENDBRANCH  18  19
ENDBRANCH  16  18
ENDBRANCH  14  16
ENDBRANCH  10  14
BRANCH  11  30
HETATM   30  O6  UNL     1      47.777   3.345  -1.487  1.00  0.00    -0.356 OA
ATOM     31  H6  UNL     1      48.040   2.684  -2.117  1.00  0.00     0.218 HD
ENDBRANCH  11  30
BRANCH  12  32
HETATM   32  O5  UNL     1      50.270   4.506  -0.325  1.00  0.00    -0.339 OA
ATOM     33  H5  UNL     1      51.190   4.418  -0.544  1.00  0.00     0.220 HD
ENDBRANCH  12  32
ENDBRANCH   8   9
ENDBRANCH   6   7
ENDBRANCH   1   6
BRANCH   4  34
HETATM   34  O3  UNL     1      48.770   9.670   2.465  1.00  0.00    -0.289 OA
ATOM     35  H3  UNL     1      49.662   9.571   2.777  1.00  0.00     0.244 HD
ENDBRANCH   4  34
TORSDOF 13
ENDMDL
