MODEL 1
REMARK VINA RESULT: -7.250949733      0.000      0.000
REMARK  12 active torsions:
REMARK  status: ('A' for Active; 'I' for Inactive)
REMARK    1  A    between atoms: C2_2  and  C3_3 
REMARK    2  A    between atoms: C3_3  and  C4_4 
REMARK    3  A    between atoms: C4_4  and  C5_5 
REMARK    4  A    between atoms: C5_5  and  O2_7 
REMARK    5  A    between atoms: O2_7  and  C6_8 
REMARK    6  A    between atoms: C6_8  and  C7_9 
REMARK    7  A    between atoms: C7_9  and  S1_10 
REMARK    8  A    between atoms: S1_10  and  C8_11 
REMARK    9  A    between atoms: C13_19  and  N2_20 
REMARK   10  A    between atoms: C15_26  and  C16_27 
REMARK   11  A    between atoms: C16_27  and  C17_28 
REMARK   12  A    between atoms: C17_28  and  O3_29 
ROOT
HETATM    1  C8  UNL     1      47.736   9.940  -2.266  1.00  0.00     0.146 A 
HETATM    2  N1  UNL     1      47.234   8.709  -2.107  1.00  0.00    -0.330 N 
ATOM      3  H1  UNL     1      47.185   8.299  -1.174  1.00  0.00     0.168 HD
HETATM    4  C9  UNL     1      46.783   7.993  -3.189  1.00  0.00     0.091 A 
HETATM    5  S2  UNL     1      46.127   6.430  -3.317  1.00  0.00    -0.075 SA
HETATM    6  C10 UNL     1      45.886   6.390  -5.024  1.00  0.00     0.001 A 
HETATM    7  C11 UNL     1      46.321   7.590  -5.429  1.00  0.00    -0.026 A 
HETATM    8  C12 UNL     1      46.807   8.457  -4.467  1.00  0.00     0.049 A 
HETATM    9  C13 UNL     1      47.348   9.756  -4.592  1.00  0.00     0.114 A 
HETATM   10  N3  UNL     1      47.784  10.430  -3.475  1.00  0.00    -0.323 N 
ATOM     11  H3  UNL     1      48.167  11.367  -3.598  1.00  0.00     0.169 HD
HETATM   12  C14 UNL     1      46.195   8.016  -6.904  1.00  0.00     0.056 C 
HETATM   13  C15 UNL     1      45.185   7.281  -7.660  1.00  0.00     0.054 C 
HETATM   14  S3  UNL     1      45.582   5.504  -7.560  1.00  0.00    -0.159 SA
HETATM   15  C18 UNL     1      45.356   5.228  -5.787  1.00  0.00     0.121 C 
ENDROOT
BRANCH   1  16
HETATM   16  S1  UNL     1      48.329  10.914  -0.889  1.00  0.00    -0.092 SA
BRANCH  16  17
HETATM   17  C7  UNL     1      47.496  10.314   0.606  1.00  0.00     0.109 C 
BRANCH  17  18
HETATM   18  C6  UNL     1      48.506  10.445   1.752  1.00  0.00     0.189 C 
BRANCH  18  19
HETATM   19  O2  UNL     1      48.777   9.141   2.184  1.00  0.00    -0.321 OA
BRANCH  19  20
HETATM   20  C5  UNL     1      49.483   8.206   1.463  1.00  0.00     0.258 C 
HETATM   21  O1  UNL     1      50.615   8.526   1.032  1.00  0.00    -0.265 OA
BRANCH  20  22
HETATM   22  C4  UNL     1      48.909   6.843   1.207  1.00  0.00     0.111 C 
BRANCH  22  23
HETATM   23  C3  UNL     1      49.092   6.491  -0.248  1.00  0.00     0.009 C 
BRANCH  23  24
HETATM   24  C2  UNL     1      49.471   5.048  -0.396  1.00  0.00    -0.004 C 
HETATM   25  C1  UNL     1      49.736   4.678  -1.818  1.00  0.00     0.005 C 
ENDBRANCH  23  24
ENDBRANCH  22  23
ENDBRANCH  20  22
ENDBRANCH  19  20
ENDBRANCH  18  19
ENDBRANCH  17  18
ENDBRANCH  16  17
ENDBRANCH   1  16
BRANCH   9  26
HETATM   26  N2  UNL     1      47.554  10.371  -5.652  1.00  0.00    -0.385 N 
ATOM     27  H22 UNL     1      48.513  10.703  -5.749  1.00  0.00     0.157 HD
ATOM     28  H21 UNL     1      46.888  10.505  -6.413  1.00  0.00     0.157 HD
ENDBRANCH   9  26
BRANCH  13  29
HETATM   29  C16 UNL     1      45.024   7.758  -9.047  1.00  0.00     0.041 C 
BRANCH  29  30
HETATM   30  C17 UNL     1      45.716   8.987  -9.478  1.00  0.00     0.165 C 
BRANCH  30  31
HETATM   31  O3  UNL     1      46.546   8.908 -10.569  1.00  0.00    -0.401 OA
ATOM     32  H3  UNL     1      47.321   9.458 -10.580  1.00  0.00     0.209 HD
ENDBRANCH  30  31
ENDBRANCH  29  30
ENDBRANCH  13  29
TORSDOF 12
ENDMDL
MODEL 2
REMARK VINA RESULT: -7.250218483      0.910      1.127
REMARK  12 active torsions:
REMARK  status: ('A' for Active; 'I' for Inactive)
REMARK    1  A    between atoms: C2_2  and  C3_3 
REMARK    2  A    between atoms: C3_3  and  C4_4 
REMARK    3  A    between atoms: C4_4  and  C5_5 
REMARK    4  A    between atoms: C5_5  and  O2_7 
REMARK    5  A    between atoms: O2_7  and  C6_8 
REMARK    6  A    between atoms: C6_8  and  C7_9 
REMARK    7  A    between atoms: C7_9  and  S1_10 
REMARK    8  A    between atoms: S1_10  and  C8_11 
REMARK    9  A    between atoms: C13_19  and  N2_20 
REMARK   10  A    between atoms: C15_26  and  C16_27 
REMARK   11  A    between atoms: C16_27  and  C17_28 
REMARK   12  A    between atoms: C17_28  and  O3_29 
ROOT
HETATM    1  C8  UNL     1      47.765   9.871  -2.026  1.00  0.00     0.146 A 
HETATM    2  N1  UNL     1      47.272   8.632  -1.904  1.00  0.00    -0.330 N 
ATOM      3  H1  UNL     1      47.228   8.193  -0.984  1.00  0.00     0.168 HD
HETATM    4  C9  UNL     1      46.826   7.946  -3.007  1.00  0.00     0.091 A 
HETATM    5  S2  UNL     1      46.183   6.382  -3.182  1.00  0.00    -0.075 SA
HETATM    6  C10 UNL     1      45.939   6.392  -4.890  1.00  0.00     0.001 A 
HETATM    7  C11 UNL     1      46.364   7.608  -5.258  1.00  0.00    -0.026 A 
HETATM    8  C12 UNL     1      46.845   8.449  -4.270  1.00  0.00     0.049 A 
HETATM    9  C13 UNL     1      47.375   9.756  -4.355  1.00  0.00     0.114 A 
HETATM   10  N3  UNL     1      47.807  10.399  -3.219  1.00  0.00    -0.323 N 
ATOM     11  H3  UNL     1      48.182  11.342  -3.314  1.00  0.00     0.169 HD
HETATM   12  C14 UNL     1      46.234   8.078  -6.718  1.00  0.00     0.056 C 
HETATM   13  C15 UNL     1      45.228   7.358  -7.496  1.00  0.00     0.054 C 
HETATM   14  S3  UNL     1      45.640   5.582  -7.451  1.00  0.00    -0.159 SA
HETATM   15  C18 UNL     1      45.418   5.251  -5.687  1.00  0.00     0.121 C 
ENDROOT
BRANCH   1  16
HETATM   16  S1  UNL     1      48.351  10.808  -0.619  1.00  0.00    -0.092 SA
BRANCH  16  17
HETATM   17  C7  UNL     1      50.068  10.312  -0.309  1.00  0.00     0.109 C 
BRANCH  17  18
HETATM   18  C6  UNL     1      50.026   9.270   0.815  1.00  0.00     0.189 C 
BRANCH  18  19
HETATM   19  O2  UNL     1      49.598   8.076   0.223  1.00  0.00    -0.321 OA
BRANCH  19  20
HETATM   20  C5  UNL     1      49.057   7.011   0.904  1.00  0.00     0.258 C 
HETATM   21  O1  UNL     1      49.094   7.032   2.156  1.00  0.00    -0.265 OA
BRANCH  20  22
HETATM   22  C4  UNL     1      48.440   5.861   0.164  1.00  0.00     0.111 C 
BRANCH  22  23
HETATM   23  C3  UNL     1      49.531   4.958  -0.354  1.00  0.00     0.009 C 
BRANCH  23  24
HETATM   24  C2  UNL     1      49.178   4.433  -1.713  1.00  0.00    -0.004 C 
HETATM   25  C1  UNL     1      50.157   4.865  -2.755  1.00  0.00     0.005 C 
ENDBRANCH  23  24
ENDBRANCH  22  23
ENDBRANCH  20  22
ENDBRANCH  19  20
ENDBRANCH  18  19
ENDBRANCH  17  18
ENDBRANCH  16  17
ENDBRANCH   1  16
BRANCH   9  26
HETATM   26  N2  UNL     1      47.575  10.404  -5.396  1.00  0.00    -0.385 N 
ATOM     27  H22 UNL     1      46.718  10.746  -5.832  1.00  0.00     0.157 HD
ATOM     28  H21 UNL     1      48.482  10.655  -5.789  1.00  0.00     0.157 HD
ENDBRANCH   9  26
BRANCH  13  29
HETATM   29  C16 UNL     1      45.062   7.876  -8.867  1.00  0.00     0.041 C 
BRANCH  29  30
HETATM   30  C17 UNL     1      45.822   9.067  -9.292  1.00  0.00     0.165 C 
BRANCH  30  31
HETATM   31  O3  UNL     1      46.594   8.966 -10.424  1.00  0.00    -0.401 OA
ATOM     32  H3  UNL     1      47.214   9.664 -10.603  1.00  0.00     0.209 HD
ENDBRANCH  30  31
ENDBRANCH  29  30
ENDBRANCH  13  29
TORSDOF 12
ENDMDL
MODEL 3
REMARK VINA RESULT: -7.179802606      1.975      2.894
REMARK  12 active torsions:
REMARK  status: ('A' for Active; 'I' for Inactive)
REMARK    1  A    between atoms: C2_2  and  C3_3 
REMARK    2  A    between atoms: C3_3  and  C4_4 
REMARK    3  A    between atoms: C4_4  and  C5_5 
REMARK    4  A    between atoms: C5_5  and  O2_7 
REMARK    5  A    between atoms: O2_7  and  C6_8 
REMARK    6  A    between atoms: C6_8  and  C7_9 
REMARK    7  A    between atoms: C7_9  and  S1_10 
REMARK    8  A    between atoms: S1_10  and  C8_11 
REMARK    9  A    between atoms: C13_19  and  N2_20 
REMARK   10  A    between atoms: C15_26  and  C16_27 
REMARK   11  A    between atoms: C16_27  and  C17_28 
REMARK   12  A    between atoms: C17_28  and  O3_29 
ROOT
HETATM    1  C8  UNL     1      47.927  10.018  -1.502  1.00  0.00     0.146 A 
HETATM    2  N1  UNL     1      48.068  10.608  -2.695  1.00  0.00    -0.330 N 
ATOM      3  H1  UNL     1      48.506  11.528  -2.756  1.00  0.00     0.168 HD
HETATM    4  C9  UNL     1      47.629   9.987  -3.839  1.00  0.00     0.091 A 
HETATM    5  S2  UNL     1      47.641  10.476  -5.466  1.00  0.00    -0.075 SA
HETATM    6  C10 UNL     1      46.880   9.090  -6.157  1.00  0.00     0.001 A 
HETATM    7  C11 UNL     1      46.648   8.301  -5.099  1.00  0.00    -0.026 A 
HETATM    8  C12 UNL     1      47.035   8.764  -3.855  1.00  0.00     0.049 A 
HETATM    9  C13 UNL     1      46.902   8.177  -2.576  1.00  0.00     0.114 A 
HETATM   10  N3  UNL     1      47.361   8.843  -1.463  1.00  0.00    -0.323 N 
ATOM     11  H3  UNL     1      47.252   8.392  -0.555  1.00  0.00     0.169 HD
HETATM   12  C14 UNL     1      46.054   6.893  -5.283  1.00  0.00     0.056 C 
HETATM   13  C15 UNL     1      46.229   6.334  -6.622  1.00  0.00     0.054 C 
HETATM   14  S3  UNL     1      45.477   7.486  -7.820  1.00  0.00    -0.159 SA
HETATM   15  C18 UNL     1      46.554   8.921  -7.598  1.00  0.00     0.121 C 
ENDROOT
BRANCH   1  16
HETATM   16  S1  UNL     1      48.489  10.783   0.014  1.00  0.00    -0.092 SA
BRANCH  16  17
HETATM   17  C7  UNL     1      50.038   9.972   0.495  1.00  0.00     0.109 C 
BRANCH  17  18
HETATM   18  C6  UNL     1      49.649   8.749   1.334  1.00  0.00     0.189 C 
BRANCH  18  19
HETATM   19  O2  UNL     1      49.687   7.652   0.465  1.00  0.00    -0.321 OA
BRANCH  19  20
HETATM   20  C5  UNL     1      49.018   6.468   0.665  1.00  0.00     0.258 C 
HETATM   21  O1  UNL     1      48.321   6.352   1.700  1.00  0.00    -0.265 OA
BRANCH  20  22
HETATM   22  C4  UNL     1      49.122   5.350  -0.332  1.00  0.00     0.111 C 
BRANCH  22  23
HETATM   23  C3  UNL     1      49.551   5.910  -1.665  1.00  0.00     0.009 C 
BRANCH  23  24
HETATM   24  C2  UNL     1      49.713   4.809  -2.669  1.00  0.00    -0.004 C 
HETATM   25  C1  UNL     1      48.477   4.599  -3.480  1.00  0.00     0.005 C 
ENDBRANCH  23  24
ENDBRANCH  22  23
ENDBRANCH  20  22
ENDBRANCH  19  20
ENDBRANCH  18  19
ENDBRANCH  17  18
ENDBRANCH  16  17
ENDBRANCH   1  16
BRANCH   9  26
HETATM   26  N2  UNL     1      46.327   7.108  -2.311  1.00  0.00    -0.385 N 
ATOM     27  H22 UNL     1      45.355   7.083  -2.619  1.00  0.00     0.157 HD
ATOM     28  H21 UNL     1      46.751   6.282  -1.888  1.00  0.00     0.157 HD
ENDBRANCH   9  26
BRANCH  13  29
HETATM   29  C16 UNL     1      45.725   4.954  -6.755  1.00  0.00     0.041 C 
BRANCH  29  30
HETATM   30  C17 UNL     1      45.349   4.442  -8.086  1.00  0.00     0.165 C 
BRANCH  30  31
HETATM   31  O3  UNL     1      46.283   3.714  -8.782  1.00  0.00    -0.401 OA
ATOM     32  H3  UNL     1      46.160   3.613  -9.719  1.00  0.00     0.209 HD
ENDBRANCH  30  31
ENDBRANCH  29  30
ENDBRANCH  13  29
TORSDOF 12
ENDMDL
MODEL 4
REMARK VINA RESULT: -7.061327998      2.274      3.888
REMARK  12 active torsions:
REMARK  status: ('A' for Active; 'I' for Inactive)
REMARK    1  A    between atoms: C2_2  and  C3_3 
REMARK    2  A    between atoms: C3_3  and  C4_4 
REMARK    3  A    between atoms: C4_4  and  C5_5 
REMARK    4  A    between atoms: C5_5  and  O2_7 
REMARK    5  A    between atoms: O2_7  and  C6_8 
REMARK    6  A    between atoms: C6_8  and  C7_9 
REMARK    7  A    between atoms: C7_9  and  S1_10 
REMARK    8  A    between atoms: S1_10  and  C8_11 
REMARK    9  A    between atoms: C13_19  and  N2_20 
REMARK   10  A    between atoms: C15_26  and  C16_27 
REMARK   11  A    between atoms: C16_27  and  C17_28 
REMARK   12  A    between atoms: C17_28  and  O3_29 
ROOT
HETATM    1  C8  UNL     1      47.164   8.804  -3.353  1.00  0.00     0.146 A 
HETATM    2  N1  UNL     1      47.459   9.590  -4.396  1.00  0.00    -0.330 N 
ATOM      3  H1  UNL     1      48.024  10.428  -4.254  1.00  0.00     0.168 HD
HETATM    4  C9  UNL     1      47.010   9.277  -5.656  1.00  0.00     0.091 A 
HETATM    5  S2  UNL     1      47.191  10.068  -7.149  1.00  0.00    -0.075 SA
HETATM    6  C10 UNL     1      46.290   8.973  -8.132  1.00  0.00     0.001 A 
HETATM    7  C11 UNL     1      45.886   8.035  -7.265  1.00  0.00    -0.026 A 
HETATM    8  C12 UNL     1      46.255   8.182  -5.940  1.00  0.00     0.049 A 
HETATM    9  C13 UNL     1      45.963   7.383  -4.812  1.00  0.00     0.114 A 
HETATM   10  N3  UNL     1      46.439   7.741  -3.572  1.00  0.00    -0.323 N 
ATOM     11  H3  UNL     1      46.212   7.142  -2.779  1.00  0.00     0.169 HD
HETATM   12  C14 UNL     1      45.115   6.794  -7.750  1.00  0.00     0.056 C 
HETATM   13  C15 UNL     1      45.294   6.489  -9.168  1.00  0.00     0.054 C 
HETATM   14  S3  UNL     1      44.785   7.952 -10.131  1.00  0.00    -0.159 SA
HETATM   15  C18 UNL     1      46.035   9.140  -9.587  1.00  0.00     0.121 C 
ENDROOT
BRANCH   1  16
HETATM   16  S1  UNL     1      47.731   9.165  -1.695  1.00  0.00    -0.092 SA
BRANCH  16  17
HETATM   17  C7  UNL     1      48.629   7.709  -1.094  1.00  0.00     0.109 C 
BRANCH  17  18
HETATM   18  C6  UNL     1      48.748   7.865   0.426  1.00  0.00     0.189 C 
BRANCH  18  19
HETATM   19  O2  UNL     1      50.105   8.089   0.689  1.00  0.00    -0.321 OA
BRANCH  19  20
HETATM   20  C5  UNL     1      50.619   9.241   1.237  1.00  0.00     0.258 C 
HETATM   21  O1  UNL     1      51.761   9.191   1.750  1.00  0.00    -0.265 OA
BRANCH  20  22
HETATM   22  C4  UNL     1      49.830  10.518   1.215  1.00  0.00     0.111 C 
BRANCH  22  23
HETATM   23  C3  UNL     1      49.245  10.766   2.583  1.00  0.00     0.009 C 
BRANCH  23  24
HETATM   24  C2  UNL     1      47.918  11.455   2.469  1.00  0.00    -0.004 C 
HETATM   25  C1  UNL     1      47.592  11.820   1.059  1.00  0.00     0.005 C 
ENDBRANCH  23  24
ENDBRANCH  22  23
ENDBRANCH  20  22
ENDBRANCH  19  20
ENDBRANCH  18  19
ENDBRANCH  17  18
ENDBRANCH  16  17
ENDBRANCH   1  16
BRANCH   9  26
HETATM   26  N2  UNL     1      45.230   6.380  -4.789  1.00  0.00    -0.385 N 
ATOM     27  H22 UNL     1      44.278   6.565  -5.105  1.00  0.00     0.157 HD
ATOM     28  H21 UNL     1      45.513   5.429  -4.550  1.00  0.00     0.157 HD
ENDBRANCH   9  26
BRANCH  13  29
HETATM   29  C16 UNL     1      44.613   5.253  -9.595  1.00  0.00     0.041 C 
BRANCH  29  30
HETATM   30  C17 UNL     1      45.415   4.078  -9.986  1.00  0.00     0.165 C 
BRANCH  30  31
HETATM   31  O3  UNL     1      46.337   3.601  -9.087  1.00  0.00    -0.401 OA
ATOM     32  H3  UNL     1      46.728   2.753  -9.260  1.00  0.00     0.209 HD
ENDBRANCH  30  31
ENDBRANCH  29  30
ENDBRANCH  13  29
TORSDOF 12
ENDMDL
MODEL 5
REMARK VINA RESULT: -6.824319554      1.447      1.787
REMARK  12 active torsions:
REMARK  status: ('A' for Active; 'I' for Inactive)
REMARK    1  A    between atoms: C2_2  and  C3_3 
REMARK    2  A    between atoms: C3_3  and  C4_4 
REMARK    3  A    between atoms: C4_4  and  C5_5 
REMARK    4  A    between atoms: C5_5  and  O2_7 
REMARK    5  A    between atoms: O2_7  and  C6_8 
REMARK    6  A    between atoms: C6_8  and  C7_9 
REMARK    7  A    between atoms: C7_9  and  S1_10 
REMARK    8  A    between atoms: S1_10  and  C8_11 
REMARK    9  A    between atoms: C13_19  and  N2_20 
REMARK   10  A    between atoms: C15_26  and  C16_27 
REMARK   11  A    between atoms: C16_27  and  C17_28 
REMARK   12  A    between atoms: C17_28  and  O3_29 
ROOT
HETATM    1  C8  UNL     1      47.665   9.805  -2.178  1.00  0.00     0.146 A 
HETATM    2  N1  UNL     1      47.160   8.570  -2.061  1.00  0.00    -0.330 N 
ATOM      3  H1  UNL     1      47.101   8.133  -1.141  1.00  0.00     0.168 HD
HETATM    4  C9  UNL     1      46.720   7.887  -3.168  1.00  0.00     0.091 A 
HETATM    5  S2  UNL     1      46.065   6.330  -3.349  1.00  0.00    -0.075 SA
HETATM    6  C10 UNL     1      45.842   6.341  -5.060  1.00  0.00     0.001 A 
HETATM    7  C11 UNL     1      46.281   7.553  -5.424  1.00  0.00    -0.026 A 
HETATM    8  C12 UNL     1      46.758   8.389  -4.431  1.00  0.00     0.049 A 
HETATM    9  C13 UNL     1      47.301   9.692  -4.512  1.00  0.00     0.114 A 
HETATM   10  N3  UNL     1      47.726  10.332  -3.370  1.00  0.00    -0.323 N 
ATOM     11  H3  UNL     1      48.110  11.272  -3.462  1.00  0.00     0.169 HD
HETATM   12  C14 UNL     1      46.172   8.023  -6.886  1.00  0.00     0.056 C 
HETATM   13  C15 UNL     1      45.169   7.311  -7.675  1.00  0.00     0.054 C 
HETATM   14  S3  UNL     1      45.565   5.532  -7.624  1.00  0.00    -0.159 SA
HETATM   15  C18 UNL     1      45.320   5.203  -5.863  1.00  0.00     0.121 C 
ENDROOT
BRANCH   1  16
HETATM   16  S1  UNL     1      48.244  10.738  -0.765  1.00  0.00    -0.092 SA
BRANCH  16  17
HETATM   17  C7  UNL     1      49.960  10.244  -0.449  1.00  0.00     0.109 C 
BRANCH  17  18
HETATM   18  C6  UNL     1      49.918   9.228   0.698  1.00  0.00     0.189 C 
BRANCH  18  19
HETATM   19  O2  UNL     1      49.460   8.029   0.140  1.00  0.00    -0.321 OA
BRANCH  19  20
HETATM   20  C5  UNL     1      48.940   6.977   0.857  1.00  0.00     0.258 C 
HETATM   21  O1  UNL     1      49.099   6.975   2.100  1.00  0.00    -0.265 OA
BRANCH  20  22
HETATM   22  C4  UNL     1      48.201   5.869   0.166  1.00  0.00     0.111 C 
BRANCH  22  23
HETATM   23  C3  UNL     1      47.039   5.433   1.023  1.00  0.00     0.009 C 
BRANCH  23  24
HETATM   24  C2  UNL     1      45.739   5.783   0.362  1.00  0.00    -0.004 C 
HETATM   25  C1  UNL     1      44.563   5.263   1.121  1.00  0.00     0.005 C 
ENDBRANCH  23  24
ENDBRANCH  22  23
ENDBRANCH  20  22
ENDBRANCH  19  20
ENDBRANCH  18  19
ENDBRANCH  17  18
ENDBRANCH  16  17
ENDBRANCH   1  16
BRANCH   9  26
HETATM   26  N2  UNL     1      47.518  10.338  -5.550  1.00  0.00    -0.385 N 
ATOM     27  H22 UNL     1      48.353  10.922  -5.499  1.00  0.00     0.157 HD
ATOM     28  H21 UNL     1      46.988  10.282  -6.420  1.00  0.00     0.157 HD
ENDBRANCH   9  26
BRANCH  13  29
HETATM   29  C16 UNL     1      45.023   7.830  -9.048  1.00  0.00     0.041 C 
BRANCH  29  30
HETATM   30  C17 UNL     1      45.750   9.050  -9.446  1.00  0.00     0.165 C 
BRANCH  30  31
HETATM   31  O3  UNL     1      46.569   8.980 -10.546  1.00  0.00    -0.401 OA
ATOM     32  H3  UNL     1      47.337   8.424 -10.493  1.00  0.00     0.209 HD
ENDBRANCH  30  31
ENDBRANCH  29  30
ENDBRANCH  13  29
TORSDOF 12
ENDMDL
