MODEL 1
REMARK VINA RESULT: -6.823990781      0.000      0.000
REMARK  12 active torsions:
REMARK  status: ('A' for Active; 'I' for Inactive)
REMARK    1  A    between atoms: O1_2  and  C2_3 
REMARK    2  A    between atoms: C2_3  and  C3_4 
REMARK    3  A    between atoms: C3_4  and  C4_5 
REMARK    4  A    between atoms: C4_5  and  O2_7 
REMARK    5  A    between atoms: O2_7  and  S1_8 
REMARK    6  A    between atoms: S1_8  and  C6_11 
REMARK    7  A    between atoms: C10_15  and  N1_16 
REMARK    8  A    between atoms: C11_18  and  C12_19 
REMARK    9  A    between atoms: C18_25  and  C19_26 
REMARK   10  A    between atoms: N2_27  and  O5_29 
REMARK   11  A    between atoms: O5_29  and  C20_30 
REMARK   12  A    between atoms: C20_30  and  O6_34 
ROOT
HETATM    1  C6  UNL     1      47.343   5.140  -2.477  1.00  0.00     0.100 A 
HETATM    2  C7  UNL     1      48.490   4.645  -3.062  1.00  0.00     0.027 A 
HETATM    3  C8  UNL     1      49.675   4.579  -2.367  1.00  0.00     0.004 A 
HETATM    4  C9  UNL     1      49.709   5.023  -1.047  1.00  0.00     0.030 A 
HETATM    5  C10 UNL     1      48.594   5.524  -0.420  1.00  0.00     0.045 A 
HETATM    6  C18 UNL     1      47.414   5.572  -1.161  1.00  0.00     0.032 A 
ENDROOT
BRANCH   1   7
HETATM    7  S1  UNL     1      45.859   5.208  -3.403  1.00  0.00     0.299 S 
HETATM    8  O3  UNL     1      46.108   4.478  -4.702  1.00  0.00    -0.193 OA
HETATM    9  O4  UNL     1      44.753   4.514  -2.660  1.00  0.00    -0.193 OA
BRANCH   7  10
HETATM   10  O2  UNL     1      45.497   6.815  -3.684  1.00  0.00    -0.267 OA
BRANCH  10  11
HETATM   11  C4  UNL     1      46.530   7.536  -4.225  1.00  0.00     0.140 C 
HETATM   12  C5  UNL     1      47.072   8.600  -3.295  1.00  0.00     0.041 C 
BRANCH  11  13
HETATM   13  C3  UNL     1      46.188   8.161  -5.573  1.00  0.00     0.059 C 
BRANCH  13  14
HETATM   14  C2  UNL     1      46.577   9.617  -5.574  1.00  0.00     0.169 C 
BRANCH  14  15
HETATM   15  O1  UNL     1      47.606   9.891  -6.441  1.00  0.00    -0.396 OA
HETATM   16  C1  UNL     1      48.457  10.873  -6.016  1.00  0.00     0.201 C 
ENDBRANCH  14  15
ENDBRANCH  13  14
ENDBRANCH  11  13
ENDBRANCH  10  11
ENDBRANCH   7  10
ENDBRANCH   1   7
BRANCH   6  17
HETATM   17  C19 UNL     1      46.231   6.090  -0.533  1.00  0.00     0.130 C 
HETATM   18  N2  UNL     1      45.432   5.334   0.148  1.00  0.00    -0.267 N 
ATOM     19  H2  UNL     1      45.650   4.342   0.241  1.00  0.00     0.194 HD
BRANCH  18  20
HETATM   20  O5  UNL     1      44.318   5.818   0.741  1.00  0.00    -0.195 OA
BRANCH  20  21
HETATM   21  C20 UNL     1      43.041   5.352   0.484  1.00  0.00     0.278 C 
HETATM   22  N3  UNL     1      42.875   4.281  -0.189  1.00  0.00    -0.358 N 
ATOM     23  H32 UNL     1      43.714   3.804  -0.518  1.00  0.00     0.160 HD
ATOM     24  H31 UNL     1      41.933   3.937  -0.379  1.00  0.00     0.160 HD
BRANCH  21  25
HETATM   25  O6  UNL     1      41.894   6.004   0.935  1.00  0.00    -0.326 OA
ATOM     26  H6  UNL     1      41.030   5.612   0.894  1.00  0.00     0.221 HD
ENDBRANCH  21  25
ENDBRANCH  20  21
ENDBRANCH  18  20
ENDBRANCH   6  17
BRANCH   5  27
HETATM   27  N1  UNL     1      48.674   5.956   0.904  1.00  0.00    -0.368 N 
HETATM   28  C11 UNL     1      48.941   7.095   1.372  1.00  0.00     0.066 C 
ATOM     29  H1  UNL     1      48.487   5.237   1.603  1.00  0.00     0.165 HD
BRANCH  28  30
HETATM   30  C12 UNL     1      49.252   8.325   0.633  1.00  0.00     0.024 C 
HETATM   31  C13 UNL     1      50.340   9.068   1.396  1.00  0.00     0.010 C 
HETATM   32  C14 UNL     1      51.002   9.998   0.396  1.00  0.00     0.001 C 
HETATM   33  C15 UNL     1      49.984  10.389  -0.632  1.00  0.00     0.000 C 
HETATM   34  C16 UNL     1      48.591  10.564  -0.047  1.00  0.00     0.001 C 
HETATM   35  C17 UNL     1      48.072   9.276   0.560  1.00  0.00     0.010 C 
ENDBRANCH  28  30
ENDBRANCH   5  27
TORSDOF 12
ENDMDL
MODEL 2
REMARK VINA RESULT: -6.769143729      3.694      7.103
REMARK  12 active torsions:
REMARK  status: ('A' for Active; 'I' for Inactive)
REMARK    1  A    between atoms: O1_2  and  C2_3 
REMARK    2  A    between atoms: C2_3  and  C3_4 
REMARK    3  A    between atoms: C3_4  and  C4_5 
REMARK    4  A    between atoms: C4_5  and  O2_7 
REMARK    5  A    between atoms: O2_7  and  S1_8 
REMARK    6  A    between atoms: S1_8  and  C6_11 
REMARK    7  A    between atoms: C10_15  and  N1_16 
REMARK    8  A    between atoms: C11_18  and  C12_19 
REMARK    9  A    between atoms: C18_25  and  C19_26 
REMARK   10  A    between atoms: N2_27  and  O5_29 
REMARK   11  A    between atoms: O5_29  and  C20_30 
REMARK   12  A    between atoms: C20_30  and  O6_34 
ROOT
HETATM    1  C6  UNL     1      48.058   8.821  -2.103  1.00  0.00     0.100 A 
HETATM    2  C7  UNL     1      48.766   8.170  -1.114  1.00  0.00     0.027 A 
HETATM    3  C8  UNL     1      48.876   6.799  -1.100  1.00  0.00     0.004 A 
HETATM    4  C9  UNL     1      48.259   6.062  -2.109  1.00  0.00     0.030 A 
HETATM    5  C10 UNL     1      47.544   6.664  -3.115  1.00  0.00     0.045 A 
HETATM    6  C18 UNL     1      47.458   8.055  -3.091  1.00  0.00     0.032 A 
ENDROOT
BRANCH   1   7
HETATM    7  S1  UNL     1      47.942  10.568  -2.077  1.00  0.00     0.299 S 
HETATM    8  O3  UNL     1      48.722  11.087  -3.262  1.00  0.00    -0.193 OA
HETATM    9  O4  UNL     1      46.508  10.994  -2.213  1.00  0.00    -0.193 OA
BRANCH   7  10
HETATM   10  O2  UNL     1      48.610  11.110  -0.643  1.00  0.00    -0.267 OA
BRANCH  10  11
HETATM   11  C4  UNL     1      47.712  11.221   0.387  1.00  0.00     0.140 C 
HETATM   12  C5  UNL     1      47.335  12.651   0.704  1.00  0.00     0.041 C 
BRANCH  11  13
HETATM   13  C3  UNL     1      48.166  10.517   1.661  1.00  0.00     0.059 C 
BRANCH  13  14
HETATM   14  C2  UNL     1      49.642  10.735   1.866  1.00  0.00     0.169 C 
BRANCH  14  15
HETATM   15  O1  UNL     1      50.374   9.580   1.729  1.00  0.00    -0.396 OA
HETATM   16  C1  UNL     1      51.481   9.704   0.935  1.00  0.00     0.201 C 
ENDBRANCH  14  15
ENDBRANCH  13  14
ENDBRANCH  11  13
ENDBRANCH  10  11
ENDBRANCH   7  10
ENDBRANCH   1   7
BRANCH   6  17
HETATM   17  C19 UNL     1      46.717   8.714  -4.130  1.00  0.00     0.130 C 
HETATM   18  N2  UNL     1      47.291   9.162  -5.199  1.00  0.00    -0.267 N 
ATOM     19  H2  UNL     1      48.299   9.044  -5.305  1.00  0.00     0.194 HD
BRANCH  18  20
HETATM   20  O5  UNL     1      46.599   9.783  -6.180  1.00  0.00    -0.195 OA
BRANCH  20  21
HETATM   21  C20 UNL     1      47.176  10.595  -7.139  1.00  0.00     0.278 C 
HETATM   22  N3  UNL     1      46.957  10.378  -8.376  1.00  0.00    -0.358 N 
ATOM     23  H32 UNL     1      46.351   9.593  -8.610  1.00  0.00     0.160 HD
ATOM     24  H31 UNL     1      47.383  10.977  -9.084  1.00  0.00     0.160 HD
BRANCH  21  25
HETATM   25  O6  UNL     1      48.005  11.669  -6.819  1.00  0.00    -0.326 OA
ATOM     26  H6  UNL     1      48.859  11.796  -7.216  1.00  0.00     0.221 HD
ENDBRANCH  21  25
ENDBRANCH  20  21
ENDBRANCH  18  20
ENDBRANCH   6  17
BRANCH   5  27
HETATM   27  N1  UNL     1      46.943   5.886  -4.104  1.00  0.00    -0.368 N 
HETATM   28  C11 UNL     1      45.872   5.222  -4.078  1.00  0.00     0.066 C 
ATOM     29  H1  UNL     1      47.450   5.848  -4.989  1.00  0.00     0.165 HD
BRANCH  28  30
HETATM   30  C12 UNL     1      44.927   5.077  -2.963  1.00  0.00     0.024 C 
HETATM   31  C13 UNL     1      45.265   3.787  -2.228  1.00  0.00     0.010 C 
HETATM   32  C14 UNL     1      44.674   3.923  -0.837  1.00  0.00     0.001 C 
HETATM   33  C15 UNL     1      43.461   4.799  -0.922  1.00  0.00     0.000 C 
HETATM   34  C16 UNL     1      42.670   4.589  -2.203  1.00  0.00     0.001 C 
HETATM   35  C17 UNL     1      43.492   4.925  -3.431  1.00  0.00     0.010 C 
ENDBRANCH  28  30
ENDBRANCH   5  27
TORSDOF 12
ENDMDL
MODEL 3
REMARK VINA RESULT: -6.711494298      3.241      6.273
REMARK  12 active torsions:
REMARK  status: ('A' for Active; 'I' for Inactive)
REMARK    1  A    between atoms: O1_2  and  C2_3 
REMARK    2  A    between atoms: C2_3  and  C3_4 
REMARK    3  A    between atoms: C3_4  and  C4_5 
REMARK    4  A    between atoms: C4_5  and  O2_7 
REMARK    5  A    between atoms: O2_7  and  S1_8 
REMARK    6  A    between atoms: S1_8  and  C6_11 
REMARK    7  A    between atoms: C10_15  and  N1_16 
REMARK    8  A    between atoms: C11_18  and  C12_19 
REMARK    9  A    between atoms: C18_25  and  C19_26 
REMARK   10  A    between atoms: N2_27  and  O5_29 
REMARK   11  A    between atoms: O5_29  and  C20_30 
REMARK   12  A    between atoms: C20_30  and  O6_34 
ROOT
HETATM    1  C6  UNL     1      48.179   6.053  -1.996  1.00  0.00     0.100 A 
HETATM    2  C7  UNL     1      48.745   4.969  -2.634  1.00  0.00     0.027 A 
HETATM    3  C8  UNL     1      48.192   4.445  -3.778  1.00  0.00     0.004 A 
HETATM    4  C9  UNL     1      47.037   5.027  -4.298  1.00  0.00     0.030 A 
HETATM    5  C10 UNL     1      46.436   6.108  -3.700  1.00  0.00     0.045 A 
HETATM    6  C18 UNL     1      47.030   6.607  -2.542  1.00  0.00     0.032 A 
ENDROOT
BRANCH   1   7
HETATM    7  S1  UNL     1      48.917   6.683  -0.538  1.00  0.00     0.299 S 
HETATM    8  O3  UNL     1      47.798   7.081   0.395  1.00  0.00    -0.193 OA
HETATM    9  O4  UNL     1      49.747   5.619   0.123  1.00  0.00    -0.193 OA
BRANCH   7  10
HETATM   10  O2  UNL     1      49.841   8.011  -0.958  1.00  0.00    -0.267 OA
BRANCH  10  11
HETATM   11  C4  UNL     1      49.669   9.096  -0.138  1.00  0.00     0.140 C 
HETATM   12  C5  UNL     1      50.243  10.376  -0.705  1.00  0.00     0.041 C 
BRANCH  11  13
HETATM   13  C3  UNL     1      50.204   8.876   1.273  1.00  0.00     0.059 C 
BRANCH  13  14
HETATM   14  C2  UNL     1      49.879  10.070   2.134  1.00  0.00     0.169 C 
BRANCH  14  15
HETATM   15  O1  UNL     1      48.548  10.138   2.465  1.00  0.00    -0.396 OA
HETATM   16  C1  UNL     1      47.993  11.380   2.319  1.00  0.00     0.201 C 
ENDBRANCH  14  15
ENDBRANCH  13  14
ENDBRANCH  11  13
ENDBRANCH  10  11
ENDBRANCH   7  10
ENDBRANCH   1   7
BRANCH   6  17
HETATM   17  C19 UNL     1      46.425   7.737  -1.893  1.00  0.00     0.130 C 
HETATM   18  N2  UNL     1      46.952   8.917  -1.944  1.00  0.00    -0.267 N 
ATOM     19  H2  UNL     1      47.823   9.047  -2.460  1.00  0.00     0.194 HD
BRANCH  18  20
HETATM   20  O5  UNL     1      46.387   9.983  -1.337  1.00  0.00    -0.195 OA
BRANCH  20  21
HETATM   21  C20 UNL     1      46.783  11.291  -1.544  1.00  0.00     0.278 C 
HETATM   22  N3  UNL     1      47.716  11.553  -2.374  1.00  0.00    -0.358 N 
ATOM     23  H32 UNL     1      48.140  10.764  -2.860  1.00  0.00     0.160 HD
ATOM     24  H31 UNL     1      48.009  12.519  -2.527  1.00  0.00     0.160 HD
BRANCH  21  25
HETATM   25  O6  UNL     1      46.203  12.371  -0.879  1.00  0.00    -0.326 OA
ATOM     26  H6  UNL     1      46.457  12.631  -0.001  1.00  0.00     0.221 HD
ENDBRANCH  21  25
ENDBRANCH  20  21
ENDBRANCH  18  20
ENDBRANCH   6  17
BRANCH   5  27
HETATM   27  N1  UNL     1      45.281   6.658  -4.255  1.00  0.00    -0.368 N 
HETATM   28  C11 UNL     1      45.147   7.523  -5.160  1.00  0.00     0.066 C 
ATOM     29  H1  UNL     1      44.406   6.304  -3.866  1.00  0.00     0.165 HD
BRANCH  28  30
HETATM   30  C12 UNL     1      46.202   8.218  -5.909  1.00  0.00     0.024 C 
HETATM   31  C13 UNL     1      46.307   9.636  -5.366  1.00  0.00     0.010 C 
HETATM   32  C14 UNL     1      47.688  10.136  -5.745  1.00  0.00     0.001 C 
HETATM   33  C15 UNL     1      48.102   9.465  -7.020  1.00  0.00     0.000 C 
HETATM   34  C16 UNL     1      46.941   9.256  -7.980  1.00  0.00     0.001 C 
HETATM   35  C17 UNL     1      45.874   8.360  -7.384  1.00  0.00     0.010 C 
ENDBRANCH  28  30
ENDBRANCH   5  27
TORSDOF 12
ENDMDL
MODEL 4
REMARK VINA RESULT: -6.636753478      0.807      1.083
REMARK  12 active torsions:
REMARK  status: ('A' for Active; 'I' for Inactive)
REMARK    1  A    between atoms: O1_2  and  C2_3 
REMARK    2  A    between atoms: C2_3  and  C3_4 
REMARK    3  A    between atoms: C3_4  and  C4_5 
REMARK    4  A    between atoms: C4_5  and  O2_7 
REMARK    5  A    between atoms: O2_7  and  S1_8 
REMARK    6  A    between atoms: S1_8  and  C6_11 
REMARK    7  A    between atoms: C10_15  and  N1_16 
REMARK    8  A    between atoms: C11_18  and  C12_19 
REMARK    9  A    between atoms: C18_25  and  C19_26 
REMARK   10  A    between atoms: N2_27  and  O5_29 
REMARK   11  A    between atoms: O5_29  and  C20_30 
REMARK   12  A    between atoms: C20_30  and  O6_34 
ROOT
HETATM    1  C6  UNL     1      47.169   5.115  -2.617  1.00  0.00     0.100 A 
HETATM    2  C7  UNL     1      48.306   4.637  -3.237  1.00  0.00     0.027 A 
HETATM    3  C8  UNL     1      49.504   4.559  -2.568  1.00  0.00     0.004 A 
HETATM    4  C9  UNL     1      49.564   4.973  -1.239  1.00  0.00     0.030 A 
HETATM    5  C10 UNL     1      48.461   5.455  -0.578  1.00  0.00     0.045 A 
HETATM    6  C18 UNL     1      47.266   5.517  -1.293  1.00  0.00     0.032 A 
ENDROOT
BRANCH   1   7
HETATM    7  S1  UNL     1      45.666   5.200  -3.510  1.00  0.00     0.299 S 
HETATM    8  O3  UNL     1      45.879   4.468  -4.814  1.00  0.00    -0.193 OA
HETATM    9  O4  UNL     1      44.569   4.518  -2.743  1.00  0.00    -0.193 OA
BRANCH   7  10
HETATM   10  O2  UNL     1      45.316   6.811  -3.783  1.00  0.00    -0.267 OA
BRANCH  10  11
HETATM   11  C4  UNL     1      46.228   7.456  -4.578  1.00  0.00     0.140 C 
HETATM   12  C5  UNL     1      47.038   8.499  -3.840  1.00  0.00     0.041 C 
BRANCH  11  13
HETATM   13  C3  UNL     1      45.609   8.077  -5.825  1.00  0.00     0.059 C 
BRANCH  13  14
HETATM   14  C2  UNL     1      46.696   8.502  -6.778  1.00  0.00     0.169 C 
BRANCH  14  15
HETATM   15  O1  UNL     1      46.218   8.801  -8.030  1.00  0.00    -0.396 OA
HETATM   16  C1  UNL     1      45.273   7.930  -8.497  1.00  0.00     0.201 C 
ENDBRANCH  14  15
ENDBRANCH  13  14
ENDBRANCH  11  13
ENDBRANCH  10  11
ENDBRANCH   7  10
ENDBRANCH   1   7
BRANCH   6  17
HETATM   17  C19 UNL     1      46.096   6.017  -0.629  1.00  0.00     0.130 C 
HETATM   18  N2  UNL     1      45.314   5.244   0.054  1.00  0.00    -0.267 N 
ATOM     19  H2  UNL     1      45.538   4.251   0.121  1.00  0.00     0.194 HD
BRANCH  18  20
HETATM   20  O5  UNL     1      44.212   5.710   0.681  1.00  0.00    -0.195 OA
BRANCH  20  21
HETATM   21  C20 UNL     1      42.927   5.277   0.408  1.00  0.00     0.278 C 
HETATM   22  N3  UNL     1      42.740   4.213  -0.270  1.00  0.00    -0.358 N 
ATOM     23  H32 UNL     1      43.570   3.715  -0.590  1.00  0.00     0.160 HD
ATOM     24  H31 UNL     1      41.792   3.894  -0.471  1.00  0.00     0.160 HD
BRANCH  21  25
HETATM   25  O6  UNL     1      41.792   5.958   0.847  1.00  0.00    -0.326 OA
ATOM     26  H6  UNL     1      41.654   6.197   1.756  1.00  0.00     0.221 HD
ENDBRANCH  21  25
ENDBRANCH  20  21
ENDBRANCH  18  20
ENDBRANCH   6  17
BRANCH   5  27
HETATM   27  N1  UNL     1      48.568   5.857   0.754  1.00  0.00    -0.368 N 
HETATM   28  C11 UNL     1      48.866   6.979   1.242  1.00  0.00     0.066 C 
ATOM     29  H1  UNL     1      48.375   5.127   1.440  1.00  0.00     0.165 HD
BRANCH  28  30
HETATM   30  C12 UNL     1      49.194   8.218   0.526  1.00  0.00     0.024 C 
HETATM   31  C13 UNL     1      50.217   8.982   1.355  1.00  0.00     0.010 C 
HETATM   32  C14 UNL     1      50.918   9.929   0.399  1.00  0.00     0.001 C 
HETATM   33  C15 UNL     1      49.957  10.301  -0.689  1.00  0.00     0.000 C 
HETATM   34  C16 UNL     1      48.527  10.444  -0.190  1.00  0.00     0.001 C 
HETATM   35  C17 UNL     1      48.001   9.144   0.382  1.00  0.00     0.010 C 
ENDBRANCH  28  30
ENDBRANCH   5  27
TORSDOF 12
ENDMDL
MODEL 5
REMARK VINA RESULT: -6.629761392      3.763      5.989
REMARK  12 active torsions:
REMARK  status: ('A' for Active; 'I' for Inactive)
REMARK    1  A    between atoms: O1_2  and  C2_3 
REMARK    2  A    between atoms: C2_3  and  C3_4 
REMARK    3  A    between atoms: C3_4  and  C4_5 
REMARK    4  A    between atoms: C4_5  and  O2_7 
REMARK    5  A    between atoms: O2_7  and  S1_8 
REMARK    6  A    between atoms: S1_8  and  C6_11 
REMARK    7  A    between atoms: C10_15  and  N1_16 
REMARK    8  A    between atoms: C11_18  and  C12_19 
REMARK    9  A    between atoms: C18_25  and  C19_26 
REMARK   10  A    between atoms: N2_27  and  O5_29 
REMARK   11  A    between atoms: O5_29  and  C20_30 
REMARK   12  A    between atoms: C20_30  and  O6_34 
ROOT
HETATM    1  C6  UNL     1      46.290   6.662  -4.473  1.00  0.00     0.100 A 
HETATM    2  C7  UNL     1      46.607   5.943  -3.339  1.00  0.00     0.027 A 
HETATM    3  C8  UNL     1      47.216   6.542  -2.261  1.00  0.00     0.004 A 
HETATM    4  C9  UNL     1      47.515   7.902  -2.324  1.00  0.00     0.030 A 
HETATM    5  C10 UNL     1      47.219   8.660  -3.430  1.00  0.00     0.045 A 
HETATM    6  C18 UNL     1      46.602   8.014  -4.500  1.00  0.00     0.032 A 
ENDROOT
BRANCH   1   7
HETATM    7  S1  UNL     1      45.519   5.855  -5.822  1.00  0.00     0.299 S 
HETATM    8  O3  UNL     1      44.433   6.774  -6.331  1.00  0.00    -0.193 OA
HETATM    9  O4  UNL     1      46.514   5.621  -6.923  1.00  0.00    -0.193 OA
BRANCH   7  10
HETATM   10  O2  UNL     1      44.870   4.420  -5.264  1.00  0.00    -0.267 OA
BRANCH  10  11
HETATM   11  C4  UNL     1      43.528   4.481  -4.988  1.00  0.00     0.140 C 
HETATM   12  C5  UNL     1      43.224   4.651  -3.516  1.00  0.00     0.041 C 
BRANCH  11  13
HETATM   13  C3  UNL     1      42.744   3.295  -5.539  1.00  0.00     0.059 C 
BRANCH  13  14
HETATM   14  C2  UNL     1      43.331   2.864  -6.859  1.00  0.00     0.169 C 
BRANCH  14  15
HETATM   15  O1  UNL     1      42.869   3.611  -7.914  1.00  0.00    -0.396 OA
HETATM   16  C1  UNL     1      43.844   4.044  -8.770  1.00  0.00     0.201 C 
ENDBRANCH  14  15
ENDBRANCH  13  14
ENDBRANCH  11  13
ENDBRANCH  10  11
ENDBRANCH   7  10
ENDBRANCH   1   7
BRANCH   6  17
HETATM   17  C19 UNL     1      46.280   8.780  -5.671  1.00  0.00     0.130 C 
HETATM   18  N2  UNL     1      46.947   8.659  -6.772  1.00  0.00    -0.267 N 
ATOM     19  H2  UNL     1      47.725   7.999  -6.808  1.00  0.00     0.194 HD
BRANCH  18  20
HETATM   20  O5  UNL     1      46.647   9.377  -7.877  1.00  0.00    -0.195 OA
BRANCH  20  21
HETATM   21  C20 UNL     1      46.135   8.830  -9.039  1.00  0.00     0.278 C 
HETATM   22  N3  UNL     1      45.213   7.951  -8.981  1.00  0.00    -0.358 N 
ATOM     23  H32 UNL     1      44.886   7.682  -8.053  1.00  0.00     0.160 HD
ATOM     24  H31 UNL     1      44.835   7.548  -9.838  1.00  0.00     0.160 HD
BRANCH  21  25
HETATM   25  O6  UNL     1      46.583   9.198 -10.308  1.00  0.00    -0.326 OA
ATOM     26  H6  UNL     1      46.776  10.098 -10.544  1.00  0.00     0.221 HD
ENDBRANCH  21  25
ENDBRANCH  20  21
ENDBRANCH  18  20
ENDBRANCH   6  17
BRANCH   5  27
HETATM   27  N1  UNL     1      47.536  10.019  -3.449  1.00  0.00    -0.368 N 
HETATM   28  C11 UNL     1      48.038  10.749  -2.553  1.00  0.00     0.066 C 
ATOM     29  H1  UNL     1      47.329  10.497  -4.326  1.00  0.00     0.165 HD
BRANCH  28  30
HETATM   30  C12 UNL     1      48.442  10.363  -1.195  1.00  0.00     0.024 C 
HETATM   31  C13 UNL     1      47.829  11.360  -0.222  1.00  0.00     0.010 C 
HETATM   32  C14 UNL     1      47.798  10.672   1.130  1.00  0.00     0.001 C 
HETATM   33  C15 UNL     1      48.942   9.706   1.195  1.00  0.00     0.000 C 
HETATM   34  C16 UNL     1      50.189  10.218   0.491  1.00  0.00     0.001 C 
HETATM   35  C17 UNL     1      49.943  10.448  -0.987  1.00  0.00     0.010 C 
ENDBRANCH  28  30
ENDBRANCH   5  27
TORSDOF 12
ENDMDL
