MODEL 1
REMARK VINA RESULT: -8.896978906      0.000      0.000
REMARK  6 active torsions:
REMARK  status: ('A' for Active; 'I' for Inactive)
REMARK    1  A    between atoms: N1_1  and  C1_4 
REMARK    2  A    between atoms: N4_14  and  C6_16 
REMARK    3  A    between atoms: C6_16  and  C7_17 
REMARK    4  A    between atoms: C7_17  and  S1_18 
REMARK    5  A    between atoms: S1_18  and  C8_19 
REMARK    6  A    between atoms: C9_24  and  N7_25 
ROOT
HETATM    1  C1  UNL     1      -2.917  -1.671  11.350  1.00  0.00     0.680 A 
HETATM    2  N2  UNL     1      -1.977  -0.918  10.751  1.00  0.00    -0.176 N 
ATOM      3  H2  UNL     1      -1.209  -1.370  10.254  1.00  0.00     0.186 HD
HETATM    4  C2  UNL     1      -2.041   0.442  10.802  1.00  0.00     0.142 A 
HETATM    5  C3  UNL     1      -3.087   1.026  11.479  1.00  0.00     0.108 A 
HETATM    6  C4  UNL     1      -4.040   0.216  12.084  1.00  0.00     0.276 A 
HETATM    7  O1  UNL     1      -4.969   0.814  12.686  1.00  0.00    -0.267 OA
HETATM    8  N3  UNL     1      -3.939  -1.110  12.010  1.00  0.00    -0.155 N 
ATOM      9  H3  UNL     1      -4.641  -1.700  12.458  1.00  0.00     0.187 HD
HETATM   10  C5  UNL     1      -3.189   2.477  11.555  1.00  0.00     0.108 A 
HETATM   11  N4  UNL     1      -4.142   3.005  12.171  1.00  0.00    -0.364 N 
ATOM     12  H4  UNL     1      -4.783   2.323  12.578  1.00  0.00     0.165 HD
HETATM   13  C10 UNL     1      -2.163   3.260  10.902  1.00  0.00     0.267 A 
HETATM   14  O3  UNL     1      -2.129   4.507  10.888  1.00  0.00    -0.280 OA
HETATM   15  C11 UNL     1      -1.048   2.597  10.181  1.00  0.00     0.299 A 
HETATM   16  O4  UNL     1      -0.146   3.260   9.607  1.00  0.00    -0.264 OA
HETATM   17  N8  UNL     1      -1.012   1.181  10.147  1.00  0.00    -0.305 N 
ATOM     18  H8  UNL     1      -0.259   0.695   9.659  1.00  0.00     0.170 HD
ENDROOT
BRANCH  11  19
HETATM   19  C6  UNL     1      -4.519   4.334  12.423  1.00  0.00     0.072 C 
BRANCH  19  20
HETATM   20  C7  UNL     1      -4.475   4.758  13.858  1.00  0.00     0.125 C 
BRANCH  20  21
HETATM   21  S1  UNL     1      -5.705   3.808  14.785  1.00  0.00    -0.102 SA
BRANCH  21  22
HETATM   22  C8  UNL     1      -4.932   2.415  15.543  1.00  0.00     0.136 A 
HETATM   23  N5  UNL     1      -3.680   1.959  15.397  1.00  0.00    -0.268 N 
HETATM   24  N6  UNL     1      -3.514   0.881  16.153  1.00  0.00     0.029 NA
ATOM     25  H5  UNL     1      -2.966   2.375  14.799  1.00  0.00     0.185 HD
HETATM   26  O2  UNL     1      -4.642   0.648  16.777  1.00  0.00    -0.203 OA
HETATM   27  C9  UNL     1      -5.525   1.543  16.442  1.00  0.00     0.196 A 
BRANCH  27  28
HETATM   28  N7  UNL     1      -6.723   1.600  16.870  1.00  0.00    -0.376 N 
ATOM     29  H72 UNL     1      -7.071   2.248  17.577  1.00  0.00     0.158 HD
ATOM     30  H71 UNL     1      -7.501   1.011  16.571  1.00  0.00     0.158 HD
ENDBRANCH  27  28
ENDBRANCH  21  22
ENDBRANCH  20  21
ENDBRANCH  19  20
ENDBRANCH  11  19
BRANCH   1  31
HETATM   31  N1  UNL     1      -2.817  -2.948  11.276  1.00  0.00    -0.234 N 
ATOM     32  H12 UNL     1      -3.111  -3.439  10.432  1.00  0.00     0.174 HD
ATOM     33  H11 UNL     1      -2.439  -3.454  12.077  1.00  0.00     0.174 HD
ENDBRANCH   1  31
TORSDOF 6
ENDMDL
MODEL 2
REMARK VINA RESULT: -8.585995151      0.803      1.381
REMARK  6 active torsions:
REMARK  status: ('A' for Active; 'I' for Inactive)
REMARK    1  A    between atoms: N1_1  and  C1_4 
REMARK    2  A    between atoms: N4_14  and  C6_16 
REMARK    3  A    between atoms: C6_16  and  C7_17 
REMARK    4  A    between atoms: C7_17  and  S1_18 
REMARK    5  A    between atoms: S1_18  and  C8_19 
REMARK    6  A    between atoms: C9_24  and  N7_25 
ROOT
HETATM    1  C1  UNL     1      -2.874  -1.828  11.365  1.00  0.00     0.680 A 
HETATM    2  N2  UNL     1      -1.958  -1.021  10.803  1.00  0.00    -0.176 N 
ATOM      3  H2  UNL     1      -1.177  -1.425  10.287  1.00  0.00     0.186 HD
HETATM    4  C2  UNL     1      -2.064   0.333  10.916  1.00  0.00     0.142 A 
HETATM    5  C3  UNL     1      -3.128   0.853  11.616  1.00  0.00     0.108 A 
HETATM    6  C4  UNL     1      -4.055  -0.012  12.183  1.00  0.00     0.276 A 
HETATM    7  O1  UNL     1      -5.002   0.528  12.811  1.00  0.00    -0.267 OA
HETATM    8  N3  UNL     1      -3.913  -1.330  12.049  1.00  0.00    -0.155 N 
ATOM      9  H3  UNL     1      -4.596  -1.961  12.468  1.00  0.00     0.187 HD
HETATM   10  C5  UNL     1      -3.275   2.295  11.759  1.00  0.00     0.108 A 
HETATM   11  N4  UNL     1      -4.244   2.765  12.397  1.00  0.00    -0.364 N 
ATOM     12  H4  UNL     1      -4.863   2.046  12.771  1.00  0.00     0.165 HD
HETATM   13  C10 UNL     1      -2.273   3.139  11.143  1.00  0.00     0.267 A 
HETATM   14  O3  UNL     1      -2.278   4.386  11.187  1.00  0.00    -0.280 OA
HETATM   15  C11 UNL     1      -1.138   2.544  10.394  1.00  0.00     0.299 A 
HETATM   16  O4  UNL     1      -0.258   3.260   9.852  1.00  0.00    -0.264 OA
HETATM   17  N8  UNL     1      -1.058   1.133  10.296  1.00  0.00    -0.305 N 
ATOM     18  H8  UNL     1      -0.291   0.693   9.788  1.00  0.00     0.170 HD
ENDROOT
BRANCH  11  19
HETATM   19  C6  UNL     1      -4.661   4.069  12.708  1.00  0.00     0.072 C 
BRANCH  19  20
HETATM   20  C7  UNL     1      -5.405   4.220  13.999  1.00  0.00     0.125 C 
BRANCH  20  21
HETATM   21  S1  UNL     1      -4.565   3.250  15.274  1.00  0.00    -0.102 SA
BRANCH  21  22
HETATM   22  C8  UNL     1      -5.685   2.072  15.959  1.00  0.00     0.136 A 
HETATM   23  N5  UNL     1      -6.924   2.258  16.434  1.00  0.00    -0.268 N 
HETATM   24  N6  UNL     1      -7.413   1.099  16.856  1.00  0.00     0.029 NA
ATOM     25  H5  UNL     1      -7.416   3.151  16.465  1.00  0.00     0.185 HD
HETATM   26  O2  UNL     1      -6.500   0.180  16.655  1.00  0.00    -0.203 OA
HETATM   27  C9  UNL     1      -5.444   0.716  16.120  1.00  0.00     0.196 A 
BRANCH  27  28
HETATM   28  N7  UNL     1      -4.378   0.096  15.800  1.00  0.00    -0.376 N 
ATOM     29  H72 UNL     1      -3.594   0.490  15.279  1.00  0.00     0.158 HD
ATOM     30  H71 UNL     1      -4.156  -0.876  16.017  1.00  0.00     0.158 HD
ENDBRANCH  27  28
ENDBRANCH  21  22
ENDBRANCH  20  21
ENDBRANCH  19  20
ENDBRANCH  11  19
BRANCH   1  31
HETATM   31  N1  UNL     1      -2.735  -3.097  11.234  1.00  0.00    -0.234 N 
ATOM     32  H12 UNL     1      -2.451  -3.494  10.338  1.00  0.00     0.174 HD
ATOM     33  H11 UNL     1      -2.914  -3.693  12.042  1.00  0.00     0.174 HD
ENDBRANCH   1  31
TORSDOF 6
ENDMDL
MODEL 3
REMARK VINA RESULT: -8.567003913      0.618      1.150
REMARK  6 active torsions:
REMARK  status: ('A' for Active; 'I' for Inactive)
REMARK    1  A    between atoms: N1_1  and  C1_4 
REMARK    2  A    between atoms: N4_14  and  C6_16 
REMARK    3  A    between atoms: C6_16  and  C7_17 
REMARK    4  A    between atoms: C7_17  and  S1_18 
REMARK    5  A    between atoms: S1_18  and  C8_19 
REMARK    6  A    between atoms: C9_24  and  N7_25 
ROOT
HETATM    1  C1  UNL     1      -2.899  -1.792  11.385  1.00  0.00     0.680 A 
HETATM    2  N2  UNL     1      -1.979  -1.009  10.795  1.00  0.00    -0.176 N 
ATOM      3  H2  UNL     1      -1.205  -1.436  10.285  1.00  0.00     0.186 HD
HETATM    4  C2  UNL     1      -2.071   0.348  10.872  1.00  0.00     0.142 A 
HETATM    5  C3  UNL     1      -3.125   0.897  11.566  1.00  0.00     0.108 A 
HETATM    6  C4  UNL     1      -4.056   0.057  12.161  1.00  0.00     0.276 A 
HETATM    7  O1  UNL     1      -4.994   0.623  12.780  1.00  0.00    -0.267 OA
HETATM    8  N3  UNL     1      -3.928  -1.265  12.062  1.00  0.00    -0.155 N 
ATOM      9  H3  UNL     1      -4.615  -1.878  12.502  1.00  0.00     0.187 HD
HETATM   10  C5  UNL     1      -3.256   2.344  11.670  1.00  0.00     0.108 A 
HETATM   11  N4  UNL     1      -4.217   2.840  12.302  1.00  0.00    -0.364 N 
ATOM     12  H4  UNL     1      -4.841   2.138  12.699  1.00  0.00     0.165 HD
HETATM   13  C10 UNL     1      -2.251   3.161  11.026  1.00  0.00     0.267 A 
HETATM   14  O3  UNL     1      -2.242   4.408  11.036  1.00  0.00    -0.280 OA
HETATM   15  C11 UNL     1      -1.126   2.535  10.286  1.00  0.00     0.299 A 
HETATM   16  O4  UNL     1      -0.243   3.227   9.719  1.00  0.00    -0.264 OA
HETATM   17  N8  UNL     1      -1.061   1.120  10.224  1.00  0.00    -0.305 N 
ATOM     18  H8  UNL     1      -0.301   0.660   9.724  1.00  0.00     0.170 HD
ENDROOT
BRANCH  11  19
HETATM   19  C6  UNL     1      -4.619   4.156  12.580  1.00  0.00     0.072 C 
BRANCH  19  20
HETATM   20  C7  UNL     1      -4.489   4.584  14.010  1.00  0.00     0.125 C 
BRANCH  20  21
HETATM   21  S1  UNL     1      -5.757   3.742  14.988  1.00  0.00    -0.102 SA
BRANCH  21  22
HETATM   22  C8  UNL     1      -5.122   2.211  15.594  1.00  0.00     0.136 A 
HETATM   23  N5  UNL     1      -5.786   1.111  15.974  1.00  0.00    -0.268 N 
HETATM   24  N6  UNL     1      -4.918   0.187  16.364  1.00  0.00     0.029 NA
ATOM     25  H5  UNL     1      -6.800   1.000  15.965  1.00  0.00     0.185 HD
HETATM   26  O2  UNL     1      -3.713   0.686  16.236  1.00  0.00    -0.203 OA
HETATM   27  C9  UNL     1      -3.784   1.900  15.778  1.00  0.00     0.196 A 
BRANCH  27  28
HETATM   28  N7  UNL     1      -2.792   2.664  15.541  1.00  0.00    -0.376 N 
ATOM     29  H72 UNL     1      -2.620   3.161  14.667  1.00  0.00     0.158 HD
ATOM     30  H71 UNL     1      -2.033   2.886  16.185  1.00  0.00     0.158 HD
ENDBRANCH  27  28
ENDBRANCH  21  22
ENDBRANCH  20  21
ENDBRANCH  19  20
ENDBRANCH  11  19
BRANCH   1  31
HETATM   31  N1  UNL     1      -2.773  -3.066  11.286  1.00  0.00    -0.234 N 
ATOM     32  H12 UNL     1      -1.942  -3.469  10.854  1.00  0.00     0.174 HD
ATOM     33  H11 UNL     1      -3.520  -3.658  11.650  1.00  0.00     0.174 HD
ENDBRANCH   1  31
TORSDOF 6
ENDMDL
MODEL 4
REMARK VINA RESULT: -7.990564346      1.540      3.550
REMARK  6 active torsions:
REMARK  status: ('A' for Active; 'I' for Inactive)
REMARK    1  A    between atoms: N1_1  and  C1_4 
REMARK    2  A    between atoms: N4_14  and  C6_16 
REMARK    3  A    between atoms: C6_16  and  C7_17 
REMARK    4  A    between atoms: C7_17  and  S1_18 
REMARK    5  A    between atoms: S1_18  and  C8_19 
REMARK    6  A    between atoms: C9_24  and  N7_25 
ROOT
HETATM    1  C1  UNL     1      -0.129   3.061   9.287  1.00  0.00     0.680 A 
HETATM    2  N2  UNL     1      -0.483   1.785   9.518  1.00  0.00    -0.176 N 
ATOM      3  H2  UNL     1       0.063   1.027   9.109  1.00  0.00     0.186 HD
HETATM    4  C2  UNL     1      -1.564   1.495  10.295  1.00  0.00     0.142 A 
HETATM    5  C3  UNL     1      -2.283   2.535  10.836  1.00  0.00     0.108 A 
HETATM    6  C4  UNL     1      -1.887   3.841  10.575  1.00  0.00     0.276 A 
HETATM    7  O1  UNL     1      -2.588   4.745  11.100  1.00  0.00    -0.267 OA
HETATM    8  N3  UNL     1      -0.824   4.080   9.810  1.00  0.00    -0.155 N 
ATOM      9  H3  UNL     1      -0.538   5.042   9.621  1.00  0.00     0.187 HD
HETATM   10  C5  UNL     1      -3.445   2.265  11.672  1.00  0.00     0.108 A 
HETATM   11  N4  UNL     1      -4.097   3.215  12.162  1.00  0.00    -0.364 N 
ATOM     12  H4  UNL     1      -3.724   4.129  11.910  1.00  0.00     0.165 HD
HETATM   13  C10 UNL     1      -3.802   0.881  11.903  1.00  0.00     0.267 A 
HETATM   14  O3  UNL     1      -4.770   0.509  12.596  1.00  0.00    -0.280 OA
HETATM   15  C11 UNL     1      -3.004  -0.217  11.303  1.00  0.00     0.299 A 
HETATM   16  O4  UNL     1      -3.297  -1.425  11.492  1.00  0.00    -0.264 OA
HETATM   17  N8  UNL     1      -1.885   0.120  10.501  1.00  0.00    -0.305 N 
ATOM     18  H8  UNL     1      -1.317  -0.612  10.075  1.00  0.00     0.170 HD
ENDROOT
BRANCH  11  19
HETATM   19  C6  UNL     1      -5.232   3.290  12.986  1.00  0.00     0.072 C 
BRANCH  19  20
HETATM   20  C7  UNL     1      -5.071   4.096  14.237  1.00  0.00     0.125 C 
BRANCH  20  21
HETATM   21  S1  UNL     1      -4.091   3.144  15.423  1.00  0.00    -0.102 SA
BRANCH  21  22
HETATM   22  C8  UNL     1      -4.944   1.657  15.841  1.00  0.00     0.136 A 
HETATM   23  N5  UNL     1      -4.562   0.385  15.664  1.00  0.00    -0.268 N 
HETATM   24  N6  UNL     1      -5.507  -0.426  16.123  1.00  0.00     0.029 NA
ATOM     25  H5  UNL     1      -3.682   0.085  15.243  1.00  0.00     0.185 HD
HETATM   26  O2  UNL     1      -6.483   0.315  16.588  1.00  0.00    -0.203 OA
HETATM   27  C9  UNL     1      -6.191   1.574  16.440  1.00  0.00     0.196 A 
BRANCH  27  28
HETATM   28  N7  UNL     1      -6.927   2.553  16.789  1.00  0.00    -0.376 N 
ATOM     29  H72 UNL     1      -6.597   3.481  17.053  1.00  0.00     0.158 HD
ATOM     30  H71 UNL     1      -7.945   2.550  16.854  1.00  0.00     0.158 HD
ENDBRANCH  27  28
ENDBRANCH  21  22
ENDBRANCH  20  21
ENDBRANCH  19  20
ENDBRANCH  11  19
BRANCH   1  31
HETATM   31  N1  UNL     1       0.896   3.289   8.549  1.00  0.00    -0.234 N 
ATOM     32  H12 UNL     1       1.799   2.876   8.783  1.00  0.00     0.174 HD
ATOM     33  H11 UNL     1       0.784   3.886   7.731  1.00  0.00     0.174 HD
ENDBRANCH   1  31
TORSDOF 6
ENDMDL
MODEL 5
REMARK VINA RESULT: -7.900411213      1.514      3.654
REMARK  6 active torsions:
REMARK  status: ('A' for Active; 'I' for Inactive)
REMARK    1  A    between atoms: N1_1  and  C1_4 
REMARK    2  A    between atoms: N4_14  and  C6_16 
REMARK    3  A    between atoms: C6_16  and  C7_17 
REMARK    4  A    between atoms: C7_17  and  S1_18 
REMARK    5  A    between atoms: S1_18  and  C8_19 
REMARK    6  A    between atoms: C9_24  and  N7_25 
ROOT
HETATM    1  C1  UNL     1      -0.264   3.302   9.317  1.00  0.00     0.680 A 
HETATM    2  N2  UNL     1      -0.508   1.994   9.508  1.00  0.00    -0.176 N 
ATOM      3  H2  UNL     1       0.097   1.298   9.073  1.00  0.00     0.186 HD
HETATM    4  C2  UNL     1      -1.558   1.590  10.278  1.00  0.00     0.142 A 
HETATM    5  C3  UNL     1      -2.358   2.549  10.854  1.00  0.00     0.108 A 
HETATM    6  C4  UNL     1      -2.074   3.890  10.635  1.00  0.00     0.276 A 
HETATM    7  O1  UNL     1      -2.845   4.715  11.190  1.00  0.00    -0.267 OA
HETATM    8  N3  UNL     1      -1.039   4.242   9.875  1.00  0.00    -0.155 N 
ATOM      9  H3  UNL     1      -0.835   5.230   9.716  1.00  0.00     0.187 HD
HETATM   10  C5  UNL     1      -3.490   2.155  11.683  1.00  0.00     0.108 A 
HETATM   11  N4  UNL     1      -4.216   3.030  12.205  1.00  0.00    -0.364 N 
ATOM     12  H4  UNL     1      -3.922   3.981  11.982  1.00  0.00     0.165 HD
HETATM   13  C10 UNL     1      -3.728   0.740  11.869  1.00  0.00     0.267 A 
HETATM   14  O3  UNL     1      -4.658   0.265  12.553  1.00  0.00    -0.280 OA
HETATM   15  C11 UNL     1      -2.844  -0.268  11.233  1.00  0.00     0.299 A 
HETATM   16  O4  UNL     1      -3.034  -1.502  11.383  1.00  0.00    -0.264 OA
HETATM   17  N8  UNL     1      -1.761   0.187  10.439  1.00  0.00    -0.305 N 
ATOM     18  H8  UNL     1      -1.136  -0.481   9.988  1.00  0.00     0.170 HD
ENDROOT
BRANCH  11  19
HETATM   19  C6  UNL     1      -5.349   2.984  13.033  1.00  0.00     0.072 C 
BRANCH  19  20
HETATM   20  C7  UNL     1      -5.628   4.228  13.819  1.00  0.00     0.125 C 
BRANCH  20  21
HETATM   21  S1  UNL     1      -6.020   3.766  15.524  1.00  0.00    -0.102 SA
BRANCH  21  22
HETATM   22  C8  UNL     1      -5.330   2.182  15.884  1.00  0.00     0.136 A 
HETATM   23  N5  UNL     1      -5.952   1.049  16.239  1.00  0.00    -0.268 N 
HETATM   24  N6  UNL     1      -5.052   0.090  16.415  1.00  0.00     0.029 NA
ATOM     25  H5  UNL     1      -6.960   0.940  16.355  1.00  0.00     0.185 HD
HETATM   26  O2  UNL     1      -3.869   0.599  16.176  1.00  0.00    -0.203 OA
HETATM   27  C9  UNL     1      -3.984   1.853  15.854  1.00  0.00     0.196 A 
BRANCH  27  28
HETATM   28  N7  UNL     1      -3.022   2.636  15.563  1.00  0.00    -0.376 N 
ATOM     29  H72 UNL     1      -2.270   2.915  16.193  1.00  0.00     0.158 HD
ATOM     30  H71 UNL     1      -2.867   3.094  14.664  1.00  0.00     0.158 HD
ENDBRANCH  27  28
ENDBRANCH  21  22
ENDBRANCH  20  21
ENDBRANCH  19  20
ENDBRANCH  11  19
BRANCH   1  31
HETATM   31  N1  UNL     1       0.736   3.638   8.585  1.00  0.00    -0.234 N 
ATOM     32  H12 UNL     1       0.670   3.585   7.569  1.00  0.00     0.174 HD
ATOM     33  H11 UNL     1       1.589   3.959   9.043  1.00  0.00     0.174 HD
ENDBRANCH   1  31
TORSDOF 6
ENDMDL
