MODEL 1
REMARK VINA RESULT: -6.097221001      0.000      0.000
REMARK  11 active torsions:
REMARK  status: ('A' for Active; 'I' for Inactive)
REMARK    1  A    between atoms: O1_2  and  N1_3 
REMARK    2  A    between atoms: N1_3  and  C2_4 
REMARK    3  A    between atoms: C2_4  and  C3_5 
REMARK    4  A    between atoms: C3_5  and  O3_7 
REMARK    5  A    between atoms: C7_12  and  N2_13 
REMARK    6  A    between atoms: N2_13  and  C8_15 
REMARK    7  A    between atoms: C8_15  and  N3_17 
REMARK    8  A    between atoms: N3_17  and  N4_19 
REMARK    9  A    between atoms: N4_19  and  C9_21 
REMARK   10  A    between atoms: C9_21  and  O4_25 
REMARK   11  A    between atoms: O4_25  and  N6_26 
ROOT
HETATM    1  N2  UNL     1      -4.443   3.814  13.085  1.00  0.00    -0.358 N 
ATOM      2  H2  UNL     1      -5.248   3.983  12.481  1.00  0.00     0.162 HD
ENDROOT
BRANCH   1   3
HETATM    3  C7  UNL     1      -3.135   3.753  12.483  1.00  0.00     0.130 C 
HETATM    4  C2  UNL     1      -3.022   2.541  11.635  1.00  0.00     0.173 C 
HETATM    5  C5  UNL     1      -4.027   2.658  10.511  1.00  0.00     0.116 C 
HETATM    6  S1  UNL     1      -3.681   4.390  10.019  1.00  0.00    -0.164 SA
HETATM    7  C6  UNL     1      -2.957   4.965  11.605  1.00  0.00     0.102 C 
BRANCH   4   8
HETATM    8  N1  UNL     1      -3.257   1.366  12.455  1.00  0.00    -0.078 NA
BRANCH   8   9
HETATM    9  O1  UNL     1      -4.412   0.742  12.103  1.00  0.00    -0.290 OA
HETATM   10  C1  UNL     1      -4.184  -0.571  11.713  1.00  0.00     0.231 C 
ENDBRANCH   8   9
ENDBRANCH   4   8
BRANCH   4  11
HETATM   11  C3  UNL     1      -1.692   2.407  10.982  1.00  0.00     0.288 C 
HETATM   12  O2  UNL     1      -0.644   2.583  11.630  1.00  0.00    -0.263 OA
BRANCH  11  13
HETATM   13  O3  UNL     1      -1.597   2.087   9.648  1.00  0.00    -0.325 OA
HETATM   14  C4  UNL     1      -0.589   2.546   8.786  1.00  0.00     0.213 C 
ENDBRANCH  11  13
ENDBRANCH   4  11
ENDBRANCH   1   3
BRANCH   1  15
HETATM   15  C8  UNL     1      -4.668   3.648  14.482  1.00  0.00     0.187 C 
HETATM   16  S2  UNL     1      -6.153   3.949  15.071  1.00  0.00    -0.040 SA
BRANCH  15  17
HETATM   17  N3  UNL     1      -3.648   3.248  15.376  1.00  0.00    -0.273 N 
ATOM     18  H3  UNL     1      -3.179   3.963  15.934  1.00  0.00     0.189 HD
BRANCH  17  19
HETATM   19  N4  UNL     1      -3.262   1.934  15.526  1.00  0.00    -0.262 N 
ATOM     20  H4  UNL     1      -2.287   1.677  15.368  1.00  0.00     0.190 HD
BRANCH  19  21
HETATM   21  C9  UNL     1      -4.199   0.930  15.895  1.00  0.00     0.255 C 
HETATM   22  N5  UNL     1      -4.455  -0.057  15.104  1.00  0.00    -0.363 N 
ATOM     23  H52 UNL     1      -3.958  -0.077  14.214  1.00  0.00     0.159 HD
ATOM     24  H51 UNL     1      -5.126  -0.778  15.370  1.00  0.00     0.159 HD
BRANCH  21  25
HETATM   25  O4  UNL     1      -4.875   0.958  17.109  1.00  0.00    -0.207 OA
BRANCH  25  26
HETATM   26  N6  UNL     1      -5.870   0.053  17.424  1.00  0.00    -0.302 N 
ATOM     27  H62 UNL     1      -5.729  -0.920  17.154  1.00  0.00     0.184 HD
ATOM     28  H61 UNL     1      -6.725   0.325  17.909  1.00  0.00     0.184 HD
ENDBRANCH  25  26
ENDBRANCH  21  25
ENDBRANCH  19  21
ENDBRANCH  17  19
ENDBRANCH  15  17
ENDBRANCH   1  15
TORSDOF 11
ENDMDL
MODEL 2
REMARK VINA RESULT: -5.996775262      2.698      5.116
REMARK  11 active torsions:
REMARK  status: ('A' for Active; 'I' for Inactive)
REMARK    1  A    between atoms: O1_2  and  N1_3 
REMARK    2  A    between atoms: N1_3  and  C2_4 
REMARK    3  A    between atoms: C2_4  and  C3_5 
REMARK    4  A    between atoms: C3_5  and  O3_7 
REMARK    5  A    between atoms: C7_12  and  N2_13 
REMARK    6  A    between atoms: N2_13  and  C8_15 
REMARK    7  A    between atoms: C8_15  and  N3_17 
REMARK    8  A    between atoms: N3_17  and  N4_19 
REMARK    9  A    between atoms: N4_19  and  C9_21 
REMARK   10  A    between atoms: C9_21  and  O4_25 
REMARK   11  A    between atoms: O4_25  and  N6_26 
ROOT
HETATM    1  N2  UNL     1      -1.677   2.994  11.942  1.00  0.00    -0.358 N 
ATOM      2  H2  UNL     1      -0.917   3.326  12.536  1.00  0.00     0.162 HD
ENDROOT
BRANCH   1   3
HETATM    3  C7  UNL     1      -2.977   3.598  12.092  1.00  0.00     0.130 C 
HETATM    4  C2  UNL     1      -3.517   3.314  13.444  1.00  0.00     0.173 C 
HETATM    5  C5  UNL     1      -2.604   3.963  14.460  1.00  0.00     0.116 C 
HETATM    6  S1  UNL     1      -2.430   5.602  13.659  1.00  0.00    -0.164 SA
HETATM    7  C6  UNL     1      -2.831   5.090  11.942  1.00  0.00     0.102 C 
BRANCH   4   8
HETATM    8  N1  UNL     1      -3.601   1.876  13.627  1.00  0.00    -0.078 NA
BRANCH   8   9
HETATM    9  O1  UNL     1      -3.549   1.543  14.944  1.00  0.00    -0.290 OA
HETATM   10  C1  UNL     1      -4.520   0.606  15.272  1.00  0.00     0.231 C 
ENDBRANCH   8   9
ENDBRANCH   4   8
BRANCH   4  11
HETATM   11  C3  UNL     1      -4.864   3.903  13.671  1.00  0.00     0.288 C 
HETATM   12  O2  UNL     1      -5.653   4.074  12.723  1.00  0.00    -0.263 OA
BRANCH  11  13
HETATM   13  O3  UNL     1      -5.263   4.271  14.935  1.00  0.00    -0.325 OA
HETATM   14  C4  UNL     1      -6.424   3.809  15.572  1.00  0.00     0.213 C 
ENDBRANCH  11  13
ENDBRANCH   4  11
ENDBRANCH   1   3
BRANCH   1  15
HETATM   15  C8  UNL     1      -1.401   1.957  11.005  1.00  0.00     0.187 C 
HETATM   16  S2  UNL     1      -0.833   2.366   9.538  1.00  0.00    -0.040 SA
BRANCH  15  17
HETATM   17  N3  UNL     1      -1.614   0.590  11.297  1.00  0.00    -0.273 N 
ATOM     18  H3  UNL     1      -1.033   0.145  12.008  1.00  0.00     0.189 HD
BRANCH  17  19
HETATM   19  N4  UNL     1      -2.576  -0.165  10.662  1.00  0.00    -0.262 N 
ATOM     20  H4  UNL     1      -2.942   0.145   9.761  1.00  0.00     0.190 HD
BRANCH  19  21
HETATM   21  C9  UNL     1      -3.065  -1.369  11.239  1.00  0.00     0.255 C 
HETATM   22  N5  UNL     1      -4.261  -1.433  11.718  1.00  0.00    -0.363 N 
ATOM     23  H52 UNL     1      -4.828  -0.587  11.662  1.00  0.00     0.159 HD
ATOM     24  H51 UNL     1      -4.613  -2.297  12.131  1.00  0.00     0.159 HD
BRANCH  21  25
HETATM   25  O4  UNL     1      -2.293  -2.522  11.314  1.00  0.00    -0.207 OA
BRANCH  25  26
HETATM   26  N6  UNL     1      -2.847  -3.788  11.310  1.00  0.00    -0.302 N 
ATOM     27  H62 UNL     1      -3.613  -3.972  11.957  1.00  0.00     0.184 HD
ATOM     28  H61 UNL     1      -2.519  -4.527  10.689  1.00  0.00     0.184 HD
ENDBRANCH  25  26
ENDBRANCH  21  25
ENDBRANCH  19  21
ENDBRANCH  17  19
ENDBRANCH  15  17
ENDBRANCH   1  15
TORSDOF 11
ENDMDL
MODEL 3
REMARK VINA RESULT: -5.794588147      2.877      4.788
REMARK  11 active torsions:
REMARK  status: ('A' for Active; 'I' for Inactive)
REMARK    1  A    between atoms: O1_2  and  N1_3 
REMARK    2  A    between atoms: N1_3  and  C2_4 
REMARK    3  A    between atoms: C2_4  and  C3_5 
REMARK    4  A    between atoms: C3_5  and  O3_7 
REMARK    5  A    between atoms: C7_12  and  N2_13 
REMARK    6  A    between atoms: N2_13  and  C8_15 
REMARK    7  A    between atoms: C8_15  and  N3_17 
REMARK    8  A    between atoms: N3_17  and  N4_19 
REMARK    9  A    between atoms: N4_19  and  C9_21 
REMARK   10  A    between atoms: C9_21  and  O4_25 
REMARK   11  A    between atoms: O4_25  and  N6_26 
ROOT
HETATM    1  N2  UNL     1      -1.440   2.993  11.845  1.00  0.00    -0.358 N 
ATOM      2  H2  UNL     1      -0.784   3.116  12.617  1.00  0.00     0.162 HD
ENDROOT
BRANCH   1   3
HETATM    3  C7  UNL     1      -2.520   3.937  11.706  1.00  0.00     0.130 C 
HETATM    4  C2  UNL     1      -3.526   3.720  12.774  1.00  0.00     0.173 C 
HETATM    5  C5  UNL     1      -2.863   3.992  14.106  1.00  0.00     0.116 C 
HETATM    6  S1  UNL     1      -2.028   5.566  13.675  1.00  0.00    -0.164 SA
HETATM    7  C6  UNL     1      -1.960   5.328  11.856  1.00  0.00     0.102 C 
BRANCH   4   8
HETATM    8  N1  UNL     1      -4.026   2.360  12.683  1.00  0.00    -0.078 NA
BRANCH   8   9
HETATM    9  O1  UNL     1      -3.453   1.560  13.619  1.00  0.00    -0.290 OA
HETATM   10  C1  UNL     1      -4.408   0.901  14.383  1.00  0.00     0.231 C 
ENDBRANCH   8   9
ENDBRANCH   4   8
BRANCH   4  11
HETATM   11  C3  UNL     1      -4.677   4.658  12.691  1.00  0.00     0.288 C 
HETATM   12  O2  UNL     1      -5.309   4.983  13.713  1.00  0.00    -0.263 OA
BRANCH  11  13
HETATM   13  O3  UNL     1      -5.066   5.182  11.480  1.00  0.00    -0.325 OA
HETATM   14  C4  UNL     1      -5.414   6.524  11.266  1.00  0.00     0.213 C 
ENDBRANCH  11  13
ENDBRANCH   4  11
ENDBRANCH   1   3
BRANCH   1  15
HETATM   15  C8  UNL     1      -1.242   1.895  10.959  1.00  0.00     0.187 C 
HETATM   16  S2  UNL     1      -0.580   2.182   9.502  1.00  0.00    -0.040 SA
BRANCH  15  17
HETATM   17  N3  UNL     1      -1.612   0.572  11.291  1.00  0.00    -0.273 N 
ATOM     18  H3  UNL     1      -0.976   0.014  11.860  1.00  0.00     0.189 HD
BRANCH  17  19
HETATM   19  N4  UNL     1      -2.798   0.004  10.877  1.00  0.00    -0.262 N 
ATOM     20  H4  UNL     1      -3.404   0.521  10.239  1.00  0.00     0.190 HD
BRANCH  19  21
HETATM   21  C9  UNL     1      -3.190  -1.288  11.322  1.00  0.00     0.255 C 
HETATM   22  N5  UNL     1      -4.399  -1.512  11.714  1.00  0.00    -0.363 N 
ATOM     23  H52 UNL     1      -5.047  -0.725  11.688  1.00  0.00     0.159 HD
ATOM     24  H51 UNL     1      -4.681  -2.438  12.034  1.00  0.00     0.159 HD
BRANCH  21  25
HETATM   25  O4  UNL     1      -2.307  -2.360  11.358  1.00  0.00    -0.207 OA
BRANCH  25  26
HETATM   26  N6  UNL     1      -2.734  -3.673  11.362  1.00  0.00    -0.302 N 
ATOM     27  H62 UNL     1      -3.332  -3.980  10.595  1.00  0.00     0.184 HD
ATOM     28  H61 UNL     1      -2.474  -4.332  12.096  1.00  0.00     0.184 HD
ENDBRANCH  25  26
ENDBRANCH  21  25
ENDBRANCH  19  21
ENDBRANCH  17  19
ENDBRANCH  15  17
ENDBRANCH   1  15
TORSDOF 11
ENDMDL
MODEL 4
REMARK VINA RESULT: -5.747310550      2.496      5.054
REMARK  11 active torsions:
REMARK  status: ('A' for Active; 'I' for Inactive)
REMARK    1  A    between atoms: O1_2  and  N1_3 
REMARK    2  A    between atoms: N1_3  and  C2_4 
REMARK    3  A    between atoms: C2_4  and  C3_5 
REMARK    4  A    between atoms: C3_5  and  O3_7 
REMARK    5  A    between atoms: C7_12  and  N2_13 
REMARK    6  A    between atoms: N2_13  and  C8_15 
REMARK    7  A    between atoms: C8_15  and  N3_17 
REMARK    8  A    between atoms: N3_17  and  N4_19 
REMARK    9  A    between atoms: N4_19  and  C9_21 
REMARK   10  A    between atoms: C9_21  and  O4_25 
REMARK   11  A    between atoms: O4_25  and  N6_26 
ROOT
HETATM    1  N2  UNL     1      -1.544   3.124  12.161  1.00  0.00    -0.358 N 
ATOM      2  H2  UNL     1      -0.965   3.193  12.998  1.00  0.00     0.162 HD
ENDROOT
BRANCH   1   3
HETATM    3  C7  UNL     1      -2.901   3.603  12.225  1.00  0.00     0.130 C 
HETATM    4  C2  UNL     1      -3.496   3.272  13.542  1.00  0.00     0.173 C 
HETATM    5  C5  UNL     1      -2.713   4.003  14.610  1.00  0.00     0.116 C 
HETATM    6  S1  UNL     1      -2.642   5.651  13.811  1.00  0.00    -0.164 SA
HETATM    7  C6  UNL     1      -2.885   5.103  12.075  1.00  0.00     0.102 C 
BRANCH   4   8
HETATM    8  N1  UNL     1      -3.458   1.832  13.729  1.00  0.00    -0.078 NA
BRANCH   8   9
HETATM    9  O1  UNL     1      -3.470   1.505  15.048  1.00  0.00    -0.290 OA
HETATM   10  C1  UNL     1      -4.480   0.597  15.339  1.00  0.00     0.231 C 
ENDBRANCH   8   9
ENDBRANCH   4   8
BRANCH   4  11
HETATM   11  C3  UNL     1      -4.904   3.732  13.680  1.00  0.00     0.288 C 
HETATM   12  O2  UNL     1      -5.700   3.641  12.728  1.00  0.00    -0.263 OA
BRANCH  11  13
HETATM   13  O3  UNL     1      -5.351   4.269  14.865  1.00  0.00    -0.325 OA
HETATM   14  C4  UNL     1      -6.412   3.754  15.625  1.00  0.00     0.213 C 
ENDBRANCH  11  13
ENDBRANCH   4  11
ENDBRANCH   1   3
BRANCH   1  15
HETATM   15  C8  UNL     1      -0.969   2.558  10.986  1.00  0.00     0.187 C 
HETATM   16  S2  UNL     1       0.017   3.480  10.082  1.00  0.00    -0.040 SA
BRANCH  15  17
HETATM   17  N3  UNL     1      -1.236   1.234  10.570  1.00  0.00    -0.273 N 
ATOM     18  H3  UNL     1      -0.952   0.949   9.632  1.00  0.00     0.189 HD
BRANCH  17  19
HETATM   19  N4  UNL     1      -1.863   0.311  11.378  1.00  0.00    -0.262 N 
ATOM     20  H4  UNL     1      -1.509   0.148  12.321  1.00  0.00     0.190 HD
BRANCH  19  21
HETATM   21  C9  UNL     1      -2.996  -0.418  10.922  1.00  0.00     0.255 C 
HETATM   22  N5  UNL     1      -3.034  -1.704  11.013  1.00  0.00    -0.363 N 
ATOM     23  H52 UNL     1      -2.220  -2.163  11.422  1.00  0.00     0.159 HD
ATOM     24  H51 UNL     1      -3.846  -2.227  10.686  1.00  0.00     0.159 HD
BRANCH  21  25
HETATM   25  O4  UNL     1      -4.104   0.208  10.364  1.00  0.00    -0.207 OA
BRANCH  25  26
HETATM   26  N6  UNL     1      -4.994   0.950  11.116  1.00  0.00    -0.302 N 
ATOM     27  H62 UNL     1      -5.374   0.521  11.960  1.00  0.00     0.184 HD
ATOM     28  H61 UNL     1      -5.277   1.895  10.857  1.00  0.00     0.184 HD
ENDBRANCH  25  26
ENDBRANCH  21  25
ENDBRANCH  19  21
ENDBRANCH  17  19
ENDBRANCH  15  17
ENDBRANCH   1  15
TORSDOF 11
ENDMDL
MODEL 5
REMARK VINA RESULT: -5.691220645      3.019      4.966
REMARK  11 active torsions:
REMARK  status: ('A' for Active; 'I' for Inactive)
REMARK    1  A    between atoms: O1_2  and  N1_3 
REMARK    2  A    between atoms: N1_3  and  C2_4 
REMARK    3  A    between atoms: C2_4  and  C3_5 
REMARK    4  A    between atoms: C3_5  and  O3_7 
REMARK    5  A    between atoms: C7_12  and  N2_13 
REMARK    6  A    between atoms: N2_13  and  C8_15 
REMARK    7  A    between atoms: C8_15  and  N3_17 
REMARK    8  A    between atoms: N3_17  and  N4_19 
REMARK    9  A    between atoms: N4_19  and  C9_21 
REMARK   10  A    between atoms: C9_21  and  O4_25 
REMARK   11  A    between atoms: O4_25  and  N6_26 
ROOT
HETATM    1  N2  UNL     1      -3.846   3.189  10.461  1.00  0.00    -0.358 N 
ATOM      2  H2  UNL     1      -4.423   2.689   9.784  1.00  0.00     0.162 HD
ENDROOT
BRANCH   1   3
HETATM    3  C7  UNL     1      -3.456   2.502  11.667  1.00  0.00     0.130 C 
HETATM    4  C2  UNL     1      -4.567   1.644  12.146  1.00  0.00     0.173 C 
HETATM    5  C5  UNL     1      -4.832   0.588  11.096  1.00  0.00     0.116 C 
HETATM    6  S1  UNL     1      -3.099   0.081  10.780  1.00  0.00    -0.164 SA
HETATM    7  C6  UNL     1      -2.276   1.619  11.353  1.00  0.00     0.102 C 
BRANCH   4   8
HETATM    8  N1  UNL     1      -5.734   2.474  12.390  1.00  0.00    -0.078 NA
BRANCH   8   9
HETATM    9  O1  UNL     1      -5.380   3.687  12.890  1.00  0.00    -0.290 OA
HETATM   10  C1  UNL     1      -6.123   4.010  14.018  1.00  0.00     0.231 C 
ENDBRANCH   8   9
ENDBRANCH   4   8
BRANCH   4  11
HETATM   11  C3  UNL     1      -4.239   0.906  13.395  1.00  0.00     0.288 C 
HETATM   12  O2  UNL     1      -4.549  -0.292  13.527  1.00  0.00    -0.263 OA
BRANCH  11  13
HETATM   13  O3  UNL     1      -3.586   1.537  14.428  1.00  0.00    -0.325 OA
HETATM   14  C4  UNL     1      -3.994   1.502  15.770  1.00  0.00     0.213 C 
ENDBRANCH  11  13
ENDBRANCH   4  11
ENDBRANCH   1   3
BRANCH   1  15
HETATM   15  C8  UNL     1      -3.468   4.530  10.168  1.00  0.00     0.187 C 
HETATM   16  S2  UNL     1      -2.929   4.878   8.675  1.00  0.00    -0.040 SA
BRANCH  15  17
HETATM   17  N3  UNL     1      -3.529   5.566  11.129  1.00  0.00    -0.273 N 
ATOM     18  H3  UNL     1      -4.443   5.931  11.397  1.00  0.00     0.189 HD
BRANCH  17  19
HETATM   19  N4  UNL     1      -2.405   6.102  11.719  1.00  0.00    -0.262 N 
ATOM     20  H4  UNL     1      -2.137   7.063  11.504  1.00  0.00     0.190 HD
BRANCH  19  21
HETATM   21  C9  UNL     1      -1.612   5.340  12.620  1.00  0.00     0.255 C 
HETATM   22  N5  UNL     1      -0.466   4.871  12.258  1.00  0.00    -0.363 N 
ATOM     23  H52 UNL     1      -0.164   5.073  11.305  1.00  0.00     0.159 HD
ATOM     24  H51 UNL     1       0.103   4.325  12.904  1.00  0.00     0.159 HD
BRANCH  21  25
HETATM   25  O4  UNL     1      -2.024   5.064  13.919  1.00  0.00    -0.207 OA
BRANCH  25  26
HETATM   26  N6  UNL     1      -1.660   3.909  14.583  1.00  0.00    -0.302 N 
ATOM     27  H62 UNL     1      -0.664   3.708  14.673  1.00  0.00     0.184 HD
ATOM     28  H61 UNL     1      -2.345   3.265  14.977  1.00  0.00     0.184 HD
ENDBRANCH  25  26
ENDBRANCH  21  25
ENDBRANCH  19  21
ENDBRANCH  17  19
ENDBRANCH  15  17
ENDBRANCH   1  15
TORSDOF 11
ENDMDL
