MODEL 1
REMARK VINA RESULT: -8.713606241      0.000      0.000
REMARK  6 active torsions:
REMARK  status: ('A' for Active; 'I' for Inactive)
REMARK    1  A    between atoms: C2_5  and  C3_6 
REMARK    2  A    between atoms: N3_13  and  N4_15 
REMARK    3  A    between atoms: N5_17  and  N6_19 
REMARK    4  A    between atoms: N6_19  and  C6_20 
REMARK    5  A    between atoms: C6_20  and  C7_21 
REMARK    6  A    between atoms: C8_22  and  O4_23 
ROOT
HETATM    1  N4  UNL     1      -4.174   5.358  12.808  1.00  0.00    -0.216 N 
ATOM      2  H4  UNL     1      -4.838   6.040  13.175  1.00  0.00     0.211 HD
HETATM    3  N5  UNL     1      -4.016   5.201  11.557  1.00  0.00    -0.162 N 
ATOM      4  H5  UNL     1      -4.581   5.786  10.942  1.00  0.00     0.225 HD
ENDROOT
BRANCH   1   5
HETATM    5  N3  UNL     1      -3.404   4.563  13.660  1.00  0.00    -0.265 N 
HETATM    6  C5  UNL     1      -4.016   3.641  14.362  1.00  0.00     0.186 C 
HETATM    7  C1  UNL     1      -5.458   3.452  14.255  1.00  0.00     0.287 C 
HETATM    8  N2  UNL     1      -3.275   2.799  15.250  1.00  0.00    -0.368 N 
HETATM    9  O1  UNL     1      -6.126   4.183  13.480  1.00  0.00    -0.264 OA
HETATM   10  N1  UNL     1      -6.049   2.431  15.050  1.00  0.00    -0.338 N 
HETATM   11  C2  UNL     1      -5.295   1.973  16.199  1.00  0.00     0.203 C 
ATOM     12  H1  UNL     1      -6.962   2.039  14.821  1.00  0.00     0.163 HD
HETATM   13  C4  UNL     1      -3.924   1.580  15.695  1.00  0.00     0.157 C 
ATOM     14  H2  UNL     1      -2.334   3.044  15.558  1.00  0.00     0.161 HD
ATOM     15  H3  UNL     1      -2.396   4.696  13.733  1.00  0.00     0.190 HD
BRANCH  11  16
HETATM   16  C3  UNL     1      -5.969   0.910  16.942  1.00  0.00     0.198 C 
HETATM   17  O2  UNL     1      -5.428   0.339  17.904  1.00  0.00    -0.646 OA
HETATM   18  O3  UNL     1      -7.245   0.531  16.559  1.00  0.00    -0.646 OA
ENDBRANCH  11  16
ENDBRANCH   1   5
BRANCH   3  19
HETATM   19  N6  UNL     1      -3.204   4.368  10.992  1.00  0.00    -0.321 NA
BRANCH  19  20
HETATM   20  C6  UNL     1      -2.802   3.384  10.430  1.00  0.00     0.232 C 
BRANCH  20  21
HETATM   21  C7  UNL     1      -3.068   1.989  10.743  1.00  0.00     0.114 A 
HETATM   22  C8  UNL     1      -4.389   1.575  10.974  1.00  0.00     0.162 A 
HETATM   23  N7  UNL     1      -4.718   0.310  11.267  1.00  0.00    -0.288 N 
HETATM   24  C9  UNL     1      -3.726  -0.602  11.345  1.00  0.00     0.329 A 
ATOM     25  H7  UNL     1      -5.689   0.044  11.428  1.00  0.00     0.172 HD
HETATM   26  O5  UNL     1      -3.955  -1.809  11.615  1.00  0.00    -0.247 OA
HETATM   27  N8  UNL     1      -2.469  -0.240  11.131  1.00  0.00    -0.275 N 
HETATM   28  C10 UNL     1      -2.089   1.034  10.829  1.00  0.00     0.266 A 
ATOM     29  H8  UNL     1      -1.745  -0.956  11.197  1.00  0.00     0.173 HD
HETATM   30  O6  UNL     1      -0.891   1.310  10.641  1.00  0.00    -0.267 OA
BRANCH  22  31
HETATM   31  O4  UNL     1      -5.417   2.519  10.895  1.00  0.00    -0.345 OA
ATOM     32  H4  UNL     1      -6.252   2.258  10.524  1.00  0.00     0.219 HD
ENDBRANCH  22  31
ENDBRANCH  20  21
ENDBRANCH  19  20
ENDBRANCH   3  19
TORSDOF 6
ENDMDL
MODEL 2
REMARK VINA RESULT: -8.689689899      1.204      2.318
REMARK  6 active torsions:
REMARK  status: ('A' for Active; 'I' for Inactive)
REMARK    1  A    between atoms: C2_5  and  C3_6 
REMARK    2  A    between atoms: N3_13  and  N4_15 
REMARK    3  A    between atoms: N5_17  and  N6_19 
REMARK    4  A    between atoms: N6_19  and  C6_20 
REMARK    5  A    between atoms: C6_20  and  C7_21 
REMARK    6  A    between atoms: C8_22  and  O4_23 
ROOT
HETATM    1  N4  UNL     1      -2.782   5.103  13.588  1.00  0.00    -0.216 N 
ATOM      2  H4  UNL     1      -2.185   5.508  14.310  1.00  0.00     0.211 HD
HETATM    3  N5  UNL     1      -2.295   4.663  12.501  1.00  0.00    -0.162 N 
ATOM      4  H5  UNL     1      -1.284   4.733  12.384  1.00  0.00     0.225 HD
ENDROOT
BRANCH   1   5
HETATM    5  N3  UNL     1      -4.165   5.011  13.758  1.00  0.00    -0.265 N 
HETATM    6  C5  UNL     1      -4.627   4.079  14.555  1.00  0.00     0.186 C 
HETATM    7  C1  UNL     1      -3.722   3.165  15.242  1.00  0.00     0.287 C 
HETATM    8  N2  UNL     1      -6.036   3.941  14.764  1.00  0.00    -0.368 N 
HETATM    9  O1  UNL     1      -2.482   3.272  15.070  1.00  0.00    -0.264 OA
HETATM   10  N1  UNL     1      -4.301   2.180  16.089  1.00  0.00    -0.338 N 
HETATM   11  C2  UNL     1      -5.697   1.862  15.871  1.00  0.00     0.203 C 
ATOM     12  H1  UNL     1      -3.756   1.717  16.818  1.00  0.00     0.163 HD
HETATM   13  C4  UNL     1      -6.456   3.169  15.919  1.00  0.00     0.157 C 
ATOM     14  H2  UNL     1      -6.714   4.365  14.131  1.00  0.00     0.161 HD
ATOM     15  H3  UNL     1      -4.797   5.651  13.277  1.00  0.00     0.190 HD
BRANCH  11  16
HETATM   16  C3  UNL     1      -6.209   0.857  16.800  1.00  0.00     0.198 C 
HETATM   17  O2  UNL     1      -7.361   0.399  16.700  1.00  0.00    -0.646 OA
HETATM   18  O3  UNL     1      -5.386   0.405  17.818  1.00  0.00    -0.646 OA
ENDBRANCH  11  16
ENDBRANCH   1   5
BRANCH   3  19
HETATM   19  N6  UNL     1      -2.962   4.134  11.528  1.00  0.00    -0.321 NA
BRANCH  19  20
HETATM   20  C6  UNL     1      -3.506   3.305  10.847  1.00  0.00     0.232 C 
BRANCH  20  21
HETATM   21  C7  UNL     1      -3.493   1.859  10.998  1.00  0.00     0.114 A 
HETATM   22  C8  UNL     1      -2.265   1.188  11.105  1.00  0.00     0.162 A 
HETATM   23  N7  UNL     1      -2.166  -0.140  11.246  1.00  0.00    -0.288 N 
HETATM   24  C9  UNL     1      -3.307  -0.860  11.284  1.00  0.00     0.329 A 
ATOM     25  H7  UNL     1      -1.256  -0.594  11.322  1.00  0.00     0.172 HD
HETATM   26  O5  UNL     1      -3.297  -2.112  11.414  1.00  0.00    -0.247 OA
HETATM   27  N8  UNL     1      -4.482  -0.255  11.186  1.00  0.00    -0.275 N 
HETATM   28  C10 UNL     1      -4.629   1.093  11.042  1.00  0.00     0.266 A 
ATOM     29  H8  UNL     1      -5.324  -0.830  11.219  1.00  0.00     0.173 HD
HETATM   30  O6  UNL     1      -5.760   1.601  10.954  1.00  0.00    -0.267 OA
BRANCH  22  31
HETATM   31  O4  UNL     1      -1.082   1.933  11.065  1.00  0.00    -0.345 OA
ATOM     32  H4  UNL     1      -0.547   1.904  10.280  1.00  0.00     0.219 HD
ENDBRANCH  22  31
ENDBRANCH  20  21
ENDBRANCH  19  20
ENDBRANCH   3  19
TORSDOF 6
ENDMDL
MODEL 3
REMARK VINA RESULT: -8.629650977      0.840      1.837
REMARK  6 active torsions:
REMARK  status: ('A' for Active; 'I' for Inactive)
REMARK    1  A    between atoms: C2_5  and  C3_6 
REMARK    2  A    between atoms: N3_13  and  N4_15 
REMARK    3  A    between atoms: N5_17  and  N6_19 
REMARK    4  A    between atoms: N6_19  and  C6_20 
REMARK    5  A    between atoms: C6_20  and  C7_21 
REMARK    6  A    between atoms: C8_22  and  O4_23 
ROOT
HETATM    1  N4  UNL     1      -3.281   5.301  14.033  1.00  0.00    -0.216 N 
ATOM      2  H4  UNL     1      -3.420   6.092  14.662  1.00  0.00     0.211 HD
HETATM    3  N5  UNL     1      -3.538   5.394  12.792  1.00  0.00    -0.162 N 
ATOM      4  H5  UNL     1      -3.889   6.292  12.458  1.00  0.00     0.225 HD
ENDROOT
BRANCH   1   5
HETATM    5  N3  UNL     1      -2.799   4.077  14.501  1.00  0.00    -0.265 N 
HETATM    6  C5  UNL     1      -3.662   3.226  15.000  1.00  0.00     0.186 C 
HETATM    7  C1  UNL     1      -5.081   3.551  15.065  1.00  0.00     0.287 C 
HETATM    8  N2  UNL     1      -3.221   1.957  15.495  1.00  0.00    -0.368 N 
HETATM    9  O1  UNL     1      -5.487   4.660  14.636  1.00  0.00    -0.264 OA
HETATM   10  N1  UNL     1      -5.954   2.575  15.622  1.00  0.00    -0.338 N 
HETATM   11  C2  UNL     1      -5.356   1.563  16.469  1.00  0.00     0.203 C 
ATOM     12  H1  UNL     1      -6.957   2.587  15.433  1.00  0.00     0.163 HD
HETATM   13  C4  UNL     1      -4.234   0.934  15.673  1.00  0.00     0.157 C 
ATOM     14  H2  UNL     1      -2.240   1.780  15.712  1.00  0.00     0.161 HD
ATOM     15  H3  UNL     1      -1.805   3.852  14.455  1.00  0.00     0.190 HD
BRANCH  11  16
HETATM   16  C3  UNL     1      -6.325   0.594  16.977  1.00  0.00     0.198 C 
HETATM   17  O2  UNL     1      -5.973  -0.520  17.404  1.00  0.00    -0.646 OA
HETATM   18  O3  UNL     1      -7.669   0.928  16.980  1.00  0.00    -0.646 OA
ENDBRANCH  11  16
ENDBRANCH   1   5
BRANCH   3  19
HETATM   19  N6  UNL     1      -3.396   4.456  11.913  1.00  0.00    -0.321 NA
BRANCH  19  20
HETATM   20  C6  UNL     1      -3.673   3.632  11.083  1.00  0.00     0.232 C 
BRANCH  20  21
HETATM   21  C7  UNL     1      -3.609   2.183  11.188  1.00  0.00     0.114 A 
HETATM   22  C8  UNL     1      -2.363   1.560  11.357  1.00  0.00     0.162 A 
HETATM   23  N7  UNL     1      -2.218   0.232  11.462  1.00  0.00    -0.288 N 
HETATM   24  C9  UNL     1      -3.326  -0.534  11.399  1.00  0.00     0.329 A 
ATOM     25  H7  UNL     1      -1.296  -0.187  11.586  1.00  0.00     0.172 HD
HETATM   26  O5  UNL     1      -3.271  -1.789  11.490  1.00  0.00    -0.247 OA
HETATM   27  N8  UNL     1      -4.517   0.026  11.240  1.00  0.00    -0.275 N 
HETATM   28  C10 UNL     1      -4.711   1.371  11.130  1.00  0.00     0.266 A 
ATOM     29  H8  UNL     1      -5.334  -0.584  11.197  1.00  0.00     0.173 HD
HETATM   30  O6  UNL     1      -5.855   1.835  10.980  1.00  0.00    -0.267 OA
BRANCH  22  31
HETATM   31  O4  UNL     1      -1.213   2.352  11.422  1.00  0.00    -0.345 OA
ATOM     32  H4  UNL     1      -0.499   2.081  11.987  1.00  0.00     0.219 HD
ENDBRANCH  22  31
ENDBRANCH  20  21
ENDBRANCH  19  20
ENDBRANCH   3  19
TORSDOF 6
ENDMDL
MODEL 4
REMARK VINA RESULT: -8.366200284      1.189      1.512
REMARK  6 active torsions:
REMARK  status: ('A' for Active; 'I' for Inactive)
REMARK    1  A    between atoms: C2_5  and  C3_6 
REMARK    2  A    between atoms: N3_13  and  N4_15 
REMARK    3  A    between atoms: N5_17  and  N6_19 
REMARK    4  A    between atoms: N6_19  and  C6_20 
REMARK    5  A    between atoms: C6_20  and  C7_21 
REMARK    6  A    between atoms: C8_22  and  O4_23 
ROOT
HETATM    1  N4  UNL     1      -2.855   5.080  13.458  1.00  0.00    -0.216 N 
ATOM      2  H4  UNL     1      -2.270   5.536  14.158  1.00  0.00     0.211 HD
HETATM    3  N5  UNL     1      -2.354   4.595  12.396  1.00  0.00    -0.162 N 
ATOM      4  H5  UNL     1      -1.345   4.683  12.279  1.00  0.00     0.225 HD
ENDROOT
BRANCH   1   5
HETATM    5  N3  UNL     1      -4.237   4.965  13.629  1.00  0.00    -0.265 N 
HETATM    6  C5  UNL     1      -4.680   4.050  14.456  1.00  0.00     0.186 C 
HETATM    7  C1  UNL     1      -3.758   3.180  15.175  1.00  0.00     0.287 C 
HETATM    8  N2  UNL     1      -6.087   3.890  14.669  1.00  0.00    -0.368 N 
HETATM    9  O1  UNL     1      -2.519   3.307  15.002  1.00  0.00    -0.264 OA
HETATM   10  N1  UNL     1      -4.317   2.212  16.055  1.00  0.00    -0.338 N 
HETATM   11  C2  UNL     1      -5.706   1.857  15.846  1.00  0.00     0.203 C 
ATOM     12  H1  UNL     1      -3.765   1.787  16.800  1.00  0.00     0.163 HD
HETATM   13  C4  UNL     1      -6.493   3.149  15.848  1.00  0.00     0.157 C 
ATOM     14  H2  UNL     1      -6.772   4.277  14.020  1.00  0.00     0.161 HD
ATOM     15  H3  UNL     1      -4.881   5.574  13.125  1.00  0.00     0.190 HD
BRANCH  11  16
HETATM   16  C3  UNL     1      -6.198   0.874  16.808  1.00  0.00     0.198 C 
HETATM   17  O2  UNL     1      -5.428   0.249  17.558  1.00  0.00    -0.646 OA
HETATM   18  O3  UNL     1      -7.560   0.634  16.884  1.00  0.00    -0.646 OA
ENDBRANCH  11  16
ENDBRANCH   1   5
BRANCH   3  19
HETATM   19  N6  UNL     1      -3.005   4.000  11.450  1.00  0.00    -0.321 NA
BRANCH  19  20
HETATM   20  C6  UNL     1      -3.389   3.131  10.714  1.00  0.00     0.232 C 
BRANCH  20  21
HETATM   21  C7  UNL     1      -3.316   1.690  10.897  1.00  0.00     0.114 A 
HETATM   22  C8  UNL     1      -4.500   0.959  11.080  1.00  0.00     0.162 A 
HETATM   23  N7  UNL     1      -4.519  -0.369  11.255  1.00  0.00    -0.288 N 
HETATM   24  C9  UNL     1      -3.341  -1.026  11.257  1.00  0.00     0.329 A 
ATOM     25  H7  UNL     1      -5.399  -0.869  11.383  1.00  0.00     0.172 HD
HETATM   26  O5  UNL     1      -3.277  -2.273  11.415  1.00  0.00    -0.247 OA
HETATM   27  N8  UNL     1      -2.206  -0.362  11.086  1.00  0.00    -0.275 N 
HETATM   28  C10 UNL     1      -2.139   0.987  10.904  1.00  0.00     0.266 A 
ATOM     29  H8  UNL     1      -1.334  -0.891  11.093  1.00  0.00     0.173 HD
HETATM   30  O6  UNL     1      -1.043   1.552  10.751  1.00  0.00    -0.267 OA
BRANCH  22  31
HETATM   31  O4  UNL     1      -5.722   1.638  11.079  1.00  0.00    -0.345 OA
ATOM     32  H4  UNL     1      -6.358   1.441  11.757  1.00  0.00     0.219 HD
ENDBRANCH  22  31
ENDBRANCH  20  21
ENDBRANCH  19  20
ENDBRANCH   3  19
TORSDOF 6
ENDMDL
MODEL 5
REMARK VINA RESULT: -8.257264954      1.389      5.046
REMARK  6 active torsions:
REMARK  status: ('A' for Active; 'I' for Inactive)
REMARK    1  A    between atoms: C2_5  and  C3_6 
REMARK    2  A    between atoms: N3_13  and  N4_15 
REMARK    3  A    between atoms: N5_17  and  N6_19 
REMARK    4  A    between atoms: N6_19  and  C6_20 
REMARK    5  A    between atoms: C6_20  and  C7_21 
REMARK    6  A    between atoms: C8_22  and  O4_23 
ROOT
HETATM    1  N4  UNL     1      -3.987   4.378  11.433  1.00  0.00    -0.216 N 
ATOM      2  H4  UNL     1      -4.432   4.629  10.550  1.00  0.00     0.211 HD
HETATM    3  N5  UNL     1      -4.455   4.779  12.544  1.00  0.00    -0.162 N 
ATOM      4  H5  UNL     1      -5.291   5.361  12.510  1.00  0.00     0.225 HD
ENDROOT
BRANCH   1   5
HETATM    5  N3  UNL     1      -2.842   3.580  11.467  1.00  0.00    -0.265 N 
HETATM    6  C5  UNL     1      -2.993   2.282  11.370  1.00  0.00     0.186 C 
HETATM    7  C1  UNL     1      -4.318   1.690  11.232  1.00  0.00     0.287 C 
HETATM    8  N2  UNL     1      -1.852   1.417  11.400  1.00  0.00    -0.368 N 
HETATM    9  O1  UNL     1      -5.332   2.433  11.203  1.00  0.00    -0.264 OA
HETATM   10  N1  UNL     1      -4.399   0.273  11.133  1.00  0.00    -0.338 N 
HETATM   11  C2  UNL     1      -3.264  -0.486  11.615  1.00  0.00     0.203 C 
ATOM     12  H1  UNL     1      -5.221  -0.188  10.740  1.00  0.00     0.163 HD
HETATM   13  C4  UNL     1      -2.041   0.063  10.914  1.00  0.00     0.157 C 
ATOM     14  H2  UNL     1      -0.948   1.738  11.747  1.00  0.00     0.161 HD
ATOM     15  H3  UNL     1      -1.915   3.995  11.564  1.00  0.00     0.190 HD
BRANCH  11  16
HETATM   16  C3  UNL     1      -3.428  -1.929  11.454  1.00  0.00     0.198 C 
HETATM   17  O2  UNL     1      -4.553  -2.456  11.380  1.00  0.00    -0.646 OA
HETATM   18  O3  UNL     1      -2.299  -2.728  11.382  1.00  0.00    -0.646 OA
ENDBRANCH  11  16
ENDBRANCH   1   5
BRANCH   3  19
HETATM   19  N6  UNL     1      -3.968   4.518  13.713  1.00  0.00    -0.321 NA
BRANCH  19  20
HETATM   20  C6  UNL     1      -3.789   3.968  14.767  1.00  0.00     0.232 C 
BRANCH  20  21
HETATM   21  C7  UNL     1      -4.595   2.937  15.400  1.00  0.00     0.114 A 
HETATM   22  C8  UNL     1      -5.992   3.076  15.428  1.00  0.00     0.162 A 
HETATM   23  N7  UNL     1      -6.805   2.173  15.991  1.00  0.00    -0.288 N 
HETATM   24  C9  UNL     1      -6.248   1.082  16.557  1.00  0.00     0.329 A 
ATOM     25  H7  UNL     1      -7.817   2.306  15.991  1.00  0.00     0.172 HD
HETATM   26  O5  UNL     1      -6.945   0.190  17.105  1.00  0.00    -0.247 OA
HETATM   27  N8  UNL     1      -4.932   0.924  16.546  1.00  0.00    -0.275 N 
HETATM   28  C10 UNL     1      -4.067   1.816  15.984  1.00  0.00     0.266 A 
ATOM     29  H8  UNL     1      -4.544   0.087  16.982  1.00  0.00     0.173 HD
HETATM   30  O6  UNL     1      -2.841   1.610  16.008  1.00  0.00    -0.267 OA
BRANCH  22  31
HETATM   31  O4  UNL     1      -6.571   4.206  14.843  1.00  0.00    -0.345 OA
ATOM     32  H4  UNL     1      -7.517   4.246  14.759  1.00  0.00     0.219 HD
ENDBRANCH  22  31
ENDBRANCH  20  21
ENDBRANCH  19  20
ENDBRANCH   3  19
TORSDOF 6
ENDMDL
