MODEL 1
REMARK VINA RESULT: -7.951864858      0.000      0.000
REMARK  7 active torsions:
REMARK  status: ('A' for Active; 'I' for Inactive)
REMARK    1  A    between atoms: C2_2  and  O1_3 
REMARK    2  A    between atoms: C2_2  and  N1_5 
REMARK    3  A    between atoms: N2_8  and  C5_9 
REMARK    4  A    between atoms: C5_9  and  C6_10 
REMARK    5  A    between atoms: C6_10  and  N3_11 
REMARK    6  A    between atoms: N3_11  and  C7_13 
REMARK    7  A    between atoms: C11_24  and  N7_25 
ROOT
HETATM    1  C7  UNL     1      -0.830   4.280  12.350  1.00  0.00     0.132 A 
HETATM    2  N4  UNL     1      -0.168   5.381  11.969  1.00  0.00    -0.337 N 
ATOM      3  H4  UNL     1      -0.049   6.147  12.632  1.00  0.00     0.168 HD
HETATM    4  C8  UNL     1       0.349   5.496  10.710  1.00  0.00     0.182 A 
HETATM    5  N5  UNL     1       0.210   4.504   9.807  1.00  0.00    -0.346 N 
ATOM      6  H5  UNL     1       0.605   4.610   8.872  1.00  0.00     0.167 HD
HETATM    7  C9  UNL     1      -0.452   3.364  10.136  1.00  0.00     0.133 A 
HETATM    8  C10 UNL     1      -0.597   2.350   9.220  1.00  0.00     0.288 A 
HETATM    9  O2  UNL     1      -0.141   2.411   8.057  1.00  0.00    -0.265 OA
HETATM   10  N6  UNL     1      -1.260   1.249   9.603  1.00  0.00    -0.154 N 
ATOM     11  H6  UNL     1      -1.381   0.482   8.941  1.00  0.00     0.187 HD
HETATM   12  C11 UNL     1      -1.774   1.135  10.855  1.00  0.00     0.679 A 
HETATM   13  N8  UNL     1      -1.627   2.132  11.742  1.00  0.00    -0.186 N 
ATOM     14  H8  UNL     1      -2.021   2.026  12.678  1.00  0.00     0.184 HD
HETATM   15  C12 UNL     1      -0.974   3.267  11.431  1.00  0.00     0.125 A 
ENDROOT
BRANCH   1  16
HETATM   16  N3  UNL     1      -1.307   4.166  13.504  1.00  0.00    -0.373 N 
ATOM     17  H3  UNL     1      -0.840   3.487  14.105  1.00  0.00     0.161 HD
BRANCH  16  18
HETATM   18  C6  UNL     1      -2.412   4.852  14.099  1.00  0.00     0.141 C 
BRANCH  18  19
HETATM   19  C5  UNL     1      -3.750   4.387  13.671  1.00  0.00     0.143 C 
BRANCH  19  20
HETATM   20  N2  UNL     1      -4.333   3.497  14.602  1.00  0.00    -0.374 N 
HETATM   21  C4  UNL     1      -5.591   3.912  15.135  1.00  0.00     0.140 C 
HETATM   22  C3  UNL     1      -6.356   2.789  15.797  1.00  0.00     0.136 C 
HETATM   23  N1  UNL     1      -5.410   1.913  16.431  1.00  0.00    -0.201 NA
HETATM   24  N9  UNL     1      -4.628   1.282  15.473  1.00  0.00    -0.313 N 
HETATM   25  C13 UNL     1      -4.320   2.116  14.324  1.00  0.00     0.190 C 
ATOM     26  H9  UNL     1      -4.300   0.321  15.568  1.00  0.00     0.181 HD
BRANCH  23  27
HETATM   27  C2  UNL     1      -6.104   0.932  17.245  1.00  0.00     0.208 C 
HETATM   28  C1  UNL     1      -7.585   1.086  16.976  1.00  0.00     0.058 C 
BRANCH  27  29
HETATM   29  O1  UNL     1      -5.739  -0.365  16.904  1.00  0.00    -0.380 OA
ATOM     30  H1  UNL     1      -5.764  -0.437  15.957  1.00  0.00     0.211 HD
ENDBRANCH  27  29
ENDBRANCH  23  27
ENDBRANCH  19  20
ENDBRANCH  18  19
ENDBRANCH  16  18
ENDBRANCH   1  16
BRANCH  12  31
HETATM   31  N7  UNL     1      -2.405   0.062  11.182  1.00  0.00    -0.234 N 
ATOM     32  H72 UNL     1      -2.765  -0.563  10.461  1.00  0.00     0.174 HD
ATOM     33  H71 UNL     1      -2.539  -0.157  12.170  1.00  0.00     0.174 HD
ENDBRANCH  12  31
TORSDOF 7
ENDMDL
MODEL 2
REMARK VINA RESULT: -7.483428298      1.547      1.737
REMARK  7 active torsions:
REMARK  status: ('A' for Active; 'I' for Inactive)
REMARK    1  A    between atoms: C2_2  and  O1_3 
REMARK    2  A    between atoms: C2_2  and  N1_5 
REMARK    3  A    between atoms: N2_8  and  C5_9 
REMARK    4  A    between atoms: C5_9  and  C6_10 
REMARK    5  A    between atoms: C6_10  and  N3_11 
REMARK    6  A    between atoms: N3_11  and  C7_13 
REMARK    7  A    between atoms: C11_24  and  N7_25 
ROOT
HETATM    1  C7  UNL     1      -3.533   4.517  11.318  1.00  0.00     0.132 A 
HETATM    2  N4  UNL     1      -2.795   5.514  10.810  1.00  0.00    -0.337 N 
ATOM      3  H4  UNL     1      -3.078   6.480  10.976  1.00  0.00     0.168 HD
HETATM    4  C8  UNL     1      -1.672   5.261  10.075  1.00  0.00     0.182 A 
HETATM    5  N5  UNL     1      -1.268   3.997   9.835  1.00  0.00    -0.346 N 
ATOM      6  H5  UNL     1      -0.426   3.829   9.284  1.00  0.00     0.167 HD
HETATM    7  C9  UNL     1      -1.976   2.945  10.323  1.00  0.00     0.133 A 
HETATM    8  C10 UNL     1      -1.570   1.655  10.082  1.00  0.00     0.288 A 
HETATM    9  O2  UNL     1      -0.550   1.375   9.415  1.00  0.00    -0.265 OA
HETATM   10  N6  UNL     1      -2.310   0.658  10.590  1.00  0.00    -0.154 N 
ATOM     11  H6  UNL     1      -2.029  -0.308  10.425  1.00  0.00     0.187 HD
HETATM   12  C11 UNL     1      -3.426   0.912  11.321  1.00  0.00     0.679 A 
HETATM   13  N8  UNL     1      -3.815   2.176  11.552  1.00  0.00    -0.186 N 
ATOM     14  H8  UNL     1      -4.657   2.343  12.103  1.00  0.00     0.184 HD
HETATM   15  C12 UNL     1      -3.124   3.228  11.073  1.00  0.00     0.125 A 
ENDROOT
BRANCH   1  16
HETATM   16  N3  UNL     1      -4.565   4.742  11.995  1.00  0.00    -0.373 N 
ATOM     17  H3  UNL     1      -5.430   4.364  11.610  1.00  0.00     0.161 HD
BRANCH  16  18
HETATM   18  C6  UNL     1      -4.702   5.453  13.227  1.00  0.00     0.141 C 
BRANCH  18  19
HETATM   19  C5  UNL     1      -3.799   5.014  14.315  1.00  0.00     0.143 C 
BRANCH  19  20
HETATM   20  N2  UNL     1      -4.356   3.968  15.087  1.00  0.00    -0.374 N 
HETATM   21  C4  UNL     1      -5.781   3.969  15.174  1.00  0.00     0.140 C 
HETATM   22  C3  UNL     1      -6.348   2.652  15.653  1.00  0.00     0.136 C 
HETATM   23  N1  UNL     1      -5.436   2.093  16.613  1.00  0.00    -0.201 NA
HETATM   24  N9  UNL     1      -4.243   1.750  15.993  1.00  0.00    -0.313 N 
HETATM   25  C13 UNL     1      -3.848   2.663  14.934  1.00  0.00     0.190 C 
ATOM     26  H9  UNL     1      -3.693   0.933  16.258  1.00  0.00     0.181 HD
BRANCH  23  27
HETATM   27  C2  UNL     1      -6.029   0.930  17.247  1.00  0.00     0.208 C 
HETATM   28  C1  UNL     1      -7.526   1.012  17.037  1.00  0.00     0.058 C 
BRANCH  27  29
HETATM   29  O1  UNL     1      -5.580  -0.252  16.670  1.00  0.00    -0.380 OA
ATOM     30  H1  UNL     1      -5.973  -0.325  15.808  1.00  0.00     0.211 HD
ENDBRANCH  27  29
ENDBRANCH  23  27
ENDBRANCH  19  20
ENDBRANCH  18  19
ENDBRANCH  16  18
ENDBRANCH   1  16
BRANCH  12  31
HETATM   31  N7  UNL     1      -4.109  -0.074  11.791  1.00  0.00    -0.234 N 
ATOM     32  H72 UNL     1      -3.726  -1.019  11.774  1.00  0.00     0.174 HD
ATOM     33  H71 UNL     1      -5.036   0.101  12.180  1.00  0.00     0.174 HD
ENDBRANCH  12  31
TORSDOF 7
ENDMDL
MODEL 3
REMARK VINA RESULT: -7.427074760      1.972      2.326
REMARK  7 active torsions:
REMARK  status: ('A' for Active; 'I' for Inactive)
REMARK    1  A    between atoms: C2_2  and  O1_3 
REMARK    2  A    between atoms: C2_2  and  N1_5 
REMARK    3  A    between atoms: N2_8  and  C5_9 
REMARK    4  A    between atoms: C5_9  and  C6_10 
REMARK    5  A    between atoms: C6_10  and  N3_11 
REMARK    6  A    between atoms: N3_11  and  C7_13 
REMARK    7  A    between atoms: C11_24  and  N7_25 
ROOT
HETATM    1  C7  UNL     1      -3.618   4.681  10.763  1.00  0.00     0.132 A 
HETATM    2  N4  UNL     1      -2.921   5.475   9.939  1.00  0.00    -0.337 N 
ATOM      3  H4  UNL     1      -3.194   6.452   9.837  1.00  0.00     0.168 HD
HETATM    4  C8  UNL     1      -1.853   5.000   9.233  1.00  0.00     0.182 A 
HETATM    5  N5  UNL     1      -1.463   3.713   9.342  1.00  0.00    -0.346 N 
ATOM      6  H5  UNL     1      -0.662   3.378   8.807  1.00  0.00     0.167 HD
HETATM    7  C9  UNL     1      -2.131   2.861  10.162  1.00  0.00     0.133 A 
HETATM    8  C10 UNL     1      -1.740   1.549  10.278  1.00  0.00     0.288 A 
HETATM    9  O2  UNL     1      -0.769   1.070   9.652  1.00  0.00    -0.265 OA
HETATM   10  N6  UNL     1      -2.439   0.756  11.103  1.00  0.00    -0.154 N 
ATOM     11  H6  UNL     1      -2.168  -0.222  11.206  1.00  0.00     0.187 HD
HETATM   12  C11 UNL     1      -3.501   1.230  11.805  1.00  0.00     0.679 A 
HETATM   13  N8  UNL     1      -3.876   2.513  11.685  1.00  0.00    -0.186 N 
ATOM     14  H8  UNL     1      -4.676   2.849  12.221  1.00  0.00     0.184 HD
HETATM   15  C12 UNL     1      -3.223   3.369  10.876  1.00  0.00     0.125 A 
ENDROOT
BRANCH   1  16
HETATM   16  N3  UNL     1      -4.599   5.111  11.415  1.00  0.00    -0.373 N 
ATOM     17  H3  UNL     1      -5.515   4.886  11.026  1.00  0.00     0.161 HD
BRANCH  16  18
HETATM   18  C6  UNL     1      -4.619   5.871  12.626  1.00  0.00     0.141 C 
BRANCH  18  19
HETATM   19  C5  UNL     1      -5.709   5.533  13.567  1.00  0.00     0.143 C 
BRANCH  19  20
HETATM   20  N2  UNL     1      -5.503   4.286  14.203  1.00  0.00    -0.374 N 
HETATM   21  C4  UNL     1      -4.144   3.977  14.510  1.00  0.00     0.140 C 
HETATM   22  C3  UNL     1      -4.002   2.860  15.519  1.00  0.00     0.136 C 
HETATM   23  N1  UNL     1      -5.061   1.915  15.295  1.00  0.00    -0.201 NA
HETATM   24  N9  UNL     1      -6.287   2.493  15.591  1.00  0.00    -0.313 N 
HETATM   25  C13 UNL     1      -6.370   3.903  15.247  1.00  0.00     0.190 C 
ATOM     26  H9  UNL     1      -7.059   1.977  16.012  1.00  0.00     0.181 HD
BRANCH  23  27
HETATM   27  C2  UNL     1      -4.852   0.729  16.106  1.00  0.00     0.208 C 
HETATM   28  C1  UNL     1      -5.991   0.653  17.100  1.00  0.00     0.058 C 
BRANCH  27  29
HETATM   29  O1  UNL     1      -4.877  -0.428  15.336  1.00  0.00    -0.380 OA
ATOM     30  H1  UNL     1      -3.981  -0.721  15.218  1.00  0.00     0.211 HD
ENDBRANCH  27  29
ENDBRANCH  23  27
ENDBRANCH  19  20
ENDBRANCH  18  19
ENDBRANCH  16  18
ENDBRANCH   1  16
BRANCH  12  31
HETATM   31  N7  UNL     1      -4.145   0.435  12.586  1.00  0.00    -0.234 N 
ATOM     32  H72 UNL     1      -4.992  -0.032  12.261  1.00  0.00     0.174 HD
ATOM     33  H71 UNL     1      -3.799   0.276  13.533  1.00  0.00     0.174 HD
ENDBRANCH  12  31
TORSDOF 7
ENDMDL
MODEL 4
REMARK VINA RESULT: -7.414873155      1.597      3.289
REMARK  7 active torsions:
REMARK  status: ('A' for Active; 'I' for Inactive)
REMARK    1  A    between atoms: C2_2  and  O1_3 
REMARK    2  A    between atoms: C2_2  and  N1_5 
REMARK    3  A    between atoms: N2_8  and  C5_9 
REMARK    4  A    between atoms: C5_9  and  C6_10 
REMARK    5  A    between atoms: C6_10  and  N3_11 
REMARK    6  A    between atoms: N3_11  and  C7_13 
REMARK    7  A    between atoms: C11_24  and  N7_25 
ROOT
HETATM    1  C7  UNL     1      -1.265   1.959  10.696  1.00  0.00     0.132 A 
HETATM    2  N4  UNL     1      -0.913   1.792   9.414  1.00  0.00    -0.337 N 
ATOM      3  H4  UNL     1      -1.000   0.871   8.987  1.00  0.00     0.168 HD
HETATM    4  C8  UNL     1      -0.439   2.835   8.669  1.00  0.00     0.182 A 
HETATM    5  N5  UNL     1      -0.309   4.068   9.199  1.00  0.00    -0.346 N 
ATOM      6  H5  UNL     1       0.046   4.833   8.625  1.00  0.00     0.167 HD
HETATM    7  C9  UNL     1      -0.650   4.297  10.494  1.00  0.00     0.133 A 
HETATM    8  C10 UNL     1      -0.520   5.551  11.041  1.00  0.00     0.288 A 
HETATM    9  O2  UNL     1      -0.092   6.534  10.398  1.00  0.00    -0.265 OA
HETATM   10  N6  UNL     1      -0.872   5.715  12.325  1.00  0.00    -0.154 N 
ATOM     11  H6  UNL     1      -0.785   6.637  12.754  1.00  0.00     0.187 HD
HETATM   12  C11 UNL     1      -1.344   4.679  13.065  1.00  0.00     0.679 A 
HETATM   13  N8  UNL     1      -1.467   3.457  12.522  1.00  0.00    -0.186 N 
ATOM     14  H8  UNL     1      -1.823   2.692  13.095  1.00  0.00     0.184 HD
HETATM   15  C12 UNL     1      -1.133   3.215  11.240  1.00  0.00     0.125 A 
ENDROOT
BRANCH   1  16
HETATM   16  N3  UNL     1      -1.702   1.007  11.386  1.00  0.00    -0.373 N 
ATOM     17  H3  UNL     1      -1.051   0.634  12.077  1.00  0.00     0.161 HD
BRANCH  16  18
HETATM   18  C6  UNL     1      -2.981   0.370  11.344  1.00  0.00     0.141 C 
BRANCH  18  19
HETATM   19  C5  UNL     1      -4.139   1.260  11.577  1.00  0.00     0.143 C 
BRANCH  19  20
HETATM   20  N2  UNL     1      -4.610   1.193  12.909  1.00  0.00    -0.374 N 
HETATM   21  C4  UNL     1      -4.200   0.038  13.641  1.00  0.00     0.140 C 
HETATM   22  C3  UNL     1      -4.377   0.188  15.136  1.00  0.00     0.136 C 
HETATM   23  N1  UNL     1      -5.557   0.972  15.372  1.00  0.00    -0.201 NA
HETATM   24  N9  UNL     1      -5.368   2.269  14.915  1.00  0.00    -0.313 N 
HETATM   25  C13 UNL     1      -4.564   2.354  13.707  1.00  0.00     0.190 C 
ATOM     26  H9  UNL     1      -5.757   3.087  15.383  1.00  0.00     0.181 HD
BRANCH  23  27
HETATM   27  C2  UNL     1      -5.879   0.977  16.787  1.00  0.00     0.208 C 
HETATM   28  C1  UNL     1      -7.317   1.430  16.925  1.00  0.00     0.058 C 
BRANCH  27  29
HETATM   29  O1  UNL     1      -5.776  -0.294  17.340  1.00  0.00    -0.380 OA
ATOM     30  H1  UNL     1      -4.863  -0.555  17.307  1.00  0.00     0.211 HD
ENDBRANCH  27  29
ENDBRANCH  23  27
ENDBRANCH  19  20
ENDBRANCH  18  19
ENDBRANCH  16  18
ENDBRANCH   1  16
BRANCH  12  31
HETATM   31  N7  UNL     1      -1.670   4.879  14.294  1.00  0.00    -0.234 N 
ATOM     32  H72 UNL     1      -1.917   5.815  14.615  1.00  0.00     0.174 HD
ATOM     33  H71 UNL     1      -1.681   4.091  14.943  1.00  0.00     0.174 HD
ENDBRANCH  12  31
TORSDOF 7
ENDMDL
MODEL 5
REMARK VINA RESULT: -7.400051429      1.873      3.107
REMARK  7 active torsions:
REMARK  status: ('A' for Active; 'I' for Inactive)
REMARK    1  A    between atoms: C2_2  and  O1_3 
REMARK    2  A    between atoms: C2_2  and  N1_5 
REMARK    3  A    between atoms: N2_8  and  C5_9 
REMARK    4  A    between atoms: C5_9  and  C6_10 
REMARK    5  A    between atoms: C6_10  and  N3_11 
REMARK    6  A    between atoms: N3_11  and  C7_13 
REMARK    7  A    between atoms: C11_24  and  N7_25 
ROOT
HETATM    1  C7  UNL     1      -0.449   3.197  10.929  1.00  0.00     0.132 A 
HETATM    2  N4  UNL     1      -1.105   2.676   9.883  1.00  0.00    -0.337 N 
ATOM      3  H4  UNL     1      -2.030   2.273  10.023  1.00  0.00     0.168 HD
HETATM    4  C8  UNL     1      -0.555   2.675   8.632  1.00  0.00     0.182 A 
HETATM    5  N5  UNL     1       0.667   3.200   8.408  1.00  0.00    -0.346 N 
ATOM      6  H5  UNL     1       1.059   3.190   7.466  1.00  0.00     0.167 HD
HETATM    7  C9  UNL     1       1.379   3.742   9.430  1.00  0.00     0.133 A 
HETATM    8  C10 UNL     1       2.625   4.278   9.209  1.00  0.00     0.288 A 
HETATM    9  O2  UNL     1       3.168   4.299   8.083  1.00  0.00    -0.265 OA
HETATM   10  N6  UNL     1       3.280   4.797  10.258  1.00  0.00    -0.154 N 
ATOM     11  H6  UNL     1       4.206   5.201  10.120  1.00  0.00     0.187 HD
HETATM   12  C11 UNL     1       2.733   4.798  11.501  1.00  0.00     0.679 A 
HETATM   13  N8  UNL     1       1.515   4.272  11.707  1.00  0.00    -0.186 N 
ATOM     14  H8  UNL     1       1.122   4.283  12.649  1.00  0.00     0.184 HD
HETATM   15  C12 UNL     1       0.798   3.731  10.704  1.00  0.00     0.125 A 
ENDROOT
BRANCH   1  16
HETATM   16  N3  UNL     1      -0.948   3.202  12.080  1.00  0.00    -0.373 N 
ATOM     17  H3  UNL     1      -0.484   2.599  12.759  1.00  0.00     0.161 HD
BRANCH  16  18
HETATM   18  C6  UNL     1      -2.072   3.931  12.576  1.00  0.00     0.141 C 
BRANCH  18  19
HETATM   19  C5  UNL     1      -3.390   3.302  12.339  1.00  0.00     0.143 C 
BRANCH  19  20
HETATM   20  N2  UNL     1      -3.938   2.741  13.516  1.00  0.00    -0.374 N 
HETATM   21  C4  UNL     1      -4.928   3.538  14.166  1.00  0.00     0.140 C 
HETATM   22  C3  UNL     1      -5.758   2.760  15.161  1.00  0.00     0.136 C 
HETATM   23  N1  UNL     1      -4.912   1.780  15.783  1.00  0.00    -0.201 NA
HETATM   24  N9  UNL     1      -4.514   0.832  14.850  1.00  0.00    -0.313 N 
HETATM   25  C13 UNL     1      -4.288   1.376  13.521  1.00  0.00     0.190 C 
ATOM     26  H9  UNL     1      -4.392  -0.155  15.076  1.00  0.00     0.181 HD
BRANCH  23  27
HETATM   27  C2  UNL     1      -5.611   1.142  16.884  1.00  0.00     0.208 C 
HETATM   28  C1  UNL     1      -7.012   1.712  16.923  1.00  0.00     0.058 C 
BRANCH  27  29
HETATM   29  O1  UNL     1      -5.712  -0.232  16.700  1.00  0.00    -0.380 OA
ATOM     30  H1  UNL     1      -5.008  -0.645  17.185  1.00  0.00     0.211 HD
ENDBRANCH  27  29
ENDBRANCH  23  27
ENDBRANCH  19  20
ENDBRANCH  18  19
ENDBRANCH  16  18
ENDBRANCH   1  16
BRANCH  12  31
HETATM   31  N7  UNL     1       3.395   5.307  12.481  1.00  0.00    -0.234 N 
ATOM     32  H72 UNL     1       4.292   4.909  12.757  1.00  0.00     0.174 HD
ATOM     33  H71 UNL     1       3.012   6.113  12.976  1.00  0.00     0.174 HD
ENDBRANCH  12  31
TORSDOF 7
ENDMDL
