MODEL 1
REMARK VINA RESULT: -7.225689742      0.000      0.000
REMARK  7 active torsions:
REMARK  status: ('A' for Active; 'I' for Inactive)
REMARK    1  A    between atoms: C1_4  and  S1_6 
REMARK    2  A    between atoms: S1_6  and  C2_7 
REMARK    3  A    between atoms: C2_7  and  C3_8 
REMARK    4  A    between atoms: C3_8  and  N3_9 
REMARK    5  A    between atoms: C4_10  and  N4_11 
REMARK    6  A    between atoms: C8_23  and  N9_24 
REMARK    7  A    between atoms: N10_27  and  O2_28 
ROOT
HETATM    1  N3  UNL     1      -4.563   2.639  12.991  1.00  0.00    -0.178 N 
HETATM    2  C4  UNL     1      -4.441   1.473  13.697  1.00  0.00     0.688 A 
HETATM    3  N7  UNL     1      -3.582   0.695  13.018  1.00  0.00    -0.183 N 
ATOM      4  H7  UNL     1      -3.301  -0.240  13.313  1.00  0.00     0.184 HD
HETATM    5  C6  UNL     1      -3.138   1.301  11.903  1.00  0.00     0.146 A 
HETATM    6  C7  UNL     1      -2.251   0.785  10.988  1.00  0.00     0.289 C 
HETATM    7  O1  UNL     1      -2.073  -0.452  11.040  1.00  0.00    -0.265 OA
HETATM    8  N8  UNL     1      -1.543   1.411  10.041  1.00  0.00    -0.152 N 
ATOM      9  H8  UNL     1      -0.857   0.857   9.529  1.00  0.00     0.187 HD
HETATM   10  C8  UNL     1      -1.659   2.720   9.702  1.00  0.00     0.705 C 
HETATM   11  N10 UNL     1      -2.617   3.614  10.027  1.00  0.00    -0.062 N 
HETATM   12  C9  UNL     1      -3.609   3.500  10.929  1.00  0.00     0.174 C 
HETATM   13  C10 UNL     1      -3.777   2.538  11.908  1.00  0.00     0.103 A 
ENDROOT
BRANCH   1  14
HETATM   14  C3  UNL     1      -5.383   3.781  13.341  1.00  0.00     0.158 C 
BRANCH  14  15
HETATM   15  C2  UNL     1      -4.889   4.506  14.575  1.00  0.00     0.103 C 
BRANCH  15  16
HETATM   16  S1  UNL     1      -3.614   5.671  14.096  1.00  0.00    -0.096 SA
BRANCH  16  17
HETATM   17  C1  UNL     1      -2.031   4.927  13.839  1.00  0.00     0.147 C 
HETATM   18  N1  UNL     1      -1.677   3.963  14.620  1.00  0.00    -0.382 N 
ATOM     19  H12 UNL     1      -0.764   3.533  14.472  1.00  0.00     0.157 HD
ATOM     20  H11 UNL     1      -2.331   3.679  15.350  1.00  0.00     0.157 HD
HETATM   21  N2  UNL     1      -1.122   5.322  12.827  1.00  0.00    -0.075 NA
ENDBRANCH  16  17
ENDBRANCH  15  16
ENDBRANCH  14  15
ENDBRANCH   1  14
BRANCH   2  22
HETATM   22  N4  UNL     1      -5.094   1.144  14.911  1.00  0.00    -0.165 N 
HETATM   23  C5  UNL     1      -4.456   1.179  16.012  1.00  0.00     0.215 C 
HETATM   24  N5  UNL     1      -5.130   0.845  17.217  1.00  0.00    -0.066 NA
HETATM   25  N6  UNL     1      -3.092   1.538  16.079  1.00  0.00    -0.066 NA
ATOM     26  H4  UNL     1      -6.079   0.879  14.903  1.00  0.00     0.186 HD
ENDBRANCH   2  22
BRANCH  11  27
HETATM   27  O2  UNL     1      -2.608   4.823   9.366  1.00  0.00    -0.270 OA
ATOM     28  H2  UNL     1      -3.013   4.857   8.508  1.00  0.00     0.245 HD
ENDBRANCH  11  27
BRANCH  10  29
HETATM   29  N9  UNL     1      -0.716   3.186   8.958  1.00  0.00    -0.232 N 
ATOM     30  H92 UNL     1       0.222   3.090   9.348  1.00  0.00     0.174 HD
ATOM     31  H91 UNL     1      -1.016   3.594   8.073  1.00  0.00     0.174 HD
ENDBRANCH  10  29
TORSDOF 7
ENDMDL
MODEL 2
REMARK VINA RESULT: -6.906976475      2.382      3.874
REMARK  7 active torsions:
REMARK  status: ('A' for Active; 'I' for Inactive)
REMARK    1  A    between atoms: C1_4  and  S1_6 
REMARK    2  A    between atoms: S1_6  and  C2_7 
REMARK    3  A    between atoms: C2_7  and  C3_8 
REMARK    4  A    between atoms: C3_8  and  N3_9 
REMARK    5  A    between atoms: C4_10  and  N4_11 
REMARK    6  A    between atoms: C8_23  and  N9_24 
REMARK    7  A    between atoms: N10_27  and  O2_28 
ROOT
HETATM    1  N3  UNL     1      -4.683   2.331  12.616  1.00  0.00    -0.178 N 
HETATM    2  C4  UNL     1      -4.846   2.623  13.943  1.00  0.00     0.688 A 
HETATM    3  N7  UNL     1      -4.523   3.916  14.100  1.00  0.00    -0.183 N 
ATOM      4  H7  UNL     1      -4.551   4.409  14.992  1.00  0.00     0.184 HD
HETATM    5  C6  UNL     1      -4.156   4.481  12.937  1.00  0.00     0.146 A 
HETATM    6  C7  UNL     1      -3.767   5.786  12.746  1.00  0.00     0.289 C 
HETATM    7  O1  UNL     1      -3.446   6.415  13.778  1.00  0.00    -0.265 OA
HETATM    8  N8  UNL     1      -3.679   6.492  11.613  1.00  0.00    -0.152 N 
ATOM      9  H8  UNL     1      -3.468   7.486  11.698  1.00  0.00     0.187 HD
HETATM   10  C8  UNL     1      -3.846   6.000  10.359  1.00  0.00     0.705 C 
HETATM   11  N10 UNL     1      -3.894   4.720   9.933  1.00  0.00    -0.062 N 
HETATM   12  C9  UNL     1      -3.982   3.591  10.660  1.00  0.00     0.174 C 
HETATM   13  C10 UNL     1      -4.266   3.452  12.006  1.00  0.00     0.103 A 
ENDROOT
BRANCH   1  14
HETATM   14  C3  UNL     1      -4.917   1.053  11.975  1.00  0.00     0.158 C 
BRANCH  14  15
HETATM   15  C2  UNL     1      -3.781   0.073  12.181  1.00  0.00     0.103 C 
BRANCH  15  16
HETATM   16  S1  UNL     1      -2.867  -0.091  10.648  1.00  0.00    -0.096 SA
BRANCH  16  17
HETATM   17  C1  UNL     1      -1.570   1.096  10.464  1.00  0.00     0.147 C 
HETATM   18  N1  UNL     1      -1.086   1.641  11.528  1.00  0.00    -0.382 N 
ATOM     19  H12 UNL     1      -0.338   2.326  11.422  1.00  0.00     0.157 HD
ATOM     20  H11 UNL     1      -1.479   1.357  12.426  1.00  0.00     0.157 HD
HETATM   21  N2  UNL     1      -1.026   1.491   9.216  1.00  0.00    -0.075 NA
ENDBRANCH  16  17
ENDBRANCH  15  16
ENDBRANCH  14  15
ENDBRANCH   1  14
BRANCH   2  22
HETATM   22  N4  UNL     1      -5.275   1.734  14.960  1.00  0.00    -0.165 N 
HETATM   23  C5  UNL     1      -4.456   1.334  15.849  1.00  0.00     0.215 C 
HETATM   24  N5  UNL     1      -4.907   0.442  16.859  1.00  0.00    -0.066 NA
HETATM   25  N6  UNL     1      -3.106   1.745  15.867  1.00  0.00    -0.066 NA
ATOM     26  H4  UNL     1      -6.243   1.414  14.980  1.00  0.00     0.186 HD
ENDBRANCH   2  22
BRANCH  11  27
HETATM   27  O2  UNL     1      -3.851   4.501   8.574  1.00  0.00    -0.270 OA
ATOM     28  H2  UNL     1      -3.967   3.608   8.270  1.00  0.00     0.245 HD
ENDBRANCH  11  27
BRANCH  10  29
HETATM   29  N9  UNL     1      -3.980   6.883   9.430  1.00  0.00    -0.232 N 
ATOM     30  H92 UNL     1      -3.158   7.468   9.276  1.00  0.00     0.174 HD
ATOM     31  H91 UNL     1      -4.885   6.892   8.960  1.00  0.00     0.174 HD
ENDBRANCH  10  29
TORSDOF 7
ENDMDL
MODEL 3
REMARK VINA RESULT: -6.906850554      2.388      4.321
REMARK  7 active torsions:
REMARK  status: ('A' for Active; 'I' for Inactive)
REMARK    1  A    between atoms: C1_4  and  S1_6 
REMARK    2  A    between atoms: S1_6  and  C2_7 
REMARK    3  A    between atoms: C2_7  and  C3_8 
REMARK    4  A    between atoms: C3_8  and  N3_9 
REMARK    5  A    between atoms: C4_10  and  N4_11 
REMARK    6  A    between atoms: C8_23  and  N9_24 
REMARK    7  A    between atoms: N10_27  and  O2_28 
ROOT
HETATM    1  N3  UNL     1      -3.516   1.118  12.071  1.00  0.00    -0.178 N 
HETATM    2  C4  UNL     1      -3.176   0.034  11.309  1.00  0.00     0.688 A 
HETATM    3  N7  UNL     1      -2.137   0.406  10.544  1.00  0.00    -0.183 N 
ATOM      4  H7  UNL     1      -1.673  -0.205   9.872  1.00  0.00     0.184 HD
HETATM    5  C6  UNL     1      -1.784   1.682  10.772  1.00  0.00     0.146 A 
HETATM    6  C7  UNL     1      -0.764   2.372  10.162  1.00  0.00     0.289 C 
HETATM    7  O1  UNL     1      -0.323   1.870   9.105  1.00  0.00    -0.265 OA
HETATM    8  N8  UNL     1      -0.166   3.512  10.529  1.00  0.00    -0.152 N 
ATOM      9  H8  UNL     1       0.648   3.806   9.989  1.00  0.00     0.187 HD
HETATM   10  C8  UNL     1      -0.549   4.310  11.557  1.00  0.00     0.705 C 
HETATM   11  N10 UNL     1      -1.692   4.306  12.274  1.00  0.00    -0.062 N 
HETATM   12  C9  UNL     1      -2.677   3.388  12.289  1.00  0.00     0.174 C 
HETATM   13  C10 UNL     1      -2.677   2.115  11.749  1.00  0.00     0.103 A 
ENDROOT
BRANCH   1  14
HETATM   14  C3  UNL     1      -4.581   1.189  13.051  1.00  0.00     0.158 C 
BRANCH  14  15
HETATM   15  C2  UNL     1      -4.183   0.619  14.396  1.00  0.00     0.103 C 
BRANCH  15  16
HETATM   16  S1  UNL     1      -4.581   1.812  15.675  1.00  0.00    -0.096 SA
BRANCH  16  17
HETATM   17  C1  UNL     1      -5.723   1.207  16.880  1.00  0.00     0.147 C 
HETATM   18  N1  UNL     1      -6.382   2.066  17.581  1.00  0.00    -0.382 N 
ATOM     19  H12 UNL     1      -7.042   1.717  18.276  1.00  0.00     0.157 HD
ATOM     20  H11 UNL     1      -6.209   3.055  17.403  1.00  0.00     0.157 HD
HETATM   21  N2  UNL     1      -5.964  -0.168  17.127  1.00  0.00    -0.075 NA
ENDBRANCH  16  17
ENDBRANCH  15  16
ENDBRANCH  14  15
ENDBRANCH   1  14
BRANCH   2  22
HETATM   22  N4  UNL     1      -3.798  -1.240  11.322  1.00  0.00    -0.165 N 
HETATM   23  C5  UNL     1      -3.092  -2.297  11.382  1.00  0.00     0.215 C 
HETATM   24  N5  UNL     1      -3.736  -3.564  11.393  1.00  0.00    -0.066 NA
HETATM   25  N6  UNL     1      -1.682  -2.258  11.437  1.00  0.00    -0.066 NA
ATOM     26  H4  UNL     1      -4.815  -1.309  11.283  1.00  0.00     0.186 HD
ENDBRANCH   2  22
BRANCH  11  27
HETATM   27  O2  UNL     1      -1.916   5.370  13.120  1.00  0.00    -0.270 OA
ATOM     28  H2  UNL     1      -2.538   6.031  12.838  1.00  0.00     0.245 HD
ENDBRANCH  11  27
BRANCH  10  29
HETATM   29  N9  UNL     1       0.304   5.210  11.908  1.00  0.00    -0.232 N 
ATOM     30  H92 UNL     1       1.190   4.845  12.258  1.00  0.00     0.174 HD
ATOM     31  H91 UNL     1      -0.005   6.176  11.794  1.00  0.00     0.174 HD
ENDBRANCH  10  29
TORSDOF 7
ENDMDL
MODEL 4
REMARK VINA RESULT: -6.890240592      3.201      6.431
REMARK  7 active torsions:
REMARK  status: ('A' for Active; 'I' for Inactive)
REMARK    1  A    between atoms: C1_4  and  S1_6 
REMARK    2  A    between atoms: S1_6  and  C2_7 
REMARK    3  A    between atoms: C2_7  and  C3_8 
REMARK    4  A    between atoms: C3_8  and  N3_9 
REMARK    5  A    between atoms: C4_10  and  N4_11 
REMARK    6  A    between atoms: C8_23  and  N9_24 
REMARK    7  A    between atoms: N10_27  and  O2_28 
ROOT
HETATM    1  N3  UNL     1      -4.059   3.869  13.645  1.00  0.00    -0.178 N 
HETATM    2  C4  UNL     1      -4.473   5.136  13.956  1.00  0.00     0.688 A 
HETATM    3  N7  UNL     1      -5.401   5.018  14.919  1.00  0.00    -0.183 N 
ATOM      4  H7  UNL     1      -5.887   5.806  15.346  1.00  0.00     0.184 HD
HETATM    5  C6  UNL     1      -5.611   3.732  15.251  1.00  0.00     0.146 A 
HETATM    6  C7  UNL     1      -6.489   3.263  16.198  1.00  0.00     0.289 C 
HETATM    7  O1  UNL     1      -7.372   4.069  16.569  1.00  0.00    -0.265 OA
HETATM    8  N8  UNL     1      -6.546   2.064  16.789  1.00  0.00    -0.152 N 
ATOM      9  H8  UNL     1      -7.217   1.950  17.549  1.00  0.00     0.187 HD
HETATM   10  C8  UNL     1      -5.787   0.987  16.466  1.00  0.00     0.705 C 
HETATM   11  N10 UNL     1      -5.010   0.771  15.384  1.00  0.00    -0.062 N 
HETATM   12  C9  UNL     1      -4.628   1.641  14.431  1.00  0.00     0.174 C 
HETATM   13  C10 UNL     1      -4.744   3.019  14.426  1.00  0.00     0.103 A 
ENDROOT
BRANCH   1  14
HETATM   14  C3  UNL     1      -3.062   3.501  12.660  1.00  0.00     0.158 C 
BRANCH  14  15
HETATM   15  C2  UNL     1      -3.669   2.994  11.369  1.00  0.00     0.103 C 
BRANCH  15  16
HETATM   16  S1  UNL     1      -2.990   1.377  11.000  1.00  0.00    -0.096 SA
BRANCH  16  17
HETATM   17  C1  UNL     1      -4.200   0.088  10.972  1.00  0.00     0.147 C 
HETATM   18  N1  UNL     1      -4.152  -0.813  11.894  1.00  0.00    -0.382 N 
ATOM     19  H12 UNL     1      -4.851  -1.557  11.878  1.00  0.00     0.157 HD
ATOM     20  H11 UNL     1      -3.415  -0.736  12.595  1.00  0.00     0.157 HD
HETATM   21  N2  UNL     1      -5.224  -0.019   9.998  1.00  0.00    -0.075 NA
ENDBRANCH  16  17
ENDBRANCH  15  16
ENDBRANCH  14  15
ENDBRANCH   1  14
BRANCH   2  22
HETATM   22  N4  UNL     1      -4.013   6.345  13.375  1.00  0.00    -0.165 N 
HETATM   23  C5  UNL     1      -4.694   6.918  12.466  1.00  0.00     0.215 C 
HETATM   24  N5  UNL     1      -4.214   8.129  11.897  1.00  0.00    -0.066 NA
HETATM   25  N6  UNL     1      -5.917   6.392  11.997  1.00  0.00    -0.066 NA
ATOM     26  H4  UNL     1      -3.134   6.756  13.687  1.00  0.00     0.186 HD
ENDBRANCH   2  22
BRANCH  11  27
HETATM   27  O2  UNL     1      -4.520  -0.503  15.197  1.00  0.00    -0.270 OA
ATOM     28  H2  UNL     1      -4.480  -1.073  15.955  1.00  0.00     0.245 HD
ENDBRANCH  11  27
BRANCH  10  29
HETATM   29  N9  UNL     1      -5.807   0.019  17.317  1.00  0.00    -0.232 N 
ATOM     30  H92 UNL     1      -5.033  -0.641  17.230  1.00  0.00     0.174 HD
ATOM     31  H91 UNL     1      -6.588   0.026  17.973  1.00  0.00     0.174 HD
ENDBRANCH  10  29
TORSDOF 7
ENDMDL
MODEL 5
REMARK VINA RESULT: -6.870934227      2.425      4.739
REMARK  7 active torsions:
REMARK  status: ('A' for Active; 'I' for Inactive)
REMARK    1  A    between atoms: C1_4  and  S1_6 
REMARK    2  A    between atoms: S1_6  and  C2_7 
REMARK    3  A    between atoms: C2_7  and  C3_8 
REMARK    4  A    between atoms: C3_8  and  N3_9 
REMARK    5  A    between atoms: C4_10  and  N4_11 
REMARK    6  A    between atoms: C8_23  and  N9_24 
REMARK    7  A    between atoms: N10_27  and  O2_28 
ROOT
HETATM    1  N3  UNL     1      -4.696   3.602  12.979  1.00  0.00    -0.178 N 
HETATM    2  C4  UNL     1      -4.115   4.715  12.433  1.00  0.00     0.688 A 
HETATM    3  N7  UNL     1      -3.081   4.289  11.689  1.00  0.00    -0.183 N 
ATOM      4  H7  UNL     1      -2.463   4.905  11.162  1.00  0.00     0.184 HD
HETATM    5  C6  UNL     1      -2.961   2.950  11.725  1.00  0.00     0.146 A 
HETATM    6  C7  UNL     1      -2.015   2.194  11.076  1.00  0.00     0.289 C 
HETATM    7  O1  UNL     1      -1.011   2.816  10.662  1.00  0.00    -0.265 OA
HETATM    8  N8  UNL     1      -2.002   0.881  10.818  1.00  0.00    -0.152 N 
ATOM      9  H8  UNL     1      -1.248   0.530  10.228  1.00  0.00     0.187 HD
HETATM   10  C8  UNL     1      -2.904  -0.023  11.275  1.00  0.00     0.705 C 
HETATM   11  N10 UNL     1      -3.840   0.103  12.239  1.00  0.00    -0.062 N 
HETATM   12  C9  UNL     1      -4.257   1.215  12.872  1.00  0.00     0.174 C 
HETATM   13  C10 UNL     1      -4.002   2.536  12.553  1.00  0.00     0.103 A 
ENDROOT
BRANCH   1  14
HETATM   14  C3  UNL     1      -5.850   3.569  13.854  1.00  0.00     0.158 C 
BRANCH  14  15
HETATM   15  C2  UNL     1      -5.482   3.660  15.320  1.00  0.00     0.103 C 
BRANCH  15  16
HETATM   16  S1  UNL     1      -6.354   2.378  16.220  1.00  0.00    -0.096 SA
BRANCH  16  17
HETATM   17  C1  UNL     1      -5.330   1.015  16.686  1.00  0.00     0.147 C 
HETATM   18  N1  UNL     1      -5.852   0.077  17.402  1.00  0.00    -0.382 N 
ATOM     19  H12 UNL     1      -5.261  -0.710  17.670  1.00  0.00     0.157 HD
ATOM     20  H11 UNL     1      -6.834   0.171  17.663  1.00  0.00     0.157 HD
HETATM   21  N2  UNL     1      -3.966   0.885  16.324  1.00  0.00    -0.075 NA
ENDBRANCH  16  17
ENDBRANCH  15  16
ENDBRANCH  14  15
ENDBRANCH   1  14
BRANCH   2  22
HETATM   22  N4  UNL     1      -4.522   6.060  12.614  1.00  0.00    -0.165 N 
HETATM   23  C5  UNL     1      -5.204   6.650  11.716  1.00  0.00     0.215 C 
HETATM   24  N5  UNL     1      -5.602   7.999  11.918  1.00  0.00    -0.066 NA
HETATM   25  N6  UNL     1      -5.582   6.009  10.516  1.00  0.00    -0.066 NA
ATOM     26  H4  UNL     1      -4.268   6.557  13.468  1.00  0.00     0.186 HD
ENDBRANCH   2  22
BRANCH  11  27
HETATM   27  O2  UNL     1      -4.480  -1.044  12.657  1.00  0.00    -0.270 OA
ATOM     28  H2  UNL     1      -4.668  -1.128  13.585  1.00  0.00     0.245 HD
ENDBRANCH  11  27
BRANCH  10  29
HETATM   29  N9  UNL     1      -2.869  -1.179  10.706  1.00  0.00    -0.232 N 
ATOM     30  H92 UNL     1      -2.112  -1.299  10.032  1.00  0.00     0.174 HD
ATOM     31  H91 UNL     1      -3.595  -1.833  10.995  1.00  0.00     0.174 HD
ENDBRANCH  10  29
TORSDOF 7
ENDMDL
