MODEL 1
REMARK VINA RESULT: -6.188899047      0.000      0.000
REMARK  12 active torsions:
REMARK  status: ('A' for Active; 'I' for Inactive)
REMARK    1  A    between atoms: O1_2  and  C2_3 
REMARK    2  A    between atoms: C2_3  and  C3_5 
REMARK    3  A    between atoms: C4_6  and  N1_7 
REMARK    4  A    between atoms: N1_7  and  C5_9 
REMARK    5  A    between atoms: C7_16  and  C8_17 
REMARK    6  A    between atoms: C8_17  and  N4_18 
REMARK    7  A    between atoms: C8_17  and  O3_22 
REMARK    8  A    between atoms: C9_24  and  C10_25 
REMARK    9  A    between atoms: C10_25  and  O4_26 
REMARK   10  A    between atoms: C10_25  and  C11_28 
REMARK   11  A    between atoms: N5_33  and  N6_35 
REMARK   12  A    between atoms: C14_42  and  O8_43 
ROOT
HETATM    1  C5  UNL     1     112.734  52.342  16.461  1.00  0.00     0.230 A 
HETATM    2  N2  UNL     1     114.064  52.394  16.484  1.00  0.00    -0.308 N 
ATOM      3  H2  UNL     1     114.549  52.222  17.364  1.00  0.00     0.171 HD
HETATM    4  C6  UNL     1     114.780  52.662  15.402  1.00  0.00     0.115 A 
HETATM    5  N3  UNL     1     116.056  52.702  15.468  1.00  0.00    -0.385 N 
ATOM      6  H31 UNL     1     116.607  52.908  14.636  1.00  0.00     0.157 HD
ATOM      7  H32 UNL     1     116.564  52.533  16.337  1.00  0.00     0.157 HD
HETATM    8  C7  UNL     1     114.073  52.896  14.193  1.00  0.00     0.074 A 
HETATM    9  C9  UNL     1     112.715  52.843  14.178  1.00  0.00     0.110 A 
HETATM   10  O7  UNL     1     112.129  52.559  15.352  1.00  0.00    -0.280 OA
ENDROOT
BRANCH   1  11
HETATM   11  N1  UNL     1     112.028  52.043  17.679  1.00  0.00    -0.319 N 
ATOM     12  H1  UNL     1     111.953  52.772  18.388  1.00  0.00     0.169 HD
BRANCH  11  13
HETATM   13  C4  UNL     1     111.440  50.796  17.934  1.00  0.00     0.086 C 
HETATM   14  C3  UNL     1     111.912  50.030  18.886  1.00  0.00     0.117 C 
HETATM   15  C15 UNL     1     111.350  48.699  19.179  1.00  0.00     0.202 C 
HETATM   16  C14 UNL     1     110.655  47.978  18.050  1.00  0.00     0.244 C 
HETATM   17  O9  UNL     1     111.423  48.155  20.303  1.00  0.00    -0.289 OA
HETATM   18  C13 UNL     1     109.684  49.005  17.506  1.00  0.00     0.070 C 
HETATM   19  C12 UNL     1     110.263  50.300  17.171  1.00  0.00     0.100 C 
HETATM   20  N7  UNL     1     108.462  48.761  17.378  1.00  0.00    -0.398 N 
HETATM   21  N5  UNL     1     109.813  51.016  16.245  1.00  0.00    -0.303 N 
ATOM     22  H5  UNL     1     110.335  51.885  16.132  1.00  0.00     0.186 HD
ATOM     23  H72 UNL     1     107.808  49.453  17.012  1.00  0.00     0.156 HD
ATOM     24  H71 UNL     1     108.057  47.855  17.612  1.00  0.00     0.156 HD
BRANCH  14  25
HETATM   25  C2  UNL     1     113.061  50.459  19.707  1.00  0.00     0.299 C 
HETATM   26  O2  UNL     1     112.984  51.452  20.469  1.00  0.00    -0.259 OA
BRANCH  25  27
HETATM   27  O1  UNL     1     114.258  49.778  19.661  1.00  0.00    -0.322 OA
HETATM   28  C1  UNL     1     114.916  49.477  18.445  1.00  0.00     0.213 C 
ENDBRANCH  25  27
ENDBRANCH  14  25
BRANCH  16  29
HETATM   29  O8  UNL     1     109.928  46.936  18.573  1.00  0.00    -0.381 OA
ATOM     30  H8  UNL     1     110.490  46.453  19.168  1.00  0.00     0.211 HD
ENDBRANCH  16  29
BRANCH  21  31
HETATM   31  N6  UNL     1     108.796  50.903  15.364  1.00  0.00    -0.345 N 
ATOM     32  H62 UNL     1     108.460  49.941  15.309  1.00  0.00     0.176 HD
ATOM     33  H61 UNL     1     108.299  51.551  14.754  1.00  0.00     0.176 HD
ENDBRANCH  21  31
ENDBRANCH  11  13
ENDBRANCH   1  11
BRANCH   9  34
HETATM   34  C10 UNL     1     111.879  53.069  13.009  1.00  0.00     0.276 C 
BRANCH  34  35
HETATM   35  O4  UNL     1     111.700  52.073  12.109  1.00  0.00    -0.378 OA
ATOM     36  H4  UNL     1     112.231  52.049  11.323  1.00  0.00     0.211 HD
ENDBRANCH  34  35
BRANCH  34  37
HETATM   37  C11 UNL     1     110.592  53.749  13.353  1.00  0.00     0.209 C 
HETATM   38  O5  UNL     1     110.577  54.990  13.421  1.00  0.00    -0.646 OA
HETATM   39  O6  UNL     1     109.447  53.030  13.589  1.00  0.00    -0.646 OA
ENDBRANCH  34  37
ENDBRANCH   9  34
BRANCH   8  40
HETATM   40  C8  UNL     1     114.949  53.182  13.064  1.00  0.00     0.357 C 
BRANCH  40  41
HETATM   41  N4  UNL     1     114.723  54.616  12.707  1.00  0.00    -0.049 N 
ATOM     42  H43 UNL     1     113.738  54.880  12.698  1.00  0.00     0.277 HD
ATOM     43  H42 UNL     1     115.021  55.265  13.435  1.00  0.00     0.277 HD
ATOM     44  H41 UNL     1     115.190  54.767  11.813  1.00  0.00     0.277 HD
ENDBRANCH  40  41
BRANCH  40  45
HETATM   45  O3  UNL     1     114.546  52.433  11.946  1.00  0.00    -0.366 OA
ATOM     46  H3  UNL     1     115.270  51.902  11.635  1.00  0.00     0.212 HD
ENDBRANCH  40  45
ENDBRANCH   8  40
TORSDOF 12
ENDMDL
MODEL 2
REMARK VINA RESULT: -5.950674876      2.738      6.552
REMARK  12 active torsions:
REMARK  status: ('A' for Active; 'I' for Inactive)
REMARK    1  A    between atoms: O1_2  and  C2_3 
REMARK    2  A    between atoms: C2_3  and  C3_5 
REMARK    3  A    between atoms: C4_6  and  N1_7 
REMARK    4  A    between atoms: N1_7  and  C5_9 
REMARK    5  A    between atoms: C7_16  and  C8_17 
REMARK    6  A    between atoms: C8_17  and  N4_18 
REMARK    7  A    between atoms: C8_17  and  O3_22 
REMARK    8  A    between atoms: C9_24  and  C10_25 
REMARK    9  A    between atoms: C10_25  and  O4_26 
REMARK   10  A    between atoms: C10_25  and  C11_28 
REMARK   11  A    between atoms: N5_33  and  N6_35 
REMARK   12  A    between atoms: C14_42  and  O8_43 
ROOT
HETATM    1  C5  UNL     1     112.726  51.708  17.374  1.00  0.00     0.230 A 
HETATM    2  N2  UNL     1     113.534  51.870  18.421  1.00  0.00    -0.308 N 
ATOM      3  H2  UNL     1     114.335  52.494  18.332  1.00  0.00     0.171 HD
HETATM    4  C6  UNL     1     113.333  51.248  19.572  1.00  0.00     0.115 A 
HETATM    5  N3  UNL     1     114.133  51.432  20.552  1.00  0.00    -0.385 N 
ATOM      6  H31 UNL     1     113.978  50.953  21.439  1.00  0.00     0.157 HD
ATOM      7  H32 UNL     1     114.942  52.051  20.489  1.00  0.00     0.157 HD
HETATM    8  C7  UNL     1     112.207  50.386  19.660  1.00  0.00     0.074 A 
HETATM    9  C9  UNL     1     111.389  50.225  18.588  1.00  0.00     0.110 A 
HETATM   10  O7  UNL     1     111.720  50.923  17.490  1.00  0.00    -0.280 OA
ENDROOT
BRANCH   1  11
HETATM   11  N1  UNL     1     113.013  52.421  16.158  1.00  0.00    -0.319 N 
ATOM     12  H1  UNL     1     113.900  52.244  15.688  1.00  0.00     0.169 HD
BRANCH  11  13
HETATM   13  C4  UNL     1     112.128  53.348  15.590  1.00  0.00     0.086 C 
HETATM   14  C3  UNL     1     112.101  54.583  16.025  1.00  0.00     0.117 C 
HETATM   15  C15 UNL     1     111.172  55.592  15.484  1.00  0.00     0.202 C 
HETATM   16  C14 UNL     1     109.885  55.090  14.877  1.00  0.00     0.244 C 
HETATM   17  O9  UNL     1     111.404  56.820  15.505  1.00  0.00    -0.289 OA
HETATM   18  C13 UNL     1     110.333  54.012  13.912  1.00  0.00     0.070 C 
HETATM   19  C12 UNL     1     111.210  52.993  14.474  1.00  0.00     0.100 C 
HETATM   20  N7  UNL     1     109.992  54.016  12.707  1.00  0.00    -0.398 N 
HETATM   21  N5  UNL     1     111.212  51.809  14.060  1.00  0.00    -0.303 N 
ATOM     22  H5  UNL     1     111.874  51.218  14.564  1.00  0.00     0.186 HD
ATOM     23  H72 UNL     1     110.294  53.291  12.057  1.00  0.00     0.156 HD
ATOM     24  H71 UNL     1     109.378  54.730  12.314  1.00  0.00     0.156 HD
BRANCH  14  25
HETATM   25  C2  UNL     1     112.998  55.025  17.112  1.00  0.00     0.299 C 
HETATM   26  O2  UNL     1     112.632  54.998  18.311  1.00  0.00    -0.259 OA
BRANCH  25  27
HETATM   27  O1  UNL     1     114.269  55.482  16.840  1.00  0.00    -0.322 OA
HETATM   28  C1  UNL     1     115.423  54.919  17.434  1.00  0.00     0.213 C 
ENDBRANCH  25  27
ENDBRANCH  14  25
BRANCH  16  29
HETATM   29  O8  UNL     1     109.314  56.106  14.149  1.00  0.00    -0.381 OA
ATOM     30  H8  UNL     1     108.410  56.198  14.428  1.00  0.00     0.211 HD
ENDBRANCH  16  29
BRANCH  21  31
HETATM   31  N6  UNL     1     110.542  51.136  13.101  1.00  0.00    -0.345 N 
ATOM     32  H62 UNL     1     110.896  51.364  12.172  1.00  0.00     0.176 HD
ATOM     33  H61 UNL     1     109.775  50.463  13.098  1.00  0.00     0.176 HD
ENDBRANCH  21  31
ENDBRANCH  11  13
ENDBRANCH   1  11
BRANCH   9  34
HETATM   34  C10 UNL     1     110.212  49.370  18.550  1.00  0.00     0.276 C 
BRANCH  34  35
HETATM   35  O4  UNL     1     109.083  49.808  17.943  1.00  0.00    -0.378 OA
ATOM     36  H4  UNL     1     108.715  49.313  17.221  1.00  0.00     0.211 HD
ENDBRANCH  34  35
BRANCH  34  37
HETATM   37  C11 UNL     1     110.543  47.963  18.166  1.00  0.00     0.209 C 
HETATM   38  O5  UNL     1     109.643  47.107  18.221  1.00  0.00    -0.646 OA
HETATM   39  O6  UNL     1     111.806  47.613  17.761  1.00  0.00    -0.646 OA
ENDBRANCH  34  37
ENDBRANCH   9  34
BRANCH   8  40
HETATM   40  C8  UNL     1     112.074  49.750  20.965  1.00  0.00     0.357 C 
BRANCH  40  41
HETATM   41  N4  UNL     1     112.521  48.335  20.792  1.00  0.00    -0.049 N 
ATOM     42  H43 UNL     1     112.259  47.729  21.570  1.00  0.00     0.277 HD
ATOM     43  H42 UNL     1     112.009  47.835  20.064  1.00  0.00     0.277 HD
ATOM     44  H41 UNL     1     113.527  48.368  20.627  1.00  0.00     0.277 HD
ENDBRANCH  40  41
BRANCH  40  45
HETATM   45  O3  UNL     1     110.718  49.689  21.330  1.00  0.00    -0.366 OA
ATOM     46  H3  UNL     1     110.174  49.697  20.551  1.00  0.00     0.212 HD
ENDBRANCH  40  45
ENDBRANCH   8  40
TORSDOF 12
ENDMDL
MODEL 3
REMARK VINA RESULT: -5.919596502      2.688      4.650
REMARK  12 active torsions:
REMARK  status: ('A' for Active; 'I' for Inactive)
REMARK    1  A    between atoms: O1_2  and  C2_3 
REMARK    2  A    between atoms: C2_3  and  C3_5 
REMARK    3  A    between atoms: C4_6  and  N1_7 
REMARK    4  A    between atoms: N1_7  and  C5_9 
REMARK    5  A    between atoms: C7_16  and  C8_17 
REMARK    6  A    between atoms: C8_17  and  N4_18 
REMARK    7  A    between atoms: C8_17  and  O3_22 
REMARK    8  A    between atoms: C9_24  and  C10_25 
REMARK    9  A    between atoms: C10_25  and  O4_26 
REMARK   10  A    between atoms: C10_25  and  C11_28 
REMARK   11  A    between atoms: N5_33  and  N6_35 
REMARK   12  A    between atoms: C14_42  and  O8_43 
ROOT
HETATM    1  C5  UNL     1     111.806  51.031  16.600  1.00  0.00     0.230 A 
HETATM    2  N2  UNL     1     111.270  50.754  15.413  1.00  0.00    -0.308 N 
ATOM      3  H2  UNL     1     111.210  49.780  15.115  1.00  0.00     0.171 HD
HETATM    4  C6  UNL     1     110.811  51.698  14.606  1.00  0.00     0.115 A 
HETATM    5  N3  UNL     1     110.303  51.387  13.474  1.00  0.00    -0.385 N 
ATOM      6  H31 UNL     1     109.950  52.115  12.853  1.00  0.00     0.157 HD
ATOM      7  H32 UNL     1     110.233  50.421  13.154  1.00  0.00     0.157 HD
HETATM    8  C7  UNL     1     110.909  53.043  15.052  1.00  0.00     0.074 A 
HETATM    9  C9  UNL     1     111.459  53.318  16.264  1.00  0.00     0.110 A 
HETATM   10  O7  UNL     1     111.878  52.256  16.970  1.00  0.00    -0.280 OA
ENDROOT
BRANCH   1  11
HETATM   11  N1  UNL     1     112.281  49.948  17.420  1.00  0.00    -0.319 N 
ATOM     12  H1  UNL     1     112.677  49.128  16.961  1.00  0.00     0.169 HD
BRANCH  11  13
HETATM   13  C4  UNL     1     112.223  49.969  18.821  1.00  0.00     0.086 C 
HETATM   14  C3  UNL     1     111.330  49.247  19.452  1.00  0.00     0.117 C 
HETATM   15  C15 UNL     1     111.207  49.252  20.921  1.00  0.00     0.202 C 
HETATM   16  C14 UNL     1     111.677  50.487  21.649  1.00  0.00     0.244 C 
HETATM   17  O9  UNL     1     110.740  48.293  21.574  1.00  0.00    -0.289 OA
HETATM   18  C13 UNL     1     113.066  50.729  21.097  1.00  0.00     0.070 C 
HETATM   19  C12 UNL     1     113.165  50.773  19.645  1.00  0.00     0.100 C 
HETATM   20  N7  UNL     1     114.065  50.855  21.844  1.00  0.00    -0.398 N 
HETATM   21  N5  UNL     1     114.013  51.482  19.052  1.00  0.00    -0.303 N 
ATOM     22  H5  UNL     1     113.943  51.411  18.036  1.00  0.00     0.186 HD
ATOM     23  H72 UNL     1     115.000  51.018  21.473  1.00  0.00     0.156 HD
ATOM     24  H71 UNL     1     113.995  50.824  22.861  1.00  0.00     0.156 HD
BRANCH  14  25
HETATM   25  C2  UNL     1     110.375  48.400  18.710  1.00  0.00     0.299 C 
HETATM   26  O2  UNL     1     110.633  47.201  18.450  1.00  0.00    -0.259 OA
BRANCH  25  27
HETATM   27  O1  UNL     1     109.167  48.904  18.280  1.00  0.00    -0.322 OA
HETATM   28  C1  UNL     1     108.378  48.256  17.301  1.00  0.00     0.213 C 
ENDBRANCH  25  27
ENDBRANCH  14  25
BRANCH  16  29
HETATM   29  O8  UNL     1     111.792  50.193  22.987  1.00  0.00    -0.381 OA
ATOM     30  H8  UNL     1     112.714  50.077  23.186  1.00  0.00     0.211 HD
ENDBRANCH  16  29
BRANCH  21  31
HETATM   31  N6  UNL     1     114.996  52.319  19.447  1.00  0.00    -0.345 N 
ATOM     32  H62 UNL     1     114.727  53.294  19.317  1.00  0.00     0.176 HD
ATOM     33  H61 UNL     1     115.929  52.195  19.839  1.00  0.00     0.176 HD
ENDBRANCH  21  31
ENDBRANCH  11  13
ENDBRANCH   1  11
BRANCH   9  34
HETATM   34  C10 UNL     1     111.621  54.648  16.830  1.00  0.00     0.276 C 
BRANCH  34  35
HETATM   35  O4  UNL     1     110.680  55.140  17.670  1.00  0.00    -0.378 OA
ATOM     36  H4  UNL     1     110.917  55.367  18.561  1.00  0.00     0.211 HD
ENDBRANCH  34  35
BRANCH  34  37
HETATM   37  C11 UNL     1     113.006  54.884  17.344  1.00  0.00     0.209 C 
HETATM   38  O5  UNL     1     113.859  55.339  16.562  1.00  0.00    -0.646 OA
HETATM   39  O6  UNL     1     113.340  54.609  18.646  1.00  0.00    -0.646 OA
ENDBRANCH  34  37
ENDBRANCH   9  34
BRANCH   8  40
HETATM   40  C8  UNL     1     110.379  54.004  14.095  1.00  0.00     0.357 C 
BRANCH  40  41
HETATM   41  N4  UNL     1     111.547  54.794  13.599  1.00  0.00    -0.049 N 
ATOM     42  H43 UNL     1     111.779  54.605  12.624  1.00  0.00     0.277 HD
ATOM     43  H42 UNL     1     111.345  55.788  13.491  1.00  0.00     0.277 HD
ATOM     44  H41 UNL     1     112.317  54.605  14.241  1.00  0.00     0.277 HD
ENDBRANCH  40  41
BRANCH  40  45
HETATM   45  O3  UNL     1     109.539  54.919  14.752  1.00  0.00    -0.366 OA
ATOM     46  H3  UNL     1     108.830  55.178  14.175  1.00  0.00     0.212 HD
ENDBRANCH  40  45
ENDBRANCH   8  40
TORSDOF 12
ENDMDL
MODEL 4
REMARK VINA RESULT: -5.909058322      3.757      6.983
REMARK  12 active torsions:
REMARK  status: ('A' for Active; 'I' for Inactive)
REMARK    1  A    between atoms: O1_2  and  C2_3 
REMARK    2  A    between atoms: C2_3  and  C3_5 
REMARK    3  A    between atoms: C4_6  and  N1_7 
REMARK    4  A    between atoms: N1_7  and  C5_9 
REMARK    5  A    between atoms: C7_16  and  C8_17 
REMARK    6  A    between atoms: C8_17  and  N4_18 
REMARK    7  A    between atoms: C8_17  and  O3_22 
REMARK    8  A    between atoms: C9_24  and  C10_25 
REMARK    9  A    between atoms: C10_25  and  O4_26 
REMARK   10  A    between atoms: C10_25  and  C11_28 
REMARK   11  A    between atoms: N5_33  and  N6_35 
REMARK   12  A    between atoms: C14_42  and  O8_43 
ROOT
HETATM    1  C5  UNL     1     109.660  54.876  12.716  1.00  0.00     0.230 A 
HETATM    2  N2  UNL     1     108.595  54.825  11.918  1.00  0.00    -0.308 N 
ATOM      3  H2  UNL     1     108.515  54.058  11.252  1.00  0.00     0.171 HD
HETATM    4  C6  UNL     1     107.636  55.737  11.960  1.00  0.00     0.115 A 
HETATM    5  N3  UNL     1     106.630  55.650  11.176  1.00  0.00    -0.385 N 
ATOM      6  H31 UNL     1     105.891  56.353  11.208  1.00  0.00     0.157 HD
ATOM      7  H32 UNL     1     106.527  54.892  10.501  1.00  0.00     0.157 HD
HETATM    8  C7  UNL     1     107.779  56.793  12.899  1.00  0.00     0.074 A 
HETATM    9  C9  UNL     1     108.870  56.838  13.709  1.00  0.00     0.110 A 
HETATM   10  O7  UNL     1     109.756  55.843  13.552  1.00  0.00    -0.280 OA
ENDROOT
BRANCH   1  11
HETATM   11  N1  UNL     1     110.659  53.845  12.609  1.00  0.00    -0.319 N 
ATOM     12  H1  UNL     1     110.713  53.308  11.744  1.00  0.00     0.169 HD
BRANCH  11  13
HETATM   13  C4  UNL     1     111.560  53.547  13.641  1.00  0.00     0.086 C 
HETATM   14  C3  UNL     1     111.562  52.357  14.188  1.00  0.00     0.117 C 
HETATM   15  C15 UNL     1     112.468  51.997  15.294  1.00  0.00     0.202 C 
HETATM   16  C14 UNL     1     112.959  53.118  16.176  1.00  0.00     0.244 C 
HETATM   17  O9  UNL     1     112.840  50.826  15.523  1.00  0.00    -0.289 OA
HETATM   18  C13 UNL     1     113.480  54.150  15.198  1.00  0.00     0.070 C 
HETATM   19  C12 UNL     1     112.554  54.535  14.140  1.00  0.00     0.100 C 
HETATM   20  N7  UNL     1     114.639  54.620  15.281  1.00  0.00    -0.398 N 
HETATM   21  N5  UNL     1     112.551  55.684  13.637  1.00  0.00    -0.303 N 
ATOM     22  H5  UNL     1     111.836  55.796  12.918  1.00  0.00     0.186 HD
ATOM     23  H72 UNL     1     114.989  55.315  14.623  1.00  0.00     0.156 HD
ATOM     24  H71 UNL     1     115.287  54.350  16.022  1.00  0.00     0.156 HD
BRANCH  14  25
HETATM   25  C2  UNL     1     110.625  51.310  13.733  1.00  0.00     0.299 C 
HETATM   26  O2  UNL     1     110.935  50.512  12.816  1.00  0.00    -0.259 OA
BRANCH  25  27
HETATM   27  O1  UNL     1     109.378  51.178  14.304  1.00  0.00    -0.322 OA
HETATM   28  C1  UNL     1     109.197  50.928  15.684  1.00  0.00     0.213 C 
ENDBRANCH  25  27
ENDBRANCH  14  25
BRANCH  16  29
HETATM   29  O8  UNL     1     114.020  52.660  16.921  1.00  0.00    -0.381 OA
ATOM     30  H8  UNL     1     114.818  52.828  16.433  1.00  0.00     0.211 HD
ENDBRANCH  16  29
BRANCH  21  31
HETATM   31  N6  UNL     1     113.276  56.807  13.828  1.00  0.00    -0.345 N 
ATOM     32  H62 UNL     1     113.524  56.925  14.810  1.00  0.00     0.176 HD
ATOM     33  H61 UNL     1     113.624  57.549  13.221  1.00  0.00     0.176 HD
ENDBRANCH  21  31
ENDBRANCH  11  13
ENDBRANCH   1  11
BRANCH   9  34
HETATM   34  C10 UNL     1     109.134  57.866  14.705  1.00  0.00     0.276 C 
BRANCH  34  35
HETATM   35  O4  UNL     1     109.519  57.508  15.952  1.00  0.00    -0.378 OA
ATOM     36  H4  UNL     1     109.995  56.697  16.083  1.00  0.00     0.211 HD
ENDBRANCH  34  35
BRANCH  34  37
HETATM   37  C11 UNL     1     109.966  58.984  14.162  1.00  0.00     0.209 C 
HETATM   38  O5  UNL     1     111.186  58.984  14.400  1.00  0.00    -0.646 OA
HETATM   39  O6  UNL     1     109.407  59.991  13.416  1.00  0.00    -0.646 OA
ENDBRANCH  34  37
ENDBRANCH   9  34
BRANCH   8  40
HETATM   40  C8  UNL     1     106.675  57.742  12.867  1.00  0.00     0.357 C 
BRANCH  40  41
HETATM   41  N4  UNL     1     107.165  58.934  12.110  1.00  0.00    -0.049 N 
ATOM     42  H43 UNL     1     106.421  59.446  11.636  1.00  0.00     0.277 HD
ATOM     43  H42 UNL     1     107.478  59.695  12.713  1.00  0.00     0.277 HD
ATOM     44  H41 UNL     1     107.889  58.595  11.477  1.00  0.00     0.277 HD
ENDBRANCH  40  41
BRANCH  40  45
HETATM   45  O3  UNL     1     106.395  58.194  14.168  1.00  0.00    -0.366 OA
ATOM     46  H3  UNL     1     105.560  57.843  14.458  1.00  0.00     0.212 HD
ENDBRANCH  40  45
ENDBRANCH   8  40
TORSDOF 12
ENDMDL
MODEL 5
REMARK VINA RESULT: -5.857111043      2.411      3.819
REMARK  12 active torsions:
REMARK  status: ('A' for Active; 'I' for Inactive)
REMARK    1  A    between atoms: O1_2  and  C2_3 
REMARK    2  A    between atoms: C2_3  and  C3_5 
REMARK    3  A    between atoms: C4_6  and  N1_7 
REMARK    4  A    between atoms: N1_7  and  C5_9 
REMARK    5  A    between atoms: C7_16  and  C8_17 
REMARK    6  A    between atoms: C8_17  and  N4_18 
REMARK    7  A    between atoms: C8_17  and  O3_22 
REMARK    8  A    between atoms: C9_24  and  C10_25 
REMARK    9  A    between atoms: C10_25  and  O4_26 
REMARK   10  A    between atoms: C10_25  and  C11_28 
REMARK   11  A    between atoms: N5_33  and  N6_35 
REMARK   12  A    between atoms: C14_42  and  O8_43 
ROOT
HETATM    1  C5  UNL     1     113.232  51.102  16.744  1.00  0.00     0.230 A 
HETATM    2  N2  UNL     1     113.984  52.201  16.755  1.00  0.00    -0.308 N 
ATOM      3  H2  UNL     1     114.743  52.271  17.432  1.00  0.00     0.171 HD
HETATM    4  C6  UNL     1     113.780  53.205  15.917  1.00  0.00     0.115 A 
HETATM    5  N3  UNL     1     114.526  54.243  15.961  1.00  0.00    -0.385 N 
ATOM      6  H31 UNL     1     114.369  55.016  15.316  1.00  0.00     0.157 HD
ATOM      7  H32 UNL     1     115.292  54.337  16.629  1.00  0.00     0.157 HD
HETATM    8  C7  UNL     1     112.714  53.074  14.988  1.00  0.00     0.074 A 
HETATM    9  C9  UNL     1     111.950  51.950  14.984  1.00  0.00     0.110 A 
HETATM   10  O7  UNL     1     112.279  51.018  15.892  1.00  0.00    -0.280 OA
ENDROOT
BRANCH   1  11
HETATM   11  N1  UNL     1     113.519  50.054  17.688  1.00  0.00    -0.319 N 
ATOM     12  H1  UNL     1     114.156  49.309  17.408  1.00  0.00     0.169 HD
BRANCH  11  13
HETATM   13  C4  UNL     1     112.962  50.012  18.974  1.00  0.00     0.086 C 
HETATM   14  C3  UNL     1     111.884  49.303  19.200  1.00  0.00     0.117 C 
HETATM   15  C15 UNL     1     111.241  49.244  20.526  1.00  0.00     0.202 C 
HETATM   16  C14 UNL     1     111.448  50.421  21.446  1.00  0.00     0.244 C 
HETATM   17  O9  UNL     1     110.546  48.278  20.910  1.00  0.00    -0.289 OA
HETATM   18  C13 UNL     1     112.949  50.626  21.443  1.00  0.00     0.070 C 
HETATM   19  C12 UNL     1     113.564  50.734  20.127  1.00  0.00     0.100 C 
HETATM   20  N7  UNL     1     113.615  50.672  22.503  1.00  0.00    -0.398 N 
HETATM   21  N5  UNL     1     114.586  51.431  19.920  1.00  0.00    -0.303 N 
ATOM     22  H5  UNL     1     114.885  51.410  18.945  1.00  0.00     0.186 HD
ATOM     23  H72 UNL     1     114.625  50.809  22.502  1.00  0.00     0.156 HD
ATOM     24  H71 UNL     1     113.184  50.597  23.425  1.00  0.00     0.156 HD
BRANCH  14  25
HETATM   25  C2  UNL     1     111.238  48.535  18.117  1.00  0.00     0.299 C 
HETATM   26  O2  UNL     1     111.750  47.481  17.670  1.00  0.00    -0.259 OA
BRANCH  25  27
HETATM   27  O1  UNL     1     110.049  48.955  17.562  1.00  0.00    -0.322 OA
HETATM   28  C1  UNL     1     108.831  48.265  17.762  1.00  0.00     0.213 C 
ENDBRANCH  25  27
ENDBRANCH  14  25
BRANCH  16  29
HETATM   29  O8  UNL     1     111.067  50.061  22.716  1.00  0.00    -0.381 OA
ATOM     30  H8  UNL     1     111.477  49.228  22.923  1.00  0.00     0.211 HD
ENDBRANCH  16  29
BRANCH  21  31
HETATM   31  N6  UNL     1     115.383  52.203  20.690  1.00  0.00    -0.345 N 
ATOM     32  H62 UNL     1     116.289  51.761  20.844  1.00  0.00     0.176 HD
ATOM     33  H61 UNL     1     115.282  53.110  21.144  1.00  0.00     0.176 HD
ENDBRANCH  21  31
ENDBRANCH  11  13
ENDBRANCH   1  11
BRANCH   9  34
HETATM   34  C10 UNL     1     110.831  51.699  14.089  1.00  0.00     0.276 C 
BRANCH  34  35
HETATM   35  O4  UNL     1     110.917  50.709  13.169  1.00  0.00    -0.378 OA
ATOM     36  H4  UNL     1     111.738  50.248  13.049  1.00  0.00     0.211 HD
ENDBRANCH  34  35
BRANCH  34  37
HETATM   37  C11 UNL     1     109.520  51.680  14.809  1.00  0.00     0.209 C 
HETATM   38  O5  UNL     1     109.087  52.747  15.280  1.00  0.00    -0.646 OA
HETATM   39  O6  UNL     1     108.801  50.521  14.951  1.00  0.00    -0.646 OA
ENDBRANCH  34  37
ENDBRANCH   9  34
BRANCH   8  40
HETATM   40  C8  UNL     1     112.572  54.230  14.112  1.00  0.00     0.357 C 
BRANCH  40  41
HETATM   41  N4  UNL     1     111.271  54.873  14.470  1.00  0.00    -0.049 N 
ATOM     42  H43 UNL     1     110.849  54.489  15.316  1.00  0.00     0.277 HD
ATOM     43  H42 UNL     1     111.373  55.832  14.804  1.00  0.00     0.277 HD
ATOM     44  H41 UNL     1     110.674  54.793  13.648  1.00  0.00     0.277 HD
ENDBRANCH  40  41
BRANCH  40  45
HETATM   45  O3  UNL     1     112.444  53.806  12.779  1.00  0.00    -0.366 OA
ATOM     46  H3  UNL     1     113.188  53.266  12.539  1.00  0.00     0.212 HD
ENDBRANCH  40  45
ENDBRANCH   8  40
TORSDOF 12
ENDMDL
