MODEL 1
REMARK VINA RESULT: -8.153478555      0.000      0.000
REMARK  11 active torsions:
REMARK  status: ('A' for Active; 'I' for Inactive)
REMARK    1  A    between atoms: N1_1  and  C1_4 
REMARK    2  A    between atoms: C1_4  and  C2_6 
REMARK    3  A    between atoms: C2_6  and  O1_7 
REMARK    4  A    between atoms: O1_7  and  C3_8 
REMARK    5  A    between atoms: C3_8  and  C4_10 
REMARK    6  A    between atoms: C4_10  and  N3_11 
REMARK    7  A    between atoms: C5_15  and  C6_16 
REMARK    8  A    between atoms: C6_16  and  C7_17 
REMARK    9  A    between atoms: C9_23  and  N8_24 
REMARK   10  A    between atoms: C10_29  and  N10_30 
REMARK   11  A    between atoms: C12_36  and  C13_37 
ROOT
HETATM    1  C7  UNL     1     110.311  53.292  13.662  1.00  0.00     0.051 A 
HETATM    2  N6  UNL     1     109.368  53.525  12.695  1.00  0.00    -0.341 N 
ATOM      3  H6  UNL     1     109.128  52.799  12.021  1.00  0.00     0.167 HD
HETATM    4  C8  UNL     1     108.769  54.717  12.650  1.00  0.00     0.152 A 
HETATM    5  N7  UNL     1     107.828  55.022  11.735  1.00  0.00    -0.174 N 
ATOM      6  H7  UNL     1     107.556  54.329  11.039  1.00  0.00     0.186 HD
HETATM    7  C9  UNL     1     107.247  56.231  11.733  1.00  0.00     0.679 A 
HETATM    8  N9  UNL     1     107.570  57.189  12.634  1.00  0.00    -0.175 N 
ATOM      9  H9  UNL     1     107.112  58.099  12.610  1.00  0.00     0.186 HD
HETATM   10  C10 UNL     1     108.496  56.923  13.551  1.00  0.00     0.145 A 
HETATM   11  C11 UNL     1     109.119  55.678  13.580  1.00  0.00     0.122 A 
HETATM   12  N11 UNL     1     110.033  55.450  14.515  1.00  0.00    -0.343 N 
ATOM     13  H11 UNL     1     110.267  56.182  15.184  1.00  0.00     0.166 HD
HETATM   14  C12 UNL     1     110.670  54.230  14.586  1.00  0.00     0.133 A 
ENDROOT
BRANCH   1  15
HETATM   15  C6  UNL     1     110.866  51.904  13.721  1.00  0.00     0.138 C 
BRANCH  15  16
HETATM   16  C5  UNL     1     110.575  51.246  15.014  1.00  0.00     0.115 A 
HETATM   17  N5  UNL     1     109.491  51.111  15.767  1.00  0.00    -0.270 N 
HETATM   18  N4  UNL     1     109.772  50.404  16.845  1.00  0.00    -0.003 NA
ATOM     19  H5  UNL     1     108.573  51.498  15.545  1.00  0.00     0.185 HD
HETATM   20  N3  UNL     1     111.077  50.063  16.806  1.00  0.00    -0.207 N 
HETATM   21  N12 UNL     1     111.535  50.574  15.709  1.00  0.00    -0.272 N 
ATOM     22  H12 UNL     1     112.503  50.483  15.400  1.00  0.00     0.189 HD
BRANCH  20  23
HETATM   23  C4  UNL     1     111.808  49.283  17.767  1.00  0.00     0.278 C 
BRANCH  23  24
HETATM   24  C3  UNL     1     110.919  48.528  18.667  1.00  0.00     0.283 C 
HETATM   25  O2  UNL     1     110.450  47.423  18.225  1.00  0.00    -0.263 OA
BRANCH  24  26
HETATM   26  O1  UNL     1     110.546  48.902  19.933  1.00  0.00    -0.263 OA
BRANCH  26  27
HETATM   27  C2  UNL     1     111.360  49.043  21.064  1.00  0.00     0.310 A 
HETATM   28  N13 UNL     1     112.484  48.150  21.113  1.00  0.00    -0.268 N 
HETATM   29  N14 UNL     1     112.063  47.502  22.074  1.00  0.00    -0.242 N 
ATOM     30  H13 UNL     1     113.332  48.078  20.550  1.00  0.00     0.186 HD
HETATM   31  N15 UNL     1     110.931  48.255  22.171  1.00  0.00    -0.055 NA
ATOM     32  H14 UNL     1     112.426  46.705  22.597  1.00  0.00     0.203 HD
BRANCH  27  33
HETATM   33  C1  UNL     1     111.673  50.434  21.484  1.00  0.00     0.164 C 
HETATM   34  N2  UNL     1     112.555  51.206  20.692  1.00  0.00    -0.081 NA
BRANCH  33  35
HETATM   35  N1  UNL     1     111.175  50.917  22.545  1.00  0.00    -0.386 N 
ATOM     36  H12 UNL     1     110.404  51.585  22.501  1.00  0.00     0.157 HD
ATOM     37  H11 UNL     1     111.529  50.631  23.457  1.00  0.00     0.157 HD
ENDBRANCH  33  35
ENDBRANCH  27  33
ENDBRANCH  26  27
ENDBRANCH  24  26
ENDBRANCH  23  24
ENDBRANCH  20  23
ENDBRANCH  15  16
ENDBRANCH   1  15
BRANCH  14  38
HETATM   38  C13 UNL     1     111.727  54.086  15.586  1.00  0.00     0.228 C 
HETATM   39  O3  UNL     1     111.358  53.706  16.751  1.00  0.00    -0.643 OA
HETATM   40  O4  UNL     1     113.067  54.313  15.435  1.00  0.00    -0.643 OA
ENDBRANCH  14  38
BRANCH   7  41
HETATM   41  N8  UNL     1     106.345  56.497  10.847  1.00  0.00    -0.234 N 
ATOM     42  H82 UNL     1     105.462  56.903  11.157  1.00  0.00     0.174 HD
ATOM     43  H81 UNL     1     106.535  56.297   9.865  1.00  0.00     0.174 HD
ENDBRANCH   7  41
BRANCH  10  44
HETATM   44  N10 UNL     1     108.796  57.842  14.408  1.00  0.00    -0.383 N 
ATOM     45 2H10 UNL     1     108.151  58.102  15.154  1.00  0.00     0.157 HD
ATOM     46 1H10 UNL     1     109.698  58.311  14.322  1.00  0.00     0.157 HD
ENDBRANCH  10  44
TORSDOF 11
ENDMDL
MODEL 2
REMARK VINA RESULT: -8.119660928      0.895      1.177
REMARK  11 active torsions:
REMARK  status: ('A' for Active; 'I' for Inactive)
REMARK    1  A    between atoms: N1_1  and  C1_4 
REMARK    2  A    between atoms: C1_4  and  C2_6 
REMARK    3  A    between atoms: C2_6  and  O1_7 
REMARK    4  A    between atoms: O1_7  and  C3_8 
REMARK    5  A    between atoms: C3_8  and  C4_10 
REMARK    6  A    between atoms: C4_10  and  N3_11 
REMARK    7  A    between atoms: C5_15  and  C6_16 
REMARK    8  A    between atoms: C6_16  and  C7_17 
REMARK    9  A    between atoms: C9_23  and  N8_24 
REMARK   10  A    between atoms: C10_29  and  N10_30 
REMARK   11  A    between atoms: C12_36  and  C13_37 
ROOT
HETATM    1  C7  UNL     1     110.293  53.252  13.786  1.00  0.00     0.051 A 
HETATM    2  N6  UNL     1     109.356  53.438  12.803  1.00  0.00    -0.341 N 
ATOM      3  H6  UNL     1     109.112  52.676  12.170  1.00  0.00     0.167 HD
HETATM    4  C8  UNL     1     108.767  54.630  12.686  1.00  0.00     0.152 A 
HETATM    5  N7  UNL     1     107.833  54.890  11.752  1.00  0.00    -0.174 N 
ATOM      6  H7  UNL     1     107.557  54.160  11.096  1.00  0.00     0.186 HD
HETATM    7  C9  UNL     1     107.262  56.102  11.678  1.00  0.00     0.679 A 
HETATM    8  N9  UNL     1     107.591  57.108  12.524  1.00  0.00    -0.175 N 
ATOM      9  H9  UNL     1     107.141  58.019  12.445  1.00  0.00     0.186 HD
HETATM   10  C10 UNL     1     108.511  56.887  13.458  1.00  0.00     0.145 A 
HETATM   11  C11 UNL     1     109.123  55.640  13.561  1.00  0.00     0.122 A 
HETATM   12  N11 UNL     1     110.032  55.458  14.511  1.00  0.00    -0.343 N 
ATOM     13  H11 UNL     1     110.270  56.226  15.139  1.00  0.00     0.166 HD
HETATM   14  C12 UNL     1     110.658  54.239  14.655  1.00  0.00     0.133 A 
ENDROOT
BRANCH   1  15
HETATM   15  C6  UNL     1     110.836  51.866  13.926  1.00  0.00     0.138 C 
BRANCH  15  16
HETATM   16  C5  UNL     1     110.468  51.257  15.224  1.00  0.00     0.115 A 
HETATM   17  N5  UNL     1     109.330  50.851  15.772  1.00  0.00    -0.270 N 
HETATM   18  N4  UNL     1     109.557  50.357  16.975  1.00  0.00    -0.003 NA
ATOM     19  H5  UNL     1     108.413  50.912  15.330  1.00  0.00     0.185 HD
HETATM   20  N3  UNL     1     110.880  50.438  17.229  1.00  0.00    -0.207 N 
HETATM   21  N12 UNL     1     111.402  50.976  16.175  1.00  0.00    -0.272 N 
ATOM     22  H12 UNL     1     112.399  51.168  16.068  1.00  0.00     0.189 HD
BRANCH  20  23
HETATM   23  C4  UNL     1     111.573  50.006  18.413  1.00  0.00     0.278 C 
BRANCH  23  24
HETATM   24  C3  UNL     1     111.676  48.539  18.495  1.00  0.00     0.283 C 
HETATM   25  O2  UNL     1     111.936  47.915  17.410  1.00  0.00    -0.263 OA
BRANCH  24  26
HETATM   26  O1  UNL     1     111.518  47.781  19.629  1.00  0.00    -0.263 OA
BRANCH  26  27
HETATM   27  C2  UNL     1     112.203  47.898  20.845  1.00  0.00     0.310 A 
HETATM   28  N13 UNL     1     113.542  48.401  20.736  1.00  0.00    -0.268 N 
HETATM   29  N14 UNL     1     114.081  47.343  21.071  1.00  0.00    -0.242 N 
ATOM     30  H13 UNL     1     113.917  49.313  20.474  1.00  0.00     0.186 HD
HETATM   31  N15 UNL     1     112.885  46.707  21.224  1.00  0.00    -0.055 NA
ATOM     32  H14 UNL     1     115.053  47.055  21.189  1.00  0.00     0.203 HD
BRANCH  27  33
HETATM   33  C1  UNL     1     111.434  48.463  21.984  1.00  0.00     0.164 C 
HETATM   34  N2  UNL     1     110.938  49.784  21.887  1.00  0.00    -0.081 NA
BRANCH  33  35
HETATM   35  N1  UNL     1     111.240  47.781  23.036  1.00  0.00    -0.386 N 
ATOM     36  H12 UNL     1     110.320  47.757  23.478  1.00  0.00     0.157 HD
ATOM     37  H11 UNL     1     111.999  47.236  23.443  1.00  0.00     0.157 HD
ENDBRANCH  33  35
ENDBRANCH  27  33
ENDBRANCH  26  27
ENDBRANCH  24  26
ENDBRANCH  23  24
ENDBRANCH  20  23
ENDBRANCH  15  16
ENDBRANCH   1  15
BRANCH  14  38
HETATM   38  C13 UNL     1     111.710  54.144  15.665  1.00  0.00     0.228 C 
HETATM   39  O3  UNL     1     111.322  54.035  16.881  1.00  0.00    -0.643 OA
HETATM   40  O4  UNL     1     113.064  54.163  15.478  1.00  0.00    -0.643 OA
ENDBRANCH  14  38
BRANCH   7  41
HETATM   41  N8  UNL     1     106.366  56.325  10.774  1.00  0.00    -0.234 N 
ATOM     42  H82 UNL     1     105.964  57.260  10.707  1.00  0.00     0.174 HD
ATOM     43  H81 UNL     1     106.083  55.566  10.154  1.00  0.00     0.174 HD
ENDBRANCH   7  41
BRANCH  10  44
HETATM   44  N10 UNL     1     108.816  57.851  14.262  1.00  0.00    -0.383 N 
ATOM     45 2H10 UNL     1     109.390  58.636  13.953  1.00  0.00     0.157 HD
ATOM     46 1H10 UNL     1     108.471  57.812  15.221  1.00  0.00     0.157 HD
ENDBRANCH  10  44
TORSDOF 11
ENDMDL
MODEL 3
REMARK VINA RESULT: -8.058829181      1.725      2.184
REMARK  11 active torsions:
REMARK  status: ('A' for Active; 'I' for Inactive)
REMARK    1  A    between atoms: N1_1  and  C1_4 
REMARK    2  A    between atoms: C1_4  and  C2_6 
REMARK    3  A    between atoms: C2_6  and  O1_7 
REMARK    4  A    between atoms: O1_7  and  C3_8 
REMARK    5  A    between atoms: C3_8  and  C4_10 
REMARK    6  A    between atoms: C4_10  and  N3_11 
REMARK    7  A    between atoms: C5_15  and  C6_16 
REMARK    8  A    between atoms: C6_16  and  C7_17 
REMARK    9  A    between atoms: C9_23  and  N8_24 
REMARK   10  A    between atoms: C10_29  and  N10_30 
REMARK   11  A    between atoms: C12_36  and  C13_37 
ROOT
HETATM    1  C7  UNL     1     110.222  55.118  13.643  1.00  0.00     0.051 A 
HETATM    2  N6  UNL     1     109.350  54.794  12.636  1.00  0.00    -0.341 N 
ATOM      3  H6  UNL     1     109.465  53.926  12.113  1.00  0.00     0.167 HD
HETATM    4  C8  UNL     1     108.350  55.630  12.351  1.00  0.00     0.152 A 
HETATM    5  N7  UNL     1     107.449  55.381  11.382  1.00  0.00    -0.174 N 
ATOM      6  H7  UNL     1     107.523  54.527  10.830  1.00  0.00     0.186 HD
HETATM    7  C9  UNL     1     106.455  56.247  11.137  1.00  0.00     0.679 A 
HETATM    8  N9  UNL     1     106.310  57.397  11.838  1.00  0.00    -0.175 N 
ATOM      9  H9  UNL     1     105.544  58.038  11.631  1.00  0.00     0.186 HD
HETATM   10  C10 UNL     1     107.182  57.676  12.802  1.00  0.00     0.145 A 
HETATM   11  C11 UNL     1     108.226  56.798  13.082  1.00  0.00     0.122 A 
HETATM   12  N11 UNL     1     109.072  57.110  14.055  1.00  0.00    -0.343 N 
ATOM     13  H11 UNL     1     108.949  57.980  14.573  1.00  0.00     0.166 HD
HETATM   14  C12 UNL     1     110.115  56.267  14.372  1.00  0.00     0.133 A 
ENDROOT
BRANCH   1  15
HETATM   15  C6  UNL     1     111.254  54.090  13.978  1.00  0.00     0.138 C 
BRANCH  15  16
HETATM   16  C5  UNL     1     110.648  52.771  14.266  1.00  0.00     0.115 A 
HETATM   17  N5  UNL     1     110.082  51.825  13.527  1.00  0.00    -0.270 N 
HETATM   18  N4  UNL     1     109.709  50.814  14.290  1.00  0.00    -0.003 NA
ATOM     19  H5  UNL     1     109.954  51.872  12.516  1.00  0.00     0.185 HD
HETATM   20  N3  UNL     1     110.035  51.099  15.567  1.00  0.00    -0.207 N 
HETATM   21  N12 UNL     1     110.592  52.266  15.531  1.00  0.00    -0.272 N 
ATOM     22  H12 UNL     1     110.949  52.753  16.354  1.00  0.00     0.189 HD
BRANCH  20  23
HETATM   23  C4  UNL     1     109.827  50.277  16.729  1.00  0.00     0.278 C 
BRANCH  23  24
HETATM   24  C3  UNL     1     111.078  50.016  17.461  1.00  0.00     0.283 C 
HETATM   25  O2  UNL     1     112.107  49.722  16.761  1.00  0.00    -0.263 OA
BRANCH  24  26
HETATM   26  O1  UNL     1     111.239  50.057  18.823  1.00  0.00    -0.263 OA
BRANCH  26  27
HETATM   27  C2  UNL     1     111.291  48.981  19.717  1.00  0.00     0.310 A 
HETATM   28  N13 UNL     1     112.181  47.922  19.334  1.00  0.00    -0.268 N 
HETATM   29  N14 UNL     1     111.285  47.099  19.126  1.00  0.00    -0.242 N 
ATOM     30  H13 UNL     1     113.197  47.868  19.259  1.00  0.00     0.186 HD
HETATM   31  N15 UNL     1     110.305  47.986  19.461  1.00  0.00    -0.055 NA
ATOM     32  H14 UNL     1     111.281  46.126  18.821  1.00  0.00     0.203 HD
BRANCH  27  33
HETATM   33  C1  UNL     1     111.346  49.324  21.162  1.00  0.00     0.164 C 
HETATM   34  N2  UNL     1     110.989  48.340  22.114  1.00  0.00    -0.081 NA
BRANCH  33  35
HETATM   35  N1  UNL     1     111.687  50.486  21.539  1.00  0.00    -0.386 N 
ATOM     36  H12 UNL     1     112.670  50.719  21.682  1.00  0.00     0.157 HD
ATOM     37  H11 UNL     1     110.982  51.207  21.688  1.00  0.00     0.157 HD
ENDBRANCH  33  35
ENDBRANCH  27  33
ENDBRANCH  26  27
ENDBRANCH  24  26
ENDBRANCH  23  24
ENDBRANCH  20  23
ENDBRANCH  15  16
ENDBRANCH   1  15
BRANCH  14  38
HETATM   38  C13 UNL     1     111.054  56.723  15.395  1.00  0.00     0.228 C 
HETATM   39  O3  UNL     1     111.658  57.827  15.160  1.00  0.00    -0.643 OA
HETATM   40  O4  UNL     1     111.377  56.113  16.575  1.00  0.00    -0.643 OA
ENDBRANCH  14  38
BRANCH   7  41
HETATM   41  N8  UNL     1     105.602  55.983  10.202  1.00  0.00    -0.234 N 
ATOM     42  H82 UNL     1     105.828  55.250   9.530  1.00  0.00     0.174 HD
ATOM     43  H81 UNL     1     104.730  56.510  10.159  1.00  0.00     0.174 HD
ENDBRANCH   7  41
BRANCH  10  44
HETATM   44  N10 UNL     1     107.034  58.774  13.468  1.00  0.00    -0.383 N 
ATOM     45 2H10 UNL     1     107.053  59.681  13.003  1.00  0.00     0.157 HD
ATOM     46 1H10 UNL     1     106.897  58.715  14.477  1.00  0.00     0.157 HD
ENDBRANCH  10  44
TORSDOF 11
ENDMDL
MODEL 4
REMARK VINA RESULT: -8.016099547      2.173      3.298
REMARK  11 active torsions:
REMARK  status: ('A' for Active; 'I' for Inactive)
REMARK    1  A    between atoms: N1_1  and  C1_4 
REMARK    2  A    between atoms: C1_4  and  C2_6 
REMARK    3  A    between atoms: C2_6  and  O1_7 
REMARK    4  A    between atoms: O1_7  and  C3_8 
REMARK    5  A    between atoms: C3_8  and  C4_10 
REMARK    6  A    between atoms: C4_10  and  N3_11 
REMARK    7  A    between atoms: C5_15  and  C6_16 
REMARK    8  A    between atoms: C6_16  and  C7_17 
REMARK    9  A    between atoms: C9_23  and  N8_24 
REMARK   10  A    between atoms: C10_29  and  N10_30 
REMARK   11  A    between atoms: C12_36  and  C13_37 
ROOT
HETATM    1  C7  UNL     1     110.525  53.283  13.922  1.00  0.00     0.051 A 
HETATM    2  N6  UNL     1     109.573  53.427  12.946  1.00  0.00    -0.341 N 
ATOM      3  H6  UNL     1     109.340  52.647  12.332  1.00  0.00     0.167 HD
HETATM    4  C8  UNL     1     108.957  54.603  12.812  1.00  0.00     0.152 A 
HETATM    5  N7  UNL     1     108.007  54.824  11.884  1.00  0.00    -0.174 N 
ATOM      6  H7  UNL     1     107.740  54.074  11.246  1.00  0.00     0.186 HD
HETATM    7  C9  UNL     1     107.408  56.021  11.791  1.00  0.00     0.679 A 
HETATM    8  N9  UNL     1     107.724  57.051  12.612  1.00  0.00    -0.175 N 
ATOM      9  H9  UNL     1     107.253  57.950  12.520  1.00  0.00     0.186 HD
HETATM   10  C10 UNL     1     108.659  56.870  13.541  1.00  0.00     0.145 A 
HETATM   11  C11 UNL     1     109.300  55.639  13.662  1.00  0.00     0.122 A 
HETATM   12  N11 UNL     1     110.223  55.497  14.605  1.00  0.00    -0.343 N 
ATOM     13  H11 UNL     1     110.450  56.283  15.214  1.00  0.00     0.166 HD
HETATM   14  C12 UNL     1     110.877  54.295  14.767  1.00  0.00     0.133 A 
ENDROOT
BRANCH   1  15
HETATM   15  C6  UNL     1     111.100  51.912  14.084  1.00  0.00     0.138 C 
BRANCH  15  16
HETATM   16  C5  UNL     1     110.536  51.212  15.260  1.00  0.00     0.115 A 
HETATM   17  N5  UNL     1     109.308  50.906  15.660  1.00  0.00    -0.270 N 
HETATM   18  N4  UNL     1     109.354  50.247  16.803  1.00  0.00    -0.003 NA
ATOM     19  H5  UNL     1     108.453  51.146  15.159  1.00  0.00     0.185 HD
HETATM   20  N3  UNL     1     110.646  50.113  17.168  1.00  0.00    -0.207 N 
HETATM   21  N12 UNL     1     111.331  50.694  16.237  1.00  0.00    -0.272 N 
ATOM     22  H12 UNL     1     112.350  50.756  16.235  1.00  0.00     0.189 HD
BRANCH  20  23
HETATM   23  C4  UNL     1     111.163  49.452  18.337  1.00  0.00     0.278 C 
BRANCH  23  24
HETATM   24  C3  UNL     1     111.869  48.203  18.006  1.00  0.00     0.283 C 
HETATM   25  O2  UNL     1     111.879  47.289  18.901  1.00  0.00    -0.263 OA
BRANCH  24  26
HETATM   26  O1  UNL     1     112.517  47.930  16.827  1.00  0.00    -0.263 OA
BRANCH  26  27
HETATM   27  C2  UNL     1     113.872  48.117  16.527  1.00  0.00     0.310 A 
HETATM   28  N13 UNL     1     114.760  47.990  17.647  1.00  0.00    -0.268 N 
HETATM   29  N14 UNL     1     115.082  49.180  17.664  1.00  0.00    -0.242 N 
ATOM     30  H13 UNL     1     115.031  47.194  18.225  1.00  0.00     0.186 HD
HETATM   31  N15 UNL     1     114.284  49.479  16.600  1.00  0.00    -0.055 NA
ATOM     32  H14 UNL     1     115.708  49.732  18.251  1.00  0.00     0.203 HD
BRANCH  27  33
HETATM   33  C1  UNL     1     114.368  47.472  15.284  1.00  0.00     0.164 C 
HETATM   34  N2  UNL     1     115.441  48.070  14.582  1.00  0.00    -0.081 NA
BRANCH  33  35
HETATM   35  N1  UNL     1     113.828  46.411  14.845  1.00  0.00    -0.386 N 
ATOM     36  H12 UNL     1     113.443  45.719  15.488  1.00  0.00     0.157 HD
ATOM     37  H11 UNL     1     113.759  46.246  13.842  1.00  0.00     0.157 HD
ENDBRANCH  33  35
ENDBRANCH  27  33
ENDBRANCH  26  27
ENDBRANCH  24  26
ENDBRANCH  23  24
ENDBRANCH  20  23
ENDBRANCH  15  16
ENDBRANCH   1  15
BRANCH  14  38
HETATM   38  C13 UNL     1     111.942  54.244  15.767  1.00  0.00     0.228 C 
HETATM   39  O3  UNL     1     113.080  54.709  15.409  1.00  0.00    -0.643 OA
HETATM   40  O4  UNL     1     111.880  53.754  17.042  1.00  0.00    -0.643 OA
ENDBRANCH  14  38
BRANCH   7  41
HETATM   41  N8  UNL     1     106.498  56.205  10.893  1.00  0.00    -0.234 N 
ATOM     42  H82 UNL     1     106.451  55.557  10.107  1.00  0.00     0.174 HD
ATOM     43  H81 UNL     1     105.853  56.989  10.989  1.00  0.00     0.174 HD
ENDBRANCH   7  41
BRANCH  10  44
HETATM   44  N10 UNL     1     108.952  57.857  14.321  1.00  0.00    -0.383 N 
ATOM     45 2H10 UNL     1     109.806  58.398  14.192  1.00  0.00     0.157 HD
ATOM     46 1H10 UNL     1     108.306  58.087  15.077  1.00  0.00     0.157 HD
ENDBRANCH  10  44
TORSDOF 11
ENDMDL
MODEL 5
REMARK VINA RESULT: -7.934538946      2.378      2.953
REMARK  11 active torsions:
REMARK  status: ('A' for Active; 'I' for Inactive)
REMARK    1  A    between atoms: N1_1  and  C1_4 
REMARK    2  A    between atoms: C1_4  and  C2_6 
REMARK    3  A    between atoms: C2_6  and  O1_7 
REMARK    4  A    between atoms: O1_7  and  C3_8 
REMARK    5  A    between atoms: C3_8  and  C4_10 
REMARK    6  A    between atoms: C4_10  and  N3_11 
REMARK    7  A    between atoms: C5_15  and  C6_16 
REMARK    8  A    between atoms: C6_16  and  C7_17 
REMARK    9  A    between atoms: C9_23  and  N8_24 
REMARK   10  A    between atoms: C10_29  and  N10_30 
REMARK   11  A    between atoms: C12_36  and  C13_37 
ROOT
HETATM    1  C7  UNL     1     110.291  53.387  13.754  1.00  0.00     0.051 A 
HETATM    2  N6  UNL     1     109.350  53.571  12.775  1.00  0.00    -0.341 N 
ATOM      3  H6  UNL     1     109.115  52.814  12.133  1.00  0.00     0.167 HD
HETATM    4  C8  UNL     1     108.745  54.756  12.674  1.00  0.00     0.152 A 
HETATM    5  N7  UNL     1     107.805  55.015  11.744  1.00  0.00    -0.174 N 
ATOM      6  H7  UNL     1     107.538  54.290  11.080  1.00  0.00     0.186 HD
HETATM    7  C9  UNL     1     107.218  56.220  11.685  1.00  0.00     0.679 A 
HETATM    8  N9  UNL     1     107.535  57.220  12.542  1.00  0.00    -0.175 N 
ATOM      9  H9  UNL     1     107.073  58.126  12.475  1.00  0.00     0.186 HD
HETATM   10  C10 UNL     1     108.460  57.000  13.473  1.00  0.00     0.145 A 
HETATM   11  C11 UNL     1     109.088  55.761  13.560  1.00  0.00     0.122 A 
HETATM   12  N11 UNL     1     110.002  55.580  14.506  1.00  0.00    -0.343 N 
ATOM     13  H11 UNL     1     110.230  56.344  15.142  1.00  0.00     0.166 HD
HETATM   14  C12 UNL     1     110.644  54.368  14.635  1.00  0.00     0.133 A 
ENDROOT
BRANCH   1  15
HETATM   15  C6  UNL     1     110.853  52.006  13.877  1.00  0.00     0.138 C 
BRANCH  15  16
HETATM   16  C5  UNL     1     110.264  51.270  15.017  1.00  0.00     0.115 A 
HETATM   17  N5  UNL     1     109.033  50.909  15.356  1.00  0.00    -0.270 N 
HETATM   18  N4  UNL     1     109.053  50.239  16.494  1.00  0.00    -0.003 NA
ATOM     19  H5  UNL     1     108.193  51.119  14.817  1.00  0.00     0.185 HD
HETATM   20  N3  UNL     1     110.331  50.154  16.918  1.00  0.00    -0.207 N 
HETATM   21  N12 UNL     1     111.034  50.774  16.026  1.00  0.00    -0.272 N 
ATOM     22  H12 UNL     1     112.048  50.878  16.072  1.00  0.00     0.189 HD
BRANCH  20  23
HETATM   23  C4  UNL     1     110.820  49.502  18.103  1.00  0.00     0.278 C 
BRANCH  23  24
HETATM   24  C3  UNL     1     112.116  48.839  17.882  1.00  0.00     0.283 C 
HETATM   25  O2  UNL     1     112.087  47.594  17.590  1.00  0.00    -0.263 OA
BRANCH  24  26
HETATM   26  O1  UNL     1     113.350  49.433  17.963  1.00  0.00    -0.263 OA
BRANCH  26  27
HETATM   27  C2  UNL     1     114.217  49.763  16.913  1.00  0.00     0.310 A 
HETATM   28  N13 UNL     1     114.288  48.790  15.861  1.00  0.00    -0.268 N 
HETATM   29  N14 UNL     1     115.453  48.462  16.097  1.00  0.00    -0.242 N 
ATOM     30  H13 UNL     1     113.612  48.478  15.163  1.00  0.00     0.186 HD
HETATM   31  N15 UNL     1     115.559  49.340  17.134  1.00  0.00    -0.055 NA
ATOM     32  H14 UNL     1     116.094  47.789  15.676  1.00  0.00     0.203 HD
BRANCH  27  33
HETATM   33  C1  UNL     1     114.168  51.169  16.435  1.00  0.00     0.164 C 
HETATM   34  N2  UNL     1     114.280  51.426  15.048  1.00  0.00    -0.081 NA
BRANCH  33  35
HETATM   35  N1  UNL     1     114.048  52.129  17.256  1.00  0.00    -0.386 N 
ATOM     36  H12 UNL     1     114.857  52.691  17.522  1.00  0.00     0.157 HD
ATOM     37  H11 UNL     1     113.135  52.359  17.649  1.00  0.00     0.157 HD
ENDBRANCH  33  35
ENDBRANCH  27  33
ENDBRANCH  26  27
ENDBRANCH  24  26
ENDBRANCH  23  24
ENDBRANCH  20  23
ENDBRANCH  15  16
ENDBRANCH   1  15
BRANCH  14  38
HETATM   38  C13 UNL     1     111.699  54.275  15.642  1.00  0.00     0.228 C 
HETATM   39  O3  UNL     1     111.343  53.865  16.801  1.00  0.00    -0.643 OA
HETATM   40  O4  UNL     1     113.025  54.579  15.505  1.00  0.00    -0.643 OA
ENDBRANCH  14  38
BRANCH   7  41
HETATM   41  N8  UNL     1     106.318  56.441  10.786  1.00  0.00    -0.234 N 
ATOM     42  H82 UNL     1     105.435  56.864  11.073  1.00  0.00     0.174 HD
ATOM     43  H81 UNL     1     106.508  56.189   9.816  1.00  0.00     0.174 HD
ENDBRANCH   7  41
BRANCH  10  44
HETATM   44  N10 UNL     1     108.753  57.960  14.287  1.00  0.00    -0.383 N 
ATOM     45 2H10 UNL     1     109.402  58.700  14.021  1.00  0.00     0.157 HD
ATOM     46 1H10 UNL     1     108.322  57.961  15.212  1.00  0.00     0.157 HD
ENDBRANCH  10  44
TORSDOF 11
ENDMDL
