MODEL 1
REMARK VINA RESULT: -7.098086147      0.000      0.000
REMARK  13 active torsions:
REMARK  status: ('A' for Active; 'I' for Inactive)
REMARK    1  A    between atoms: N1_1  and  N2_4 
REMARK    2  A    between atoms: N2_4  and  C1_6 
REMARK    3  A    between atoms: N3_7  and  N4_8 
REMARK    4  A    between atoms: N7_15  and  C2_16 
REMARK    5  A    between atoms: C2_16  and  C3_17 
REMARK    6  A    between atoms: C2_16  and  C4_20 
REMARK    7  A    between atoms: C2_16  and  C7_32 
REMARK    8  A    between atoms: C3_17  and  O1_18 
REMARK    9  A    between atoms: C4_20  and  C5_21 
REMARK   10  A    between atoms: N10_28  and  N11_29 
REMARK   11  A    between atoms: C9_34  and  N12_35 
REMARK   12  A    between atoms: C10_38  and  O4_39 
REMARK   13  A    between atoms: C12_42  and  O5_43 
ROOT
HETATM    1  C2  UNL     1     110.408  54.511  14.317  1.00  0.00     0.130 C 
ENDROOT
BRANCH   1   2
HETATM    2  N7  UNL     1     111.568  54.791  13.454  1.00  0.00    -0.086 N 
HETATM    3  C1  UNL     1     112.613  55.559  13.533  1.00  0.00     0.752 A 
HETATM    4  N3  UNL     1     113.395  55.412  12.423  1.00  0.00    -0.008 N 
HETATM    5  N5  UNL     1     112.775  54.535  11.690  1.00  0.00    -0.191 N 
HETATM    6  N6  UNL     1     111.668  54.142  12.291  1.00  0.00    -0.208 N 
ATOM      7  H5  UNL     1     113.098  54.198  10.782  1.00  0.00     0.212 HD
ATOM      8  H6  UNL     1     111.003  53.460  11.928  1.00  0.00     0.210 HD
BRANCH   3   9
HETATM    9  N2  UNL     1     112.925  56.342  14.465  1.00  0.00    -0.134 N 
ATOM     10  H2  UNL     1     113.303  55.906  15.307  1.00  0.00     0.205 HD
BRANCH   9  11
HETATM   11  N1  UNL     1     112.822  57.705  14.493  1.00  0.00    -0.331 N 
ATOM     12  H12 UNL     1     113.187  58.179  13.667  1.00  0.00     0.177 HD
ATOM     13  H11 UNL     1     112.429  58.292  15.229  1.00  0.00     0.177 HD
ENDBRANCH   9  11
ENDBRANCH   3   9
BRANCH   4  14
HETATM   14  N4  UNL     1     114.587  56.038  12.107  1.00  0.00    -0.308 N 
ATOM     15  H42 UNL     1     114.897  56.946  12.453  1.00  0.00     0.179 HD
ATOM     16  H41 UNL     1     115.339  55.718  11.497  1.00  0.00     0.179 HD
ENDBRANCH   4  14
ENDBRANCH   1   2
BRANCH   1  17
HETATM   17  C3  UNL     1     110.578  54.674  15.744  1.00  0.00     0.203 C 
BRANCH  17  18
HETATM   18  O1  UNL     1     111.808  54.569  16.320  1.00  0.00    -0.398 OA
ATOM     19  H1  UNL     1     112.014  53.849  16.905  1.00  0.00     0.209 HD
ENDBRANCH  17  18
ENDBRANCH   1  17
BRANCH   1  20
HETATM   20  C4  UNL     1     109.991  53.119  13.907  1.00  0.00     0.121 C 
BRANCH  20  21
HETATM   21  C5  UNL     1     109.918  52.078  14.907  1.00  0.00     0.123 A 
HETATM   22  N8  UNL     1     108.945  51.427  15.570  1.00  0.00    -0.285 N 
HETATM   23  N9  UNL     1     109.402  50.538  16.401  1.00  0.00    -0.273 N 
ATOM     24  H8  UNL     1     107.951  51.612  15.434  1.00  0.00     0.188 HD
HETATM   25  C6  UNL     1     110.741  50.563  16.321  1.00  0.00     0.213 A 
ATOM     26  H9  UNL     1     108.845  49.932  17.004  1.00  0.00     0.189 HD
HETATM   27  S1  UNL     1     111.754  49.611  17.190  1.00  0.00    -0.037 SA
HETATM   28  N10 UNL     1     111.053  51.492  15.421  1.00  0.00    -0.222 N 
BRANCH  28  29
HETATM   29  N11 UNL     1     112.381  51.798  15.074  1.00  0.00    -0.335 N 
ATOM     30 2H11 UNL     1     113.028  52.251  15.719  1.00  0.00     0.177 HD
ATOM     31 1H11 UNL     1     112.831  51.611  14.178  1.00  0.00     0.177 HD
ENDBRANCH  28  29
ENDBRANCH  20  21
ENDBRANCH   1  20
BRANCH   1  32
HETATM   32  C7  UNL     1     109.403  55.483  13.798  1.00  0.00     0.011 A 
HETATM   33  C8  UNL     1     108.491  55.210  12.795  1.00  0.00     0.051 A 
HETATM   34  C9  UNL     1     107.576  56.109  12.282  1.00  0.00     0.136 A 
HETATM   35  C10 UNL     1     107.549  57.379  12.787  1.00  0.00     0.101 A 
HETATM   36  C11 UNL     1     108.420  57.726  13.777  1.00  0.00     0.076 A 
HETATM   37  C12 UNL     1     109.318  56.803  14.264  1.00  0.00     0.077 A 
BRANCH  34  38
HETATM   38  N12 UNL     1     106.669  55.703  11.230  1.00  0.00    -0.113 N 
HETATM   39  O2  UNL     1     106.281  54.534  11.167  1.00  0.00    -0.532 OA
HETATM   40  O3  UNL     1     106.217  56.582  10.285  1.00  0.00    -0.532 OA
ENDBRANCH  34  38
BRANCH  35  41
HETATM   41  O4  UNL     1     106.628  58.289  12.273  1.00  0.00    -0.358 OA
ATOM     42  H4  UNL     1     106.893  59.194  12.157  1.00  0.00     0.217 HD
ENDBRANCH  35  41
BRANCH  37  43
HETATM   43  O5  UNL     1     110.161  57.217  15.247  1.00  0.00    -0.360 OA
ATOM     44  H5  UNL     1     110.164  58.133  15.500  1.00  0.00     0.217 HD
ENDBRANCH  37  43
ENDBRANCH   1  32
TORSDOF 13
ENDMDL
MODEL 2
REMARK VINA RESULT: -7.048099851      0.511      1.589
REMARK  13 active torsions:
REMARK  status: ('A' for Active; 'I' for Inactive)
REMARK    1  A    between atoms: N1_1  and  N2_4 
REMARK    2  A    between atoms: N2_4  and  C1_6 
REMARK    3  A    between atoms: N3_7  and  N4_8 
REMARK    4  A    between atoms: N7_15  and  C2_16 
REMARK    5  A    between atoms: C2_16  and  C3_17 
REMARK    6  A    between atoms: C2_16  and  C4_20 
REMARK    7  A    between atoms: C2_16  and  C7_32 
REMARK    8  A    between atoms: C3_17  and  O1_18 
REMARK    9  A    between atoms: C4_20  and  C5_21 
REMARK   10  A    between atoms: N10_28  and  N11_29 
REMARK   11  A    between atoms: C9_34  and  N12_35 
REMARK   12  A    between atoms: C10_38  and  O4_39 
REMARK   13  A    between atoms: C12_42  and  O5_43 
ROOT
HETATM    1  C2  UNL     1     110.473  54.727  14.583  1.00  0.00     0.130 C 
ENDROOT
BRANCH   1   2
HETATM    2  N7  UNL     1     111.714  55.154  13.914  1.00  0.00    -0.086 N 
HETATM    3  C1  UNL     1     112.305  54.864  12.794  1.00  0.00     0.752 A 
HETATM    4  N3  UNL     1     113.459  55.583  12.666  1.00  0.00    -0.008 N 
HETATM    5  N5  UNL     1     113.527  56.303  13.747  1.00  0.00    -0.191 N 
HETATM    6  N6  UNL     1     112.484  56.063  14.518  1.00  0.00    -0.208 N 
ATOM      7  H5  UNL     1     114.278  56.958  13.967  1.00  0.00     0.212 HD
ATOM      8  H6  UNL     1     112.297  56.498  15.421  1.00  0.00     0.210 HD
BRANCH   3   9
HETATM    9  N2  UNL     1     111.926  54.056  11.909  1.00  0.00    -0.134 N 
ATOM     10  H2  UNL     1     111.224  54.406  11.256  1.00  0.00     0.205 HD
BRANCH   9  11
HETATM   11  N1  UNL     1     112.336  52.767  11.710  1.00  0.00    -0.331 N 
ATOM     12  H12 UNL     1     112.126  52.128  12.478  1.00  0.00     0.177 HD
ATOM     13  H11 UNL     1     112.818  52.377  10.900  1.00  0.00     0.177 HD
ENDBRANCH   9  11
ENDBRANCH   3   9
BRANCH   4  14
HETATM   14  N4  UNL     1     114.380  55.577  11.635  1.00  0.00    -0.308 N 
ATOM     15  H42 UNL     1     115.382  55.749  11.725  1.00  0.00     0.179 HD
ATOM     16  H41 UNL     1     114.232  55.408  10.640  1.00  0.00     0.179 HD
ENDBRANCH   4  14
ENDBRANCH   1   2
BRANCH   1  17
HETATM   17  C3  UNL     1     110.428  54.803  16.027  1.00  0.00     0.203 C 
BRANCH  17  18
HETATM   18  O1  UNL     1     111.562  54.678  16.772  1.00  0.00    -0.398 OA
ATOM     19  H1  UNL     1     112.163  53.957  16.628  1.00  0.00     0.209 HD
ENDBRANCH  17  18
ENDBRANCH   1  17
BRANCH   1  20
HETATM   20  C4  UNL     1     110.239  53.339  14.037  1.00  0.00     0.121 C 
BRANCH  20  21
HETATM   21  C5  UNL     1     110.061  52.238  14.956  1.00  0.00     0.123 A 
HETATM   22  N8  UNL     1     109.026  51.540  15.456  1.00  0.00    -0.285 N 
HETATM   23  N9  UNL     1     109.393  50.604  16.281  1.00  0.00    -0.273 N 
ATOM     24  H8  UNL     1     108.053  51.727  15.214  1.00  0.00     0.188 HD
HETATM   25  C6  UNL     1     110.732  50.643  16.363  1.00  0.00     0.213 A 
ATOM     26  H9  UNL     1     108.777  49.958  16.774  1.00  0.00     0.189 HD
HETATM   27  S1  UNL     1     111.648  49.645  17.287  1.00  0.00    -0.037 SA
HETATM   28  N10 UNL     1     111.135  51.628  15.565  1.00  0.00    -0.222 N 
BRANCH  28  29
HETATM   29  N11 UNL     1     112.491  51.964  15.399  1.00  0.00    -0.335 N 
ATOM     30 2H11 UNL     1     113.247  51.298  15.558  1.00  0.00     0.177 HD
ATOM     31 1H11 UNL     1     112.859  52.871  15.112  1.00  0.00     0.177 HD
ENDBRANCH  28  29
ENDBRANCH  20  21
ENDBRANCH   1  20
BRANCH   1  32
HETATM   32  C7  UNL     1     109.472  55.654  13.980  1.00  0.00     0.011 A 
HETATM   33  C8  UNL     1     108.599  55.312  12.964  1.00  0.00     0.051 A 
HETATM   34  C9  UNL     1     107.687  56.168  12.374  1.00  0.00     0.136 A 
HETATM   35  C10 UNL     1     107.624  57.462  12.811  1.00  0.00     0.101 A 
HETATM   36  C11 UNL     1     108.456  57.875  13.810  1.00  0.00     0.076 A 
HETATM   37  C12 UNL     1     109.350  56.994  14.373  1.00  0.00     0.077 A 
BRANCH  34  38
HETATM   38  N12 UNL     1     106.822  55.692  11.317  1.00  0.00    -0.113 N 
HETATM   39  O2  UNL     1     106.502  56.445  10.395  1.00  0.00    -0.532 OA
HETATM   40  O3  UNL     1     106.337  54.413  11.301  1.00  0.00    -0.532 OA
ENDBRANCH  34  38
BRANCH  35  41
HETATM   41  O4  UNL     1     106.706  58.328  12.220  1.00  0.00    -0.358 OA
ATOM     42  H4  UNL     1     106.705  59.242  12.478  1.00  0.00     0.217 HD
ENDBRANCH  35  41
BRANCH  37  43
HETATM   43  O5  UNL     1     110.153  57.474  15.360  1.00  0.00    -0.360 OA
ATOM     44  H5  UNL     1     109.821  58.147  15.943  1.00  0.00     0.217 HD
ENDBRANCH  37  43
ENDBRANCH   1  32
TORSDOF 13
ENDMDL
MODEL 3
REMARK VINA RESULT: -6.705674667      1.339      2.686
REMARK  13 active torsions:
REMARK  status: ('A' for Active; 'I' for Inactive)
REMARK    1  A    between atoms: N1_1  and  N2_4 
REMARK    2  A    between atoms: N2_4  and  C1_6 
REMARK    3  A    between atoms: N3_7  and  N4_8 
REMARK    4  A    between atoms: N7_15  and  C2_16 
REMARK    5  A    between atoms: C2_16  and  C3_17 
REMARK    6  A    between atoms: C2_16  and  C4_20 
REMARK    7  A    between atoms: C2_16  and  C7_32 
REMARK    8  A    between atoms: C3_17  and  O1_18 
REMARK    9  A    between atoms: C4_20  and  C5_21 
REMARK   10  A    between atoms: N10_28  and  N11_29 
REMARK   11  A    between atoms: C9_34  and  N12_35 
REMARK   12  A    between atoms: C10_38  and  O4_39 
REMARK   13  A    between atoms: C12_42  and  O5_43 
ROOT
HETATM    1  C2  UNL     1     110.281  54.976  14.636  1.00  0.00     0.130 C 
ENDROOT
BRANCH   1   2
HETATM    2  N7  UNL     1     111.545  55.308  13.958  1.00  0.00    -0.086 N 
HETATM    3  C1  UNL     1     112.148  54.903  12.880  1.00  0.00     0.752 A 
HETATM    4  N3  UNL     1     113.325  55.576  12.713  1.00  0.00    -0.008 N 
HETATM    5  N5  UNL     1     113.393  56.388  13.726  1.00  0.00    -0.191 N 
HETATM    6  N6  UNL     1     112.330  56.247  14.493  1.00  0.00    -0.208 N 
ATOM      7  H5  UNL     1     114.158  57.040  13.902  1.00  0.00     0.212 HD
ATOM      8  H6  UNL     1     112.139  56.766  15.350  1.00  0.00     0.210 HD
BRANCH   3   9
HETATM    9  N2  UNL     1     111.762  54.029  12.063  1.00  0.00    -0.134 N 
ATOM     10  H2  UNL     1     111.122  54.350  11.336  1.00  0.00     0.205 HD
BRANCH   9  11
HETATM   11  N1  UNL     1     112.093  52.703  12.026  1.00  0.00    -0.331 N 
ATOM     12  H12 UNL     1     111.667  52.177  11.262  1.00  0.00     0.177 HD
ATOM     13  H11 UNL     1     112.704  52.188  12.660  1.00  0.00     0.177 HD
ENDBRANCH   9  11
ENDBRANCH   3   9
BRANCH   4  14
HETATM   14  N4  UNL     1     114.264  55.453  11.706  1.00  0.00    -0.308 N 
ATOM     15  H42 UNL     1     114.406  56.106  10.935  1.00  0.00     0.179 HD
ATOM     16  H41 UNL     1     114.956  54.718  11.558  1.00  0.00     0.179 HD
ENDBRANCH   4  14
ENDBRANCH   1   2
BRANCH   1  17
HETATM   17  C3  UNL     1     110.063  55.525  15.956  1.00  0.00     0.203 C 
BRANCH  17  18
HETATM   18  O1  UNL     1     111.058  55.531  16.887  1.00  0.00    -0.398 OA
ATOM     19  H1  UNL     1     111.969  55.451  16.628  1.00  0.00     0.209 HD
ENDBRANCH  17  18
ENDBRANCH   1  17
BRANCH   1  20
HETATM   20  C4  UNL     1     110.240  53.468  14.587  1.00  0.00     0.121 C 
BRANCH  20  21
HETATM   21  C5  UNL     1     110.958  52.708  15.585  1.00  0.00     0.123 A 
HETATM   22  N8  UNL     1     112.120  52.823  16.251  1.00  0.00    -0.285 N 
HETATM   23  N9  UNL     1     112.332  51.844  17.080  1.00  0.00    -0.273 N 
ATOM     24  H8  UNL     1     112.770  53.598  16.119  1.00  0.00     0.188 HD
HETATM   25  C6  UNL     1     111.282  51.012  16.995  1.00  0.00     0.213 A 
ATOM     26  H9  UNL     1     113.146  51.729  17.684  1.00  0.00     0.189 HD
HETATM   27  S1  UNL     1     111.105  49.630  17.859  1.00  0.00    -0.037 SA
HETATM   28  N10 UNL     1     110.454  51.532  16.093  1.00  0.00    -0.222 N 
BRANCH  28  29
HETATM   29  N11 UNL     1     109.236  50.924  15.741  1.00  0.00    -0.335 N 
ATOM     30 2H11 UNL     1     109.073  49.921  15.839  1.00  0.00     0.177 HD
ATOM     31 1H11 UNL     1     108.412  51.392  15.364  1.00  0.00     0.177 HD
ENDBRANCH  28  29
ENDBRANCH  20  21
ENDBRANCH   1  20
BRANCH   1  32
HETATM   32  C7  UNL     1     109.274  55.514  13.675  1.00  0.00     0.011 A 
HETATM   33  C8  UNL     1     108.808  56.816  13.672  1.00  0.00     0.051 A 
HETATM   34  C9  UNL     1     107.853  57.320  12.808  1.00  0.00     0.136 A 
HETATM   35  C10 UNL     1     107.307  56.485  11.874  1.00  0.00     0.101 A 
HETATM   36  C11 UNL     1     107.714  55.184  11.816  1.00  0.00     0.076 A 
HETATM   37  C12 UNL     1     108.668  54.718  12.692  1.00  0.00     0.077 A 
BRANCH  34  38
HETATM   38  N12 UNL     1     107.448  58.705  12.903  1.00  0.00    -0.113 N 
HETATM   39  O2  UNL     1     108.296  59.588  13.054  1.00  0.00    -0.532 OA
HETATM   40  O3  UNL     1     106.135  59.080  12.830  1.00  0.00    -0.532 OA
ENDBRANCH  34  38
BRANCH  35  41
HETATM   41  O4  UNL     1     106.345  56.989  11.002  1.00  0.00    -0.358 OA
ATOM     42  H4  UNL     1     105.545  57.352  11.362  1.00  0.00     0.217 HD
ENDBRANCH  35  41
BRANCH  37  43
HETATM   43  O5  UNL     1     109.023  53.410  12.582  1.00  0.00    -0.360 OA
ATOM     44  H5  UNL     1     108.732  52.793  13.244  1.00  0.00     0.217 HD
ENDBRANCH  37  43
ENDBRANCH   1  32
TORSDOF 13
ENDMDL
MODEL 4
REMARK VINA RESULT: -6.547086459      0.841      1.261
REMARK  13 active torsions:
REMARK  status: ('A' for Active; 'I' for Inactive)
REMARK    1  A    between atoms: N1_1  and  N2_4 
REMARK    2  A    between atoms: N2_4  and  C1_6 
REMARK    3  A    between atoms: N3_7  and  N4_8 
REMARK    4  A    between atoms: N7_15  and  C2_16 
REMARK    5  A    between atoms: C2_16  and  C3_17 
REMARK    6  A    between atoms: C2_16  and  C4_20 
REMARK    7  A    between atoms: C2_16  and  C7_32 
REMARK    8  A    between atoms: C3_17  and  O1_18 
REMARK    9  A    between atoms: C4_20  and  C5_21 
REMARK   10  A    between atoms: N10_28  and  N11_29 
REMARK   11  A    between atoms: C9_34  and  N12_35 
REMARK   12  A    between atoms: C10_38  and  O4_39 
REMARK   13  A    between atoms: C12_42  and  O5_43 
ROOT
HETATM    1  C2  UNL     1     111.118  54.639  14.538  1.00  0.00     0.130 C 
ENDROOT
BRANCH   1   2
HETATM    2  N7  UNL     1     112.157  54.887  13.523  1.00  0.00    -0.086 N 
HETATM    3  C1  UNL     1     113.167  55.697  13.416  1.00  0.00     0.752 A 
HETATM    4  N3  UNL     1     113.821  55.487  12.236  1.00  0.00    -0.008 N 
HETATM    5  N5  UNL     1     113.163  54.528  11.654  1.00  0.00    -0.191 N 
HETATM    6  N6  UNL     1     112.152  54.148  12.411  1.00  0.00    -0.208 N 
ATOM      7  H5  UNL     1     113.394  54.128  10.744  1.00  0.00     0.212 HD
ATOM      8  H6  UNL     1     111.481  53.413  12.186  1.00  0.00     0.210 HD
BRANCH   3   9
HETATM    9  N2  UNL     1     113.548  56.567  14.240  1.00  0.00    -0.134 N 
ATOM     10  H2  UNL     1     114.154  56.236  14.991  1.00  0.00     0.205 HD
BRANCH   9  11
HETATM   11  N1  UNL     1     113.254  57.902  14.254  1.00  0.00    -0.331 N 
ATOM     12  H12 UNL     1     112.273  58.126  14.089  1.00  0.00     0.177 HD
ATOM     13  H11 UNL     1     113.889  58.686  14.409  1.00  0.00     0.177 HD
ENDBRANCH   9  11
ENDBRANCH   3   9
BRANCH   4  14
HETATM   14  N4  UNL     1     114.939  56.126  11.732  1.00  0.00    -0.308 N 
ATOM     15  H42 UNL     1     115.799  56.322  12.244  1.00  0.00     0.179 HD
ATOM     16  H41 UNL     1     115.098  56.502  10.797  1.00  0.00     0.179 HD
ENDBRANCH   4  14
ENDBRANCH   1   2
BRANCH   1  17
HETATM   17  C3  UNL     1     111.436  54.953  15.914  1.00  0.00     0.203 C 
BRANCH  17  18
HETATM   18  O1  UNL     1     110.569  54.648  16.920  1.00  0.00    -0.398 OA
ATOM     19  H1  UNL     1     110.816  54.766  17.830  1.00  0.00     0.209 HD
ENDBRANCH  17  18
ENDBRANCH   1  17
BRANCH   1  20
HETATM   20  C4  UNL     1     110.744  53.194  14.311  1.00  0.00     0.121 C 
BRANCH  20  21
HETATM   21  C5  UNL     1     111.058  52.214  15.325  1.00  0.00     0.123 A 
HETATM   22  N8  UNL     1     112.144  51.855  16.033  1.00  0.00    -0.285 N 
HETATM   23  N9  UNL     1     111.914  50.876  16.859  1.00  0.00    -0.273 N 
ATOM     24  H8  UNL     1     113.055  52.303  15.933  1.00  0.00     0.188 HD
HETATM   25  C6  UNL     1     110.622  50.536  16.728  1.00  0.00     0.213 A 
ATOM     26  H9  UNL     1     112.590  50.447  17.490  1.00  0.00     0.189 HD
HETATM   27  S1  UNL     1     109.873  49.345  17.570  1.00  0.00    -0.037 SA
HETATM   28  N10 UNL     1     110.106  51.342  15.803  1.00  0.00    -0.222 N 
BRANCH  28  29
HETATM   29  N11 UNL     1     108.761  51.272  15.401  1.00  0.00    -0.335 N 
ATOM     30 2H11 UNL     1     108.128  52.071  15.453  1.00  0.00     0.177 HD
ATOM     31 1H11 UNL     1     108.282  50.453  15.028  1.00  0.00     0.177 HD
ENDBRANCH  28  29
ENDBRANCH  20  21
ENDBRANCH   1  20
BRANCH   1  32
HETATM   32  C7  UNL     1     110.006  55.504  14.049  1.00  0.00     0.011 A 
HETATM   33  C8  UNL     1     109.091  55.134  13.080  1.00  0.00     0.051 A 
HETATM   34  C9  UNL     1     108.075  55.936  12.595  1.00  0.00     0.136 A 
HETATM   35  C10 UNL     1     107.941  57.201  13.095  1.00  0.00     0.101 A 
HETATM   36  C11 UNL     1     108.807  57.639  14.053  1.00  0.00     0.076 A 
HETATM   37  C12 UNL     1     109.807  56.813  14.512  1.00  0.00     0.077 A 
BRANCH  34  38
HETATM   38  N12 UNL     1     107.177  55.434  11.578  1.00  0.00    -0.113 N 
HETATM   39  O2  UNL     1     106.849  54.245  11.575  1.00  0.00    -0.532 OA
HETATM   40  O3  UNL     1     106.668  56.243  10.600  1.00  0.00    -0.532 OA
ENDBRANCH  34  38
BRANCH  35  41
HETATM   41  O4  UNL     1     106.917  58.011  12.609  1.00  0.00    -0.358 OA
ATOM     42  H4  UNL     1     106.245  58.310  13.210  1.00  0.00     0.217 HD
ENDBRANCH  35  41
BRANCH  37  43
HETATM   43  O5  UNL     1     110.638  57.315  15.464  1.00  0.00    -0.360 OA
ATOM     44  H5  UNL     1     110.646  58.252  15.626  1.00  0.00     0.217 HD
ENDBRANCH  37  43
ENDBRANCH   1  32
TORSDOF 13
ENDMDL
MODEL 5
REMARK VINA RESULT: -6.493543604      1.243      2.284
REMARK  13 active torsions:
REMARK  status: ('A' for Active; 'I' for Inactive)
REMARK    1  A    between atoms: N1_1  and  N2_4 
REMARK    2  A    between atoms: N2_4  and  C1_6 
REMARK    3  A    between atoms: N3_7  and  N4_8 
REMARK    4  A    between atoms: N7_15  and  C2_16 
REMARK    5  A    between atoms: C2_16  and  C3_17 
REMARK    6  A    between atoms: C2_16  and  C4_20 
REMARK    7  A    between atoms: C2_16  and  C7_32 
REMARK    8  A    between atoms: C3_17  and  O1_18 
REMARK    9  A    between atoms: C4_20  and  C5_21 
REMARK   10  A    between atoms: N10_28  and  N11_29 
REMARK   11  A    between atoms: C9_34  and  N12_35 
REMARK   12  A    between atoms: C10_38  and  O4_39 
REMARK   13  A    between atoms: C12_42  and  O5_43 
ROOT
HETATM    1  C2  UNL     1     110.063  55.025  14.394  1.00  0.00     0.130 C 
ENDROOT
BRANCH   1   2
HETATM    2  N7  UNL     1     111.252  54.968  13.527  1.00  0.00    -0.086 N 
HETATM    3  C1  UNL     1     112.383  55.605  13.470  1.00  0.00     0.752 A 
HETATM    4  N3  UNL     1     113.146  55.126  12.443  1.00  0.00    -0.008 N 
HETATM    5  N5  UNL     1     112.427  54.188  11.900  1.00  0.00    -0.191 N 
HETATM    6  N6  UNL     1     111.277  54.072  12.536  1.00  0.00    -0.208 N 
ATOM      7  H5  UNL     1     112.710  53.624  11.098  1.00  0.00     0.212 HD
ATOM      8  H6  UNL     1     110.535  53.411  12.311  1.00  0.00     0.210 HD
BRANCH   3   9
HETATM    9  N2  UNL     1     112.785  56.531  14.218  1.00  0.00    -0.134 N 
ATOM     10  H2  UNL     1     112.419  57.461  14.012  1.00  0.00     0.205 HD
BRANCH   9  11
HETATM   11  N1  UNL     1     113.650  56.449  15.273  1.00  0.00    -0.331 N 
ATOM     12  H12 UNL     1     113.423  55.728  15.958  1.00  0.00     0.177 HD
ATOM     13  H11 UNL     1     114.481  57.014  15.452  1.00  0.00     0.177 HD
ENDBRANCH   9  11
ENDBRANCH   3   9
BRANCH   4  14
HETATM   14  N4  UNL     1     114.407  55.520  12.036  1.00  0.00    -0.308 N 
ATOM     15  H42 UNL     1     114.662  56.442  11.682  1.00  0.00     0.179 HD
ATOM     16  H41 UNL     1     115.274  54.983  12.016  1.00  0.00     0.179 HD
ENDBRANCH   4  14
ENDBRANCH   1   2
BRANCH   1  17
HETATM   17  C3  UNL     1     110.144  55.828  15.594  1.00  0.00     0.203 C 
BRANCH  17  18
HETATM   18  O1  UNL     1     111.117  55.606  16.522  1.00  0.00    -0.398 OA
ATOM     19  H1  UNL     1     111.014  55.902  17.418  1.00  0.00     0.209 HD
ENDBRANCH  17  18
ENDBRANCH   1  17
BRANCH   1  20
HETATM   20  C4  UNL     1     109.746  53.572  14.652  1.00  0.00     0.121 C 
BRANCH  20  21
HETATM   21  C5  UNL     1     110.635  52.789  15.480  1.00  0.00     0.123 A 
HETATM   22  N8  UNL     1     111.870  52.932  15.993  1.00  0.00    -0.285 N 
HETATM   23  N9  UNL     1     112.248  51.910  16.704  1.00  0.00    -0.273 N 
ATOM     24  H8  UNL     1     112.451  53.756  15.840  1.00  0.00     0.188 HD
HETATM   25  C6  UNL     1     111.245  51.020  16.692  1.00  0.00     0.213 A 
ATOM     26  H9  UNL     1     113.143  51.806  17.183  1.00  0.00     0.189 HD
HETATM   27  S1  UNL     1     111.265  49.569  17.456  1.00  0.00    -0.037 SA
HETATM   28  N10 UNL     1     110.273  51.548  15.953  1.00  0.00    -0.222 N 
BRANCH  28  29
HETATM   29  N11 UNL     1     109.054  50.888  15.717  1.00  0.00    -0.335 N 
ATOM     30 2H11 UNL     1     108.944  50.176  14.995  1.00  0.00     0.177 HD
ATOM     31 1H11 UNL     1     108.178  51.037  16.218  1.00  0.00     0.177 HD
ENDBRANCH  28  29
ENDBRANCH  20  21
ENDBRANCH   1  20
BRANCH   1  32
HETATM   32  C7  UNL     1     109.038  55.580  13.463  1.00  0.00     0.011 A 
HETATM   33  C8  UNL     1     108.602  56.892  13.467  1.00  0.00     0.051 A 
HETATM   34  C9  UNL     1     107.631  57.413  12.633  1.00  0.00     0.136 A 
HETATM   35  C10 UNL     1     107.036  56.587  11.721  1.00  0.00     0.101 A 
HETATM   36  C11 UNL     1     107.411  55.277  11.657  1.00  0.00     0.076 A 
HETATM   37  C12 UNL     1     108.382  54.793  12.504  1.00  0.00     0.077 A 
BRANCH  34  38
HETATM   38  N12 UNL     1     107.260  58.808  12.732  1.00  0.00    -0.113 N 
HETATM   39  O2  UNL     1     106.071  59.134  12.718  1.00  0.00    -0.532 OA
HETATM   40  O3  UNL     1     108.197  59.799  12.843  1.00  0.00    -0.532 OA
ENDBRANCH  34  38
BRANCH  35  41
HETATM   41  O4  UNL     1     106.058  57.108  10.878  1.00  0.00    -0.358 OA
ATOM     42  H4  UNL     1     105.962  56.743  10.006  1.00  0.00     0.217 HD
ENDBRANCH  35  41
BRANCH  37  43
HETATM   43  O5  UNL     1     108.704  53.477  12.391  1.00  0.00    -0.360 OA
ATOM     44  H5  UNL     1     109.619  53.222  12.386  1.00  0.00     0.217 HD
ENDBRANCH  37  43
ENDBRANCH   1  32
TORSDOF 13
ENDMDL
