MODEL 1
REMARK VINA RESULT: -7.138248221      0.000      0.000
REMARK  13 active torsions:
REMARK  status: ('A' for Active; 'I' for Inactive)
REMARK    1  A    between atoms: C2_2  and  O1_3 
REMARK    2  A    between atoms: C2_2  and  N1_5 
REMARK    3  A    between atoms: N1_5  and  C3_7 
REMARK    4  A    between atoms: C4_10  and  N3_11 
REMARK    5  A    between atoms: C5_16  and  C6_17 
REMARK       I    between atoms: C6_17  and  N6_19 
REMARK    6  A    between atoms: N6_19  and  N7_21 
REMARK    7  A    between atoms: N7_21  and  C7_23 
REMARK    8  A    between atoms: C7_23  and  C8_27 
REMARK    9  A    between atoms: C10_35  and  C11_36 
REMARK   10  A    between atoms: C11_36  and  O4_37 
REMARK   11  A    between atoms: C11_36  and  C12_39 
REMARK   12  A    between atoms: C12_39  and  O5_40 
REMARK   13  A    between atoms: C12_39  and  O6_42 
ROOT
HETATM    1  N3  UNL     1     110.643  54.762  15.664  1.00  0.00    -0.162 N 
HETATM    2  N4  UNL     1     110.996  55.690  16.502  1.00  0.00    -0.218 N 
ATOM      3  H4  UNL     1     110.739  56.674  16.423  1.00  0.00     0.210 HD
HETATM    4  N5  UNL     1     111.733  55.180  17.468  1.00  0.00    -0.264 N 
ATOM      5  H5  UNL     1     112.141  55.691  18.251  1.00  0.00     0.190 HD
HETATM    6  C5  UNL     1     111.847  53.874  17.235  1.00  0.00     0.208 A 
HETATM    7  N11 UNL     1     111.142  53.649  16.076  1.00  0.00    -0.255 N 
ATOM      8  H11 UNL     1     111.032  52.745  15.617  1.00  0.00     0.191 HD
ENDROOT
BRANCH   1   9
HETATM    9  C4  UNL     1     109.719  54.910  14.540  1.00  0.00     0.169 A 
HETATM   10  N2  UNL     1     109.204  56.107  14.259  1.00  0.00    -0.319 N 
HETATM   11  C3  UNL     1     108.509  56.275  13.124  1.00  0.00     0.148 A 
ATOM     12  H2  UNL     1     109.337  56.889  14.901  1.00  0.00     0.169 HD
HETATM   13  S1  UNL     1     108.573  54.725  12.426  1.00  0.00    -0.048 SA
HETATM   14  C10 UNL     1     109.508  53.908  13.662  1.00  0.00     0.090 A 
BRANCH  11  15
HETATM   15  N1  UNL     1     107.964  57.362  12.797  1.00  0.00    -0.344 N 
ATOM     16  H1  UNL     1     107.869  57.341  11.782  1.00  0.00     0.164 HD
BRANCH  15  17
HETATM   17  C2  UNL     1     107.450  58.546  13.206  1.00  0.00     0.215 C 
HETATM   18  C1  UNL     1     108.593  59.593  13.242  1.00  0.00     0.063 C 
BRANCH  17  19
HETATM   19  O1  UNL     1     106.450  59.094  12.388  1.00  0.00    -0.377 OA
ATOM     20  H1  UNL     1     106.789  59.927  12.084  1.00  0.00     0.212 HD
ENDBRANCH  17  19
ENDBRANCH  15  17
ENDBRANCH  11  15
BRANCH  14  21
HETATM   21  C11 UNL     1     109.700  52.442  13.752  1.00  0.00     0.119 C 
BRANCH  21  22
HETATM   22  O4  UNL     1     109.129  51.728  14.736  1.00  0.00    -0.359 OA
ATOM     23  H4  UNL     1     108.261  51.942  15.055  1.00  0.00     0.217 HD
ENDBRANCH  21  22
BRANCH  21  24
HETATM   24  C12 UNL     1     110.921  51.838  13.126  1.00  0.00     0.313 C 
BRANCH  24  25
HETATM   25  O5  UNL     1     110.662  50.531  12.733  1.00  0.00    -0.365 OA
ATOM     26  H5  UNL     1     110.624  50.475  11.785  1.00  0.00     0.213 HD
ENDBRANCH  24  25
BRANCH  24  27
HETATM   27  O6  UNL     1     111.853  51.629  14.249  1.00  0.00    -0.365 OA
ATOM     28  H6  UNL     1     112.571  52.227  14.082  1.00  0.00     0.213 HD
ENDBRANCH  24  27
ENDBRANCH  21  24
ENDBRANCH  14  21
ENDBRANCH   1   9
BRANCH   6  29
HETATM   29  C6  UNL     1     112.504  52.909  18.070  1.00  0.00     0.306 C 
HETATM   30  O2  UNL     1     113.424  53.278  18.857  1.00  0.00    -0.262 OA
HETATM   31  N6  UNL     1     112.179  51.538  18.052  1.00  0.00    -0.262 N 
ATOM     32  H6  UNL     1     111.439  51.211  17.431  1.00  0.00     0.190 HD
BRANCH  31  33
HETATM   33  N7  UNL     1     112.843  50.615  18.862  1.00  0.00    -0.281 N 
ATOM     34  H7  UNL     1     113.861  50.656  18.897  1.00  0.00     0.188 HD
BRANCH  33  35
HETATM   35  C7  UNL     1     112.200  49.637  19.629  1.00  0.00     0.143 C 
HETATM   36  N8  UNL     1     112.459  49.497  20.883  1.00  0.00    -0.383 N 
ATOM     37  H82 UNL     1     113.134  50.150  21.280  1.00  0.00     0.157 HD
ATOM     38  H81 UNL     1     111.991  48.784  21.443  1.00  0.00     0.157 HD
BRANCH  35  39
HETATM   39  C8  UNL     1     111.230  48.698  19.060  1.00  0.00     0.115 A 
HETATM   40  C9  UNL     1     111.310  47.346  19.071  1.00  0.00     0.198 A 
HETATM   41  O3  UNL     1     110.254  46.851  18.437  1.00  0.00    -0.234 OA
HETATM   42  N9  UNL     1     109.518  47.814  18.028  1.00  0.00     0.026 NA
HETATM   43  N10 UNL     1     110.069  48.990  18.382  1.00  0.00    -0.273 N 
ATOM     44  H10 UNL     1     109.697  49.919  18.187  1.00  0.00     0.185 HD
ENDBRANCH  35  39
ENDBRANCH  33  35
ENDBRANCH  31  33
ENDBRANCH   6  29
TORSDOF 13
ENDMDL
MODEL 2
REMARK VINA RESULT: -7.113358186      2.750      9.114
REMARK  13 active torsions:
REMARK  status: ('A' for Active; 'I' for Inactive)
REMARK    1  A    between atoms: C2_2  and  O1_3 
REMARK    2  A    between atoms: C2_2  and  N1_5 
REMARK    3  A    between atoms: N1_5  and  C3_7 
REMARK    4  A    between atoms: C4_10  and  N3_11 
REMARK    5  A    between atoms: C5_16  and  C6_17 
REMARK       I    between atoms: C6_17  and  N6_19 
REMARK    6  A    between atoms: N6_19  and  N7_21 
REMARK    7  A    between atoms: N7_21  and  C7_23 
REMARK    8  A    between atoms: C7_23  and  C8_27 
REMARK    9  A    between atoms: C10_35  and  C11_36 
REMARK   10  A    between atoms: C11_36  and  O4_37 
REMARK   11  A    between atoms: C11_36  and  C12_39 
REMARK   12  A    between atoms: C12_39  and  O5_40 
REMARK   13  A    between atoms: C12_39  and  O6_42 
ROOT
HETATM    1  N3  UNL     1     110.726  52.909  14.801  1.00  0.00    -0.162 N 
HETATM    2  N4  UNL     1     111.244  52.692  13.630  1.00  0.00    -0.218 N 
ATOM      3  H4  UNL     1     111.998  52.031  13.440  1.00  0.00     0.210 HD
HETATM    4  N5  UNL     1     110.658  53.446  12.721  1.00  0.00    -0.264 N 
ATOM      5  H5  UNL     1     110.877  53.473  11.726  1.00  0.00     0.190 HD
HETATM    6  C5  UNL     1     109.727  54.167  13.342  1.00  0.00     0.208 A 
HETATM    7  N11 UNL     1     109.805  53.798  14.665  1.00  0.00    -0.255 N 
ATOM      8  H11 UNL     1     109.225  54.170  15.418  1.00  0.00     0.191 HD
ENDROOT
BRANCH   1   9
HETATM    9  C4  UNL     1     111.018  52.174  16.032  1.00  0.00     0.169 A 
HETATM   10  N2  UNL     1     110.518  50.951  16.208  1.00  0.00    -0.319 N 
HETATM   11  C3  UNL     1     110.936  50.212  17.246  1.00  0.00     0.148 A 
ATOM     12  H2  UNL     1     109.823  50.580  15.559  1.00  0.00     0.169 HD
HETATM   13  S1  UNL     1     112.059  51.246  18.000  1.00  0.00    -0.048 SA
HETATM   14  C10 UNL     1     111.928  52.621  16.922  1.00  0.00     0.090 A 
BRANCH  11  15
HETATM   15  N1  UNL     1     110.494  49.062  17.503  1.00  0.00    -0.344 N 
ATOM     16  H1  UNL     1     111.004  48.417  16.898  1.00  0.00     0.164 HD
BRANCH  15  17
HETATM   17  C2  UNL     1     109.638  48.308  18.232  1.00  0.00     0.215 C 
HETATM   18  C1  UNL     1     108.263  48.292  17.516  1.00  0.00     0.063 C 
BRANCH  17  19
HETATM   19  O1  UNL     1     110.000  46.962  18.402  1.00  0.00    -0.377 OA
ATOM     20  H1  UNL     1     109.709  46.721  19.274  1.00  0.00     0.212 HD
ENDBRANCH  17  19
ENDBRANCH  15  17
ENDBRANCH  11  15
BRANCH  14  21
HETATM   21  C11 UNL     1     112.493  53.964  17.187  1.00  0.00     0.119 C 
BRANCH  21  22
HETATM   22  O4  UNL     1     111.862  54.834  17.991  1.00  0.00    -0.359 OA
ATOM     23  H4  UNL     1     111.358  55.555  17.633  1.00  0.00     0.217 HD
ENDBRANCH  21  22
BRANCH  21  24
HETATM   24  C12 UNL     1     113.428  54.561  16.177  1.00  0.00     0.313 C 
BRANCH  24  25
HETATM   25  O5  UNL     1     112.707  55.205  15.179  1.00  0.00    -0.365 OA
ATOM     26  H5  UNL     1     112.586  54.625  14.436  1.00  0.00     0.213 HD
ENDBRANCH  24  25
BRANCH  24  27
HETATM   27  O6  UNL     1     113.976  53.405  15.445  1.00  0.00    -0.365 OA
ATOM     28  H6  UNL     1     113.379  53.275  14.718  1.00  0.00     0.213 HD
ENDBRANCH  24  27
ENDBRANCH  21  24
ENDBRANCH  14  21
ENDBRANCH   1   9
BRANCH   6  29
HETATM   29  C6  UNL     1     108.796  55.073  12.731  1.00  0.00     0.306 C 
HETATM   30  O2  UNL     1     108.097  54.691  11.748  1.00  0.00    -0.262 OA
HETATM   31  N6  UNL     1     108.622  56.400  13.173  1.00  0.00    -0.262 N 
ATOM     32  H6  UNL     1     109.168  56.735  13.966  1.00  0.00     0.190 HD
BRANCH  31  33
HETATM   33  N7  UNL     1     107.722  57.267  12.553  1.00  0.00    -0.281 N 
ATOM     34  H7  UNL     1     107.361  57.005  11.636  1.00  0.00     0.188 HD
BRANCH  33  35
HETATM   35  C7  UNL     1     107.284  58.475  13.110  1.00  0.00     0.143 C 
HETATM   36  N8  UNL     1     106.037  58.679  13.360  1.00  0.00    -0.383 N 
ATOM     37  H82 UNL     1     105.403  57.907  13.154  1.00  0.00     0.157 HD
ATOM     38  H81 UNL     1     105.717  59.558  13.766  1.00  0.00     0.157 HD
BRANCH  35  39
HETATM   39  C8  UNL     1     108.194  59.583  13.406  1.00  0.00     0.115 A 
HETATM   40  C9  UNL     1     109.419  59.494  13.977  1.00  0.00     0.198 A 
HETATM   41  O3  UNL     1     109.922  60.716  14.102  1.00  0.00    -0.234 OA
HETATM   42  N9  UNL     1     109.083  61.566  13.642  1.00  0.00     0.026 NA
HETATM   43  N10 UNL     1     107.987  60.926  13.195  1.00  0.00    -0.273 N 
ATOM     44  H10 UNL     1     107.161  61.355  12.779  1.00  0.00     0.185 HD
ENDBRANCH  35  39
ENDBRANCH  33  35
ENDBRANCH  31  33
ENDBRANCH   6  29
TORSDOF 13
ENDMDL
MODEL 3
REMARK VINA RESULT: -7.069061248      3.127      9.469
REMARK  13 active torsions:
REMARK  status: ('A' for Active; 'I' for Inactive)
REMARK    1  A    between atoms: C2_2  and  O1_3 
REMARK    2  A    between atoms: C2_2  and  N1_5 
REMARK    3  A    between atoms: N1_5  and  C3_7 
REMARK    4  A    between atoms: C4_10  and  N3_11 
REMARK    5  A    between atoms: C5_16  and  C6_17 
REMARK       I    between atoms: C6_17  and  N6_19 
REMARK    6  A    between atoms: N6_19  and  N7_21 
REMARK    7  A    between atoms: N7_21  and  C7_23 
REMARK    8  A    between atoms: C7_23  and  C8_27 
REMARK    9  A    between atoms: C10_35  and  C11_36 
REMARK   10  A    between atoms: C11_36  and  O4_37 
REMARK   11  A    between atoms: C11_36  and  C12_39 
REMARK   12  A    between atoms: C12_39  and  O5_40 
REMARK   13  A    between atoms: C12_39  and  O6_42 
ROOT
HETATM    1  N3  UNL     1     109.656  53.833  13.809  1.00  0.00    -0.162 N 
HETATM    2  N4  UNL     1     108.949  53.628  12.738  1.00  0.00    -0.218 N 
ATOM      3  H4  UNL     1     108.835  52.723  12.280  1.00  0.00     0.210 HD
HETATM    4  N5  UNL     1     108.399  54.753  12.328  1.00  0.00    -0.264 N 
ATOM      5  H5  UNL     1     107.800  54.870  11.511  1.00  0.00     0.190 HD
HETATM    6  C5  UNL     1     108.770  55.710  13.176  1.00  0.00     0.208 A 
HETATM    7  N11 UNL     1     109.572  55.084  14.101  1.00  0.00    -0.255 N 
ATOM      8  H11 UNL     1     110.027  55.539  14.893  1.00  0.00     0.191 HD
ENDROOT
BRANCH   1   9
HETATM    9  C4  UNL     1     110.308  52.814  14.630  1.00  0.00     0.169 A 
HETATM   10  N2  UNL     1     109.573  52.026  15.416  1.00  0.00    -0.319 N 
HETATM   11  C3  UNL     1     110.150  50.978  16.022  1.00  0.00     0.148 A 
ATOM     12  H2  UNL     1     108.581  52.219  15.556  1.00  0.00     0.169 HD
HETATM   13  S1  UNL     1     111.761  51.087  15.482  1.00  0.00    -0.048 SA
HETATM   14  C10 UNL     1     111.617  52.520  14.484  1.00  0.00     0.090 A 
BRANCH  11  15
HETATM   15  N1  UNL     1     109.538  50.203  16.802  1.00  0.00    -0.344 N 
ATOM     16  H1  UNL     1     108.544  50.392  16.673  1.00  0.00     0.164 HD
BRANCH  15  17
HETATM   17  C2  UNL     1     109.625  49.229  17.739  1.00  0.00     0.215 C 
HETATM   18  C1  UNL     1     108.420  48.269  17.564  1.00  0.00     0.063 C 
BRANCH  17  19
HETATM   19  O1  UNL     1     110.772  48.423  17.679  1.00  0.00    -0.377 OA
ATOM     20  H1  UNL     1     111.256  48.715  16.915  1.00  0.00     0.212 HD
ENDBRANCH  17  19
ENDBRANCH  15  17
ENDBRANCH  11  15
BRANCH  14  21
HETATM   21  C11 UNL     1     112.756  53.279  13.919  1.00  0.00     0.119 C 
BRANCH  21  22
HETATM   22  O4  UNL     1     113.401  54.204  14.648  1.00  0.00    -0.359 OA
ATOM     23  H4  UNL     1     113.631  55.046  14.276  1.00  0.00     0.217 HD
ENDBRANCH  21  22
BRANCH  21  24
HETATM   24  C12 UNL     1     112.846  53.435  12.430  1.00  0.00     0.313 C 
BRANCH  24  25
HETATM   25  O5  UNL     1     112.036  54.483  12.009  1.00  0.00    -0.365 OA
ATOM     26  H5  UNL     1     111.134  54.195  11.945  1.00  0.00     0.213 HD
ENDBRANCH  24  25
BRANCH  24  27
HETATM   27  O6  UNL     1     112.125  52.270  11.887  1.00  0.00    -0.365 OA
ATOM     28  H6  UNL     1     112.411  52.208  10.984  1.00  0.00     0.213 HD
ENDBRANCH  24  27
ENDBRANCH  21  24
ENDBRANCH  14  21
ENDBRANCH   1   9
BRANCH   6  29
HETATM   29  C6  UNL     1     108.348  57.082  13.158  1.00  0.00     0.306 C 
HETATM   30  O2  UNL     1     107.311  57.414  12.513  1.00  0.00    -0.262 OA
HETATM   31  N6  UNL     1     109.050  58.105  13.827  1.00  0.00    -0.262 N 
ATOM     32  H6  UNL     1     109.887  57.867  14.359  1.00  0.00     0.190 HD
BRANCH  31  33
HETATM   33  N7  UNL     1     108.629  59.434  13.782  1.00  0.00    -0.281 N 
ATOM     34  H7  UNL     1     107.629  59.616  13.698  1.00  0.00     0.188 HD
BRANCH  33  35
HETATM   35  C7  UNL     1     109.493  60.535  13.844  1.00  0.00     0.143 C 
HETATM   36  N8  UNL     1     110.766  60.390  13.718  1.00  0.00    -0.383 N 
ATOM     37  H82 UNL     1     111.098  59.441  13.547  1.00  0.00     0.157 HD
ATOM     38  H81 UNL     1     111.396  61.191  13.763  1.00  0.00     0.157 HD
BRANCH  35  39
HETATM   39  C8  UNL     1     109.017  61.898  14.088  1.00  0.00     0.115 A 
HETATM   40  C9  UNL     1     109.247  62.650  15.191  1.00  0.00     0.198 A 
HETATM   41  O3  UNL     1     108.632  63.818  15.048  1.00  0.00    -0.234 OA
HETATM   42  N9  UNL     1     108.029  63.841  13.920  1.00  0.00     0.026 NA
HETATM   43  N10 UNL     1     108.229  62.677  13.274  1.00  0.00    -0.273 N 
ATOM     44  H10 UNL     1     107.865  62.421  12.356  1.00  0.00     0.185 HD
ENDBRANCH  35  39
ENDBRANCH  33  35
ENDBRANCH  31  33
ENDBRANCH   6  29
TORSDOF 13
ENDMDL
MODEL 4
REMARK VINA RESULT: -7.059512639      2.163      3.515
REMARK  13 active torsions:
REMARK  status: ('A' for Active; 'I' for Inactive)
REMARK    1  A    between atoms: C2_2  and  O1_3 
REMARK    2  A    between atoms: C2_2  and  N1_5 
REMARK    3  A    between atoms: N1_5  and  C3_7 
REMARK    4  A    between atoms: C4_10  and  N3_11 
REMARK    5  A    between atoms: C5_16  and  C6_17 
REMARK       I    between atoms: C6_17  and  N6_19 
REMARK    6  A    between atoms: N6_19  and  N7_21 
REMARK    7  A    between atoms: N7_21  and  C7_23 
REMARK    8  A    between atoms: C7_23  and  C8_27 
REMARK    9  A    between atoms: C10_35  and  C11_36 
REMARK   10  A    between atoms: C11_36  and  O4_37 
REMARK   11  A    between atoms: C11_36  and  C12_39 
REMARK   12  A    between atoms: C12_39  and  O5_40 
REMARK   13  A    between atoms: C12_39  and  O6_42 
ROOT
HETATM    1  N3  UNL     1     110.175  53.835  14.143  1.00  0.00    -0.162 N 
HETATM    2  N4  UNL     1     110.262  53.053  13.109  1.00  0.00    -0.218 N 
ATOM      3  H4  UNL     1     110.080  53.338  12.146  1.00  0.00     0.210 HD
HETATM    4  N5  UNL     1     110.619  51.839  13.479  1.00  0.00    -0.264 N 
ATOM      5  H5  UNL     1     110.755  51.036  12.866  1.00  0.00     0.190 HD
HETATM    6  C5  UNL     1     110.769  51.855  14.802  1.00  0.00     0.208 A 
HETATM    7  N11 UNL     1     110.474  53.142  15.186  1.00  0.00    -0.255 N 
ATOM      8  H11 UNL     1     110.489  53.492  16.144  1.00  0.00     0.191 HD
ENDROOT
BRANCH   1   9
HETATM    9  C4  UNL     1     109.935  55.277  14.125  1.00  0.00     0.169 A 
HETATM   10  N2  UNL     1     108.949  55.776  13.377  1.00  0.00    -0.319 N 
HETATM   11  C3  UNL     1     108.615  57.069  13.506  1.00  0.00     0.148 A 
ATOM     12  H2  UNL     1     108.454  55.180  12.713  1.00  0.00     0.169 HD
HETATM   13  S1  UNL     1     109.699  57.608  14.702  1.00  0.00    -0.048 SA
HETATM   14  C10 UNL     1     110.562  56.109  14.982  1.00  0.00     0.090 A 
BRANCH  11  15
HETATM   15  N1  UNL     1     107.720  57.626  12.819  1.00  0.00    -0.344 N 
ATOM     16  H1  UNL     1     107.624  57.073  11.967  1.00  0.00     0.164 HD
BRANCH  15  17
HETATM   17  C2  UNL     1     106.828  58.641  12.719  1.00  0.00     0.215 C 
HETATM   18  C1  UNL     1     105.766  58.475  13.836  1.00  0.00     0.063 C 
BRANCH  17  19
HETATM   19  O1  UNL     1     107.352  59.933  12.873  1.00  0.00    -0.377 OA
ATOM     20  H1  UNL     1     107.800  59.935  13.711  1.00  0.00     0.212 HD
ENDBRANCH  17  19
ENDBRANCH  15  17
ENDBRANCH  11  15
BRANCH  14  21
HETATM   21  C11 UNL     1     111.817  55.984  15.759  1.00  0.00     0.119 C 
BRANCH  21  22
HETATM   22  O4  UNL     1     112.894  55.373  15.241  1.00  0.00    -0.359 OA
ATOM     23  H4  UNL     1     113.584  55.040  15.801  1.00  0.00     0.217 HD
ENDBRANCH  21  22
BRANCH  21  24
HETATM   24  C12 UNL     1     111.740  56.023  17.256  1.00  0.00     0.313 C 
BRANCH  24  25
HETATM   25  O5  UNL     1     112.957  55.641  17.808  1.00  0.00    -0.365 OA
ATOM     26  H5  UNL     1     112.813  55.145  18.605  1.00  0.00     0.213 HD
ENDBRANCH  24  25
BRANCH  24  27
HETATM   27  O6  UNL     1     110.881  54.881  17.617  1.00  0.00    -0.365 OA
ATOM     28  H6  UNL     1     111.480  54.227  17.959  1.00  0.00     0.213 HD
ENDBRANCH  24  27
ENDBRANCH  21  24
ENDBRANCH  14  21
ENDBRANCH   1   9
BRANCH   6  29
HETATM   29  C6  UNL     1     111.220  50.770  15.626  1.00  0.00     0.306 C 
HETATM   30  O2  UNL     1     112.280  50.148  15.325  1.00  0.00    -0.262 OA
HETATM   31  N6  UNL     1     110.523  50.343  16.774  1.00  0.00    -0.262 N 
ATOM     32  H6  UNL     1     109.667  50.827  17.044  1.00  0.00     0.190 HD
BRANCH  31  33
HETATM   33  N7  UNL     1     110.972  49.274  17.550  1.00  0.00    -0.281 N 
ATOM     34  H7  UNL     1     110.622  48.343  17.329  1.00  0.00     0.188 HD
BRANCH  33  35
HETATM   35  C7  UNL     1     111.873  49.401  18.615  1.00  0.00     0.143 C 
HETATM   36  N8  UNL     1     113.122  49.638  18.406  1.00  0.00    -0.383 N 
ATOM     37  H82 UNL     1     113.403  49.751  17.432  1.00  0.00     0.157 HD
ATOM     38  H81 UNL     1     113.779  49.730  19.181  1.00  0.00     0.157 HD
BRANCH  35  39
HETATM   39  C8  UNL     1     111.470  49.238  20.013  1.00  0.00     0.115 A 
HETATM   40  C9  UNL     1     111.110  48.084  20.623  1.00  0.00     0.198 A 
HETATM   41  O3  UNL     1     110.792  48.348  21.885  1.00  0.00    -0.234 OA
HETATM   42  N9  UNL     1     110.930  49.601  22.100  1.00  0.00     0.026 NA
HETATM   43  N10 UNL     1     111.350  50.213  20.977  1.00  0.00    -0.273 N 
ATOM     44  H10 UNL     1     111.542  51.207  20.862  1.00  0.00     0.185 HD
ENDBRANCH  35  39
ENDBRANCH  33  35
ENDBRANCH  31  33
ENDBRANCH   6  29
TORSDOF 13
ENDMDL
MODEL 5
REMARK VINA RESULT: -7.026876350      4.119      9.508
REMARK  13 active torsions:
REMARK  status: ('A' for Active; 'I' for Inactive)
REMARK    1  A    between atoms: C2_2  and  O1_3 
REMARK    2  A    between atoms: C2_2  and  N1_5 
REMARK    3  A    between atoms: N1_5  and  C3_7 
REMARK    4  A    between atoms: C4_10  and  N3_11 
REMARK    5  A    between atoms: C5_16  and  C6_17 
REMARK       I    between atoms: C6_17  and  N6_19 
REMARK    6  A    between atoms: N6_19  and  N7_21 
REMARK    7  A    between atoms: N7_21  and  C7_23 
REMARK    8  A    between atoms: C7_23  and  C8_27 
REMARK    9  A    between atoms: C10_35  and  C11_36 
REMARK   10  A    between atoms: C11_36  and  O4_37 
REMARK   11  A    between atoms: C11_36  and  C12_39 
REMARK   12  A    between atoms: C12_39  and  O5_40 
REMARK   13  A    between atoms: C12_39  and  O6_42 
ROOT
HETATM    1  N3  UNL     1     109.908  56.195  14.559  1.00  0.00    -0.162 N 
HETATM    2  N4  UNL     1     109.108  55.669  13.681  1.00  0.00    -0.218 N 
ATOM      3  H4  UNL     1     109.056  54.674  13.463  1.00  0.00     0.210 HD
HETATM    4  N5  UNL     1     108.372  56.604  13.113  1.00  0.00    -0.264 N 
ATOM      5  H5  UNL     1     107.667  56.461  12.390  1.00  0.00     0.190 HD
HETATM    6  C5  UNL     1     108.717  57.769  13.657  1.00  0.00     0.208 A 
HETATM    7  N11 UNL     1     109.700  57.466  14.570  1.00  0.00    -0.255 N 
ATOM      8  H11 UNL     1     110.187  58.140  15.161  1.00  0.00     0.191 HD
ENDROOT
BRANCH   1   9
HETATM    9  C4  UNL     1     110.781  55.473  15.484  1.00  0.00     0.169 A 
HETATM   10  N2  UNL     1     111.643  56.147  16.245  1.00  0.00    -0.319 N 
HETATM   11  C3  UNL     1     112.306  55.503  17.218  1.00  0.00     0.148 A 
ATOM     12  H2  UNL     1     111.798  57.144  16.090  1.00  0.00     0.169 HD
HETATM   13  S1  UNL     1     111.713  53.915  17.072  1.00  0.00    -0.048 SA
HETATM   14  C10 UNL     1     110.618  54.155  15.725  1.00  0.00     0.090 A 
BRANCH  11  15
HETATM   15  N1  UNL     1     113.158  56.056  17.961  1.00  0.00    -0.344 N 
ATOM     16  H1  UNL     1     113.385  55.379  18.690  1.00  0.00     0.164 HD
BRANCH  15  17
HETATM   17  C2  UNL     1     113.904  57.157  18.215  1.00  0.00     0.215 C 
HETATM   18  C1  UNL     1     114.999  57.272  17.124  1.00  0.00     0.063 C 
BRANCH  17  19
HETATM   19  O1  UNL     1     113.215  58.380  18.200  1.00  0.00    -0.377 OA
ATOM     20  H1  UNL     1     112.433  58.232  17.681  1.00  0.00     0.212 HD
ENDBRANCH  17  19
ENDBRANCH  15  17
ENDBRANCH  11  15
BRANCH  14  21
HETATM   21  C11 UNL     1     109.967  53.071  14.956  1.00  0.00     0.119 C 
BRANCH  21  22
HETATM   22  O4  UNL     1     108.963  52.353  15.485  1.00  0.00    -0.359 OA
ATOM     23  H4  UNL     1     108.076  52.692  15.503  1.00  0.00     0.217 HD
ENDBRANCH  21  22
BRANCH  21  24
HETATM   24  C12 UNL     1     110.741  52.406  13.856  1.00  0.00     0.313 C 
BRANCH  24  25
HETATM   25  O5  UNL     1     110.714  53.191  12.710  1.00  0.00    -0.365 OA
ATOM     26  H5  UNL     1     111.594  53.309  12.373  1.00  0.00     0.213 HD
ENDBRANCH  24  25
BRANCH  24  27
HETATM   27  O6  UNL     1     109.906  51.262  13.450  1.00  0.00    -0.365 OA
ATOM     28  H6  UNL     1     109.210  51.644  12.928  1.00  0.00     0.213 HD
ENDBRANCH  24  27
ENDBRANCH  21  24
ENDBRANCH  14  21
ENDBRANCH   1   9
BRANCH   6  29
HETATM   29  C6  UNL     1     108.123  59.048  13.391  1.00  0.00     0.306 C 
HETATM   30  O2  UNL     1     106.891  59.126  13.112  1.00  0.00    -0.262 OA
HETATM   31  N6  UNL     1     108.859  60.250  13.414  1.00  0.00    -0.262 N 
ATOM     32  H6  UNL     1     109.853  60.220  13.639  1.00  0.00     0.190 HD
BRANCH  31  33
HETATM   33  N7  UNL     1     108.263  61.480  13.136  1.00  0.00    -0.281 N 
ATOM     34  H7  UNL     1     107.452  61.490  12.519  1.00  0.00     0.188 HD
BRANCH  33  35
HETATM   35  C7  UNL     1     108.708  62.704  13.651  1.00  0.00     0.143 C 
HETATM   36  N8  UNL     1     109.516  63.454  12.984  1.00  0.00    -0.383 N 
ATOM     37  H82 UNL     1     109.785  63.116  12.060  1.00  0.00     0.157 HD
ATOM     38  H81 UNL     1     109.840  64.345  13.359  1.00  0.00     0.157 HD
BRANCH  35  39
HETATM   39  C8  UNL     1     108.322  63.189  14.978  1.00  0.00     0.115 A 
HETATM   40  C9  UNL     1     108.956  62.938  16.148  1.00  0.00     0.198 A 
HETATM   41  O3  UNL     1     108.290  63.532  17.131  1.00  0.00    -0.234 OA
HETATM   42  N9  UNL     1     107.275  64.140  16.644  1.00  0.00     0.026 NA
HETATM   43  N10 UNL     1     107.237  63.966  15.310  1.00  0.00    -0.273 N 
ATOM     44  H10 UNL     1     106.537  64.339  14.669  1.00  0.00     0.185 HD
ENDBRANCH  35  39
ENDBRANCH  33  35
ENDBRANCH  31  33
ENDBRANCH   6  29
TORSDOF 13
ENDMDL
