MODEL 1
REMARK VINA RESULT: -5.415489046      0.000      0.000
REMARK  2 active torsions:
REMARK  status: ('A' for Active; 'I' for Inactive)
REMARK    1  A    between atoms: N1_2  and  C3_4 
REMARK    2  A    between atoms: C4_5  and  O1_6 
ROOT
HETATM    1  C3  UNL     1      -4.422   2.375  13.318  1.00  0.00     0.344 C 
HETATM    2  C4  UNL     1      -3.934   1.030  12.931  1.00  0.00     0.206 C 
HETATM    3  C5  UNL     1      -4.048   1.100  11.404  1.00  0.00     0.220 C 
HETATM    4  N2  UNL     1      -5.325   1.787  11.286  1.00  0.00    -0.135 NA
HETATM    5  N3  UNL     1      -5.144   2.867  12.154  1.00  0.00    -0.196 NA
HETATM    6  C6  UNL     1      -4.403   3.863  11.410  1.00  0.00     0.131 C 
HETATM    7  C7  UNL     1      -3.401   3.228  10.464  1.00  0.00     0.134 C 
HETATM    8  N4  UNL     1      -2.988   1.980  10.999  1.00  0.00    -0.395 N 
HETATM    9  C8  UNL     1      -1.908   1.339  10.323  1.00  0.00     0.144 C 
ENDROOT
BRANCH   1  10
HETATM   10  N1  UNL     1      -5.170   2.457  14.520  1.00  0.00     0.102 N 
HETATM   11  C1  UNL     1      -6.138   3.491  14.616  1.00  0.00     0.311 C 
HETATM   12  C2  UNL     1      -4.341   2.407  15.691  1.00  0.00     0.311 C 
ENDBRANCH   1  10
BRANCH   2  13
HETATM   13  O1  UNL     1      -4.660  -0.034  13.362  1.00  0.00    -0.389 OA
ATOM     14  H1  UNL     1      -4.174  -0.797  13.653  1.00  0.00     0.210 HD
ENDBRANCH   2  13
TORSDOF 2
ENDMDL
MODEL 2
REMARK VINA RESULT: -5.212232152      1.795      4.341
REMARK  2 active torsions:
REMARK  status: ('A' for Active; 'I' for Inactive)
REMARK    1  A    between atoms: N1_2  and  C3_4 
REMARK    2  A    between atoms: C4_5  and  O1_6 
ROOT
HETATM    1  C3  UNL     1      -4.563   1.513  13.762  1.00  0.00     0.344 C 
HETATM    2  C4  UNL     1      -4.709   0.872  15.090  1.00  0.00     0.206 C 
HETATM    3  C5  UNL     1      -4.791   2.099  16.005  1.00  0.00     0.220 C 
HETATM    4  N2  UNL     1      -3.769   2.932  15.389  1.00  0.00    -0.135 NA
HETATM    5  N3  UNL     1      -4.137   2.876  14.042  1.00  0.00    -0.196 NA
HETATM    6  C6  UNL     1      -5.198   3.845  13.873  1.00  0.00     0.131 C 
HETATM    7  C7  UNL     1      -6.092   3.919  15.098  1.00  0.00     0.134 C 
HETATM    8  N4  UNL     1      -6.089   2.659  15.749  1.00  0.00    -0.395 N 
HETATM    9  C8  UNL     1      -7.024   2.505  16.815  1.00  0.00     0.144 C 
ENDROOT
BRANCH   1  10
HETATM   10  N1  UNL     1      -3.734   0.847  12.823  1.00  0.00     0.102 N 
HETATM   11  C1  UNL     1      -3.140   1.636  11.803  1.00  0.00     0.311 C 
HETATM   12  C2  UNL     1      -4.350  -0.331  12.281  1.00  0.00     0.311 C 
ENDBRANCH   1  10
BRANCH   2  13
HETATM   13  O1  UNL     1      -3.678   0.095  15.514  1.00  0.00    -0.389 OA
ATOM     14  H1  UNL     1      -3.431  -0.633  14.956  1.00  0.00     0.210 HD
ENDBRANCH   2  13
TORSDOF 2
ENDMDL
MODEL 3
REMARK VINA RESULT: -5.149543396      2.870      3.664
REMARK  2 active torsions:
REMARK  status: ('A' for Active; 'I' for Inactive)
REMARK    1  A    between atoms: N1_2  and  C3_4 
REMARK    2  A    between atoms: C4_5  and  O1_6 
ROOT
HETATM    1  C3  UNL     1      -5.435   2.453  16.430  1.00  0.00     0.344 C 
HETATM    2  C4  UNL     1      -4.060   2.051  16.049  1.00  0.00     0.206 C 
HETATM    3  C5  UNL     1      -4.004   2.526  14.592  1.00  0.00     0.220 C 
HETATM    4  N2  UNL     1      -5.334   2.128  14.155  1.00  0.00    -0.135 NA
HETATM    5  N3  UNL     1      -6.134   2.659  15.170  1.00  0.00    -0.196 NA
HETATM    6  C6  UNL     1      -6.317   4.058  14.849  1.00  0.00     0.131 C 
HETATM    7  C7  UNL     1      -5.077   4.655  14.208  1.00  0.00     0.134 C 
HETATM    8  N4  UNL     1      -3.934   3.958  14.677  1.00  0.00    -0.395 N 
HETATM    9  C8  UNL     1      -2.672   4.514  14.314  1.00  0.00     0.144 C 
ENDROOT
BRANCH   1  10
HETATM   10  N1  UNL     1      -6.124   1.589  17.320  1.00  0.00     0.102 N 
HETATM   11  C1  UNL     1      -7.377   1.077  16.891  1.00  0.00     0.311 C 
HETATM   12  C2  UNL     1      -6.203   2.119  18.652  1.00  0.00     0.311 C 
ENDBRANCH   1  10
BRANCH   2  13
HETATM   13  O1  UNL     1      -3.779   0.722  16.072  1.00  0.00    -0.389 OA
ATOM     14  H1  UNL     1      -3.659   0.294  15.233  1.00  0.00     0.210 HD
ENDBRANCH   2  13
TORSDOF 2
ENDMDL
MODEL 4
REMARK VINA RESULT: -5.036478530      1.980      2.672
REMARK  2 active torsions:
REMARK  status: ('A' for Active; 'I' for Inactive)
REMARK    1  A    between atoms: N1_2  and  C3_4 
REMARK    2  A    between atoms: C4_5  and  O1_6 
ROOT
HETATM    1  C3  UNL     1      -4.601   2.470  13.817  1.00  0.00     0.344 C 
HETATM    2  C4  UNL     1      -3.825   3.724  13.666  1.00  0.00     0.206 C 
HETATM    3  C5  UNL     1      -3.162   3.501  12.302  1.00  0.00     0.220 C 
HETATM    4  N2  UNL     1      -2.803   2.097  12.431  1.00  0.00    -0.135 NA
HETATM    5  N3  UNL     1      -4.007   1.538  12.869  1.00  0.00    -0.196 NA
HETATM    6  C6  UNL     1      -4.817   1.346  11.686  1.00  0.00     0.131 C 
HETATM    7  C7  UNL     1      -4.599   2.452  10.669  1.00  0.00     0.134 C 
HETATM    8  N4  UNL     1      -4.230   3.640  11.351  1.00  0.00    -0.395 N 
HETATM    9  C8  UNL     1      -4.168   4.822  10.555  1.00  0.00     0.144 C 
ENDROOT
BRANCH   1  10
HETATM   10  N1  UNL     1      -4.706   1.944  15.131  1.00  0.00     0.102 N 
HETATM   11  C1  UNL     1      -4.529   0.544  15.288  1.00  0.00     0.311 C 
HETATM   12  C2  UNL     1      -5.882   2.402  15.816  1.00  0.00     0.311 C 
ENDBRANCH   1  10
BRANCH   2  13
HETATM   13  O1  UNL     1      -2.846   3.954  14.580  1.00  0.00    -0.389 OA
ATOM     14  H1  UNL     1      -2.464   4.824  14.590  1.00  0.00     0.210 HD
ENDBRANCH   2  13
TORSDOF 2
ENDMDL
MODEL 5
REMARK VINA RESULT: -4.977156710      1.853      2.427
REMARK  2 active torsions:
REMARK  status: ('A' for Active; 'I' for Inactive)
REMARK    1  A    between atoms: N1_2  and  C3_4 
REMARK    2  A    between atoms: C4_5  and  O1_6 
ROOT
HETATM    1  C3  UNL     1      -3.501   2.705  12.483  1.00  0.00     0.344 C 
HETATM    2  C4  UNL     1      -4.538   1.690  12.180  1.00  0.00     0.206 C 
HETATM    3  C5  UNL     1      -4.005   1.103  10.868  1.00  0.00     0.220 C 
HETATM    4  N2  UNL     1      -3.563   2.327  10.215  1.00  0.00    -0.135 NA
HETATM    5  N3  UNL     1      -2.804   2.925  11.225  1.00  0.00    -0.196 NA
HETATM    6  C6  UNL     1      -1.504   2.290  11.182  1.00  0.00     0.131 C 
HETATM    7  C7  UNL     1      -1.608   0.820  10.818  1.00  0.00     0.134 C 
HETATM    8  N4  UNL     1      -2.863   0.323  11.254  1.00  0.00    -0.395 N 
HETATM    9  C8  UNL     1      -3.045  -1.088  11.153  1.00  0.00     0.144 C 
ENDROOT
BRANCH   1  10
HETATM   10  N1  UNL     1      -3.948   3.904  13.095  1.00  0.00     0.102 N 
HETATM   11  C1  UNL     1      -3.591   5.127  12.468  1.00  0.00     0.311 C 
HETATM   12  C2  UNL     1      -3.673   3.940  14.504  1.00  0.00     0.311 C 
ENDBRANCH   1  10
BRANCH   2  13
HETATM   13  O1  UNL     1      -5.798   2.147  11.959  1.00  0.00    -0.389 OA
ATOM     14  H1  UNL     1      -6.425   2.039  12.665  1.00  0.00     0.210 HD
ENDBRANCH   2  13
TORSDOF 2
ENDMDL
