MODEL 1
REMARK VINA RESULT: -6.157809850      0.000      0.000
REMARK  3 active torsions:
REMARK  status: ('A' for Active; 'I' for Inactive)
REMARK    1  A    between atoms: O1_1  and  C1_3 
REMARK    2  A    between atoms: C1_3  and  C2_4 
REMARK    3  A    between atoms: C7_12  and  O5_13 
ROOT
HETATM    1  C2  UNL     1      -5.555   1.978  16.646  1.00  0.00     0.176 C 
HETATM    2  O2  UNL     1      -6.683   2.613  16.197  1.00  0.00    -0.378 OA
HETATM    3  C3  UNL     1      -6.382   3.674  15.327  1.00  0.00     0.203 C 
HETATM    4  C4  UNL     1      -5.706   3.098  14.144  1.00  0.00     0.179 C 
HETATM    5  O3  UNL     1      -5.236   3.962  13.201  1.00  0.00    -0.357 OA
HETATM    6  C5  UNL     1      -3.996   3.457  12.748  1.00  0.00     0.339 C 
HETATM    7  O4  UNL     1      -3.813   2.227  13.422  1.00  0.00    -0.356 OA
HETATM    8  C6  UNL     1      -4.369   2.510  14.638  1.00  0.00     0.186 C 
HETATM    9  C7  UNL     1      -4.724   1.364  15.507  1.00  0.00     0.180 C 
ENDROOT
BRANCH   1  10
HETATM   10  C1  UNL     1      -5.852   0.971  17.694  1.00  0.00     0.198 C 
BRANCH  10  11
HETATM   11  O1  UNL     1      -6.020  -0.267  17.081  1.00  0.00    -0.398 OA
ATOM     12  H1  UNL     1      -6.950  -0.430  16.980  1.00  0.00     0.209 HD
ENDBRANCH  10  11
ENDBRANCH   1  10
BRANCH   9  13
HETATM   13  O5  UNL     1      -3.647   0.736  16.096  1.00  0.00    -0.390 OA
ATOM     14  H5  UNL     1      -3.344   0.079  15.481  1.00  0.00     0.210 HD
ENDBRANCH   9  13
TORSDOF 3
ENDMDL
MODEL 2
REMARK VINA RESULT: -5.261265872      2.422      3.950
REMARK  3 active torsions:
REMARK  status: ('A' for Active; 'I' for Inactive)
REMARK    1  A    between atoms: O1_1  and  C1_3 
REMARK    2  A    between atoms: C1_3  and  C2_4 
REMARK    3  A    between atoms: C7_12  and  O5_13 
ROOT
HETATM    1  C2  UNL     1      -4.401   3.253  13.100  1.00  0.00     0.176 C 
HETATM    2  O2  UNL     1      -4.939   3.536  11.872  1.00  0.00    -0.378 OA
HETATM    3  C3  UNL     1      -4.418   2.708  10.863  1.00  0.00     0.203 C 
HETATM    4  C4  UNL     1      -4.796   1.317  11.195  1.00  0.00     0.179 C 
HETATM    5  O3  UNL     1      -4.316   0.323  10.396  1.00  0.00    -0.357 OA
HETATM    6  C5  UNL     1      -3.981  -0.766  11.234  1.00  0.00     0.339 C 
HETATM    7  O4  UNL     1      -4.361  -0.376  12.540  1.00  0.00    -0.356 OA
HETATM    8  C6  UNL     1      -4.072   0.959  12.508  1.00  0.00     0.186 C 
HETATM    9  C7  UNL     1      -4.682   1.812  13.556  1.00  0.00     0.180 C 
ENDROOT
BRANCH   1  10
HETATM   10  C1  UNL     1      -4.814   4.231  14.137  1.00  0.00     0.198 C 
BRANCH  10  11
HETATM   11  O1  UNL     1      -6.089   3.892  14.580  1.00  0.00    -0.398 OA
ATOM     12  H1  UNL     1      -6.028   3.608  15.484  1.00  0.00     0.209 HD
ENDBRANCH  10  11
ENDBRANCH   1  10
BRANCH   9  13
HETATM   13  O5  UNL     1      -4.119   1.674  14.807  1.00  0.00    -0.390 OA
ATOM     14  H5  UNL     1      -3.714   0.815  14.831  1.00  0.00     0.210 HD
ENDBRANCH   9  13
TORSDOF 3
ENDMDL
MODEL 3
REMARK VINA RESULT: -5.258452396      3.666      4.957
REMARK  3 active torsions:
REMARK  status: ('A' for Active; 'I' for Inactive)
REMARK    1  A    between atoms: O1_1  and  C1_3 
REMARK    2  A    between atoms: C1_3  and  C2_4 
REMARK    3  A    between atoms: C7_12  and  O5_13 
ROOT
HETATM    1  C2  UNL     1      -3.707  -0.808  11.765  1.00  0.00     0.176 C 
HETATM    2  O2  UNL     1      -4.443  -0.453  12.865  1.00  0.00    -0.378 OA
HETATM    3  C3  UNL     1      -4.234   0.887  13.231  1.00  0.00     0.203 C 
HETATM    4  C4  UNL     1      -4.698   1.729  12.108  1.00  0.00     0.179 C 
HETATM    5  O3  UNL     1      -4.506   3.075  12.205  1.00  0.00    -0.357 OA
HETATM    6  C5  UNL     1      -4.139   3.541  10.921  1.00  0.00     0.339 C 
HETATM    7  O4  UNL     1      -4.202   2.413  10.070  1.00  0.00    -0.356 OA
HETATM    8  C6  UNL     1      -3.773   1.427  10.912  1.00  0.00     0.186 C 
HETATM    9  C7  UNL     1      -4.058   0.026  10.521  1.00  0.00     0.180 C 
ENDROOT
BRANCH   1  10
HETATM   10  C1  UNL     1      -3.788  -2.260  11.474  1.00  0.00     0.198 C 
BRANCH  10  11
HETATM   11  O1  UNL     1      -2.499  -2.742  11.266  1.00  0.00    -0.398 OA
ATOM     12  H1  UNL     1      -2.148  -3.034  12.099  1.00  0.00     0.209 HD
ENDBRANCH  10  11
ENDBRANCH   1  10
BRANCH   9  13
HETATM   13  O5  UNL     1      -3.275  -0.452   9.491  1.00  0.00    -0.390 OA
ATOM     14  H5  UNL     1      -3.329  -1.400   9.524  1.00  0.00     0.210 HD
ENDBRANCH   9  13
TORSDOF 3
ENDMDL
MODEL 4
REMARK VINA RESULT: -5.222864150      1.391      2.783
REMARK  3 active torsions:
REMARK  status: ('A' for Active; 'I' for Inactive)
REMARK    1  A    between atoms: O1_1  and  C1_3 
REMARK    2  A    between atoms: C1_3  and  C2_4 
REMARK    3  A    between atoms: C7_12  and  O5_13 
ROOT
HETATM    1  C2  UNL     1      -4.887   1.556  14.511  1.00  0.00     0.176 C 
HETATM    2  O2  UNL     1      -3.957   1.930  13.576  1.00  0.00    -0.378 OA
HETATM    3  C3  UNL     1      -4.459   2.896  12.689  1.00  0.00     0.203 C 
HETATM    4  C4  UNL     1      -4.785   4.100  13.484  1.00  0.00     0.179 C 
HETATM    5  O3  UNL     1      -5.378   5.143  12.839  1.00  0.00    -0.357 OA
HETATM    6  C5  UNL     1      -6.345   5.685  13.716  1.00  0.00     0.339 C 
HETATM    7  O4  UNL     1      -6.228   4.951  14.919  1.00  0.00    -0.356 OA
HETATM    8  C6  UNL     1      -5.931   3.707  14.437  1.00  0.00     0.186 C 
HETATM    9  C7  UNL     1      -5.353   2.729  15.389  1.00  0.00     0.180 C 
ENDROOT
BRANCH   1  10
HETATM   10  C1  UNL     1      -4.427   0.416  15.342  1.00  0.00     0.198 C 
BRANCH  10  11
HETATM   11  O1  UNL     1      -3.573   0.904  16.327  1.00  0.00    -0.398 OA
ATOM     12  H1  UNL     1      -2.816   0.334  16.379  1.00  0.00     0.209 HD
ENDBRANCH  10  11
ENDBRANCH   1  10
BRANCH   9  13
HETATM   13  O5  UNL     1      -6.253   2.211  16.297  1.00  0.00    -0.390 OA
ATOM     14  H5  UNL     1      -6.115   2.677  17.113  1.00  0.00     0.210 HD
ENDBRANCH   9  13
TORSDOF 3
ENDMDL
MODEL 5
REMARK VINA RESULT: -5.208385420      2.580      4.586
REMARK  3 active torsions:
REMARK  status: ('A' for Active; 'I' for Inactive)
REMARK    1  A    between atoms: O1_1  and  C1_3 
REMARK    2  A    between atoms: C1_3  and  C2_4 
REMARK    3  A    between atoms: C7_12  and  O5_13 
ROOT
HETATM    1  C2  UNL     1      -4.252   0.741  11.678  1.00  0.00     0.176 C 
HETATM    2  O2  UNL     1      -4.600   0.275  12.920  1.00  0.00    -0.378 OA
HETATM    3  C3  UNL     1      -4.249   1.175  13.939  1.00  0.00     0.203 C 
HETATM    4  C4  UNL     1      -5.013   2.421  13.712  1.00  0.00     0.179 C 
HETATM    5  O3  UNL     1      -4.761   3.477  14.535  1.00  0.00    -0.357 OA
HETATM    6  C5  UNL     1      -4.797   4.647  13.741  1.00  0.00     0.339 C 
HETATM    7  O4  UNL     1      -5.154   4.219  12.441  1.00  0.00    -0.356 OA
HETATM    8  C6  UNL     1      -4.513   3.013  12.379  1.00  0.00     0.186 C 
HETATM    9  C7  UNL     1      -4.947   2.066  11.324  1.00  0.00     0.180 C 
ENDROOT
BRANCH   1  10
HETATM   10  C1  UNL     1      -4.462  -0.273  10.615  1.00  0.00     0.198 C 
BRANCH  10  11
HETATM   11  O1  UNL     1      -3.389  -0.214   9.731  1.00  0.00    -0.398 OA
ATOM     12  H1  UNL     1      -3.211  -1.092   9.415  1.00  0.00     0.209 HD
ENDBRANCH  10  11
ENDBRANCH   1  10
BRANCH   9  13
HETATM   13  O5  UNL     1      -4.537   2.400  10.051  1.00  0.00    -0.390 OA
ATOM     14  H5  UNL     1      -5.323   2.487   9.525  1.00  0.00     0.210 HD
ENDBRANCH   9  13
TORSDOF 3
ENDMDL
