MODEL 1
REMARK VINA RESULT: -7.305107545      0.000      0.000
REMARK  3 active torsions:
REMARK  status: ('A' for Active; 'I' for Inactive)
REMARK    1  A    between atoms: C2_7  and  C3_8 
REMARK    2  A    between atoms: C3_8  and  N3_9 
REMARK    3  A    between atoms: C12_22  and  O3_23 
ROOT
HETATM    1  N1  UNL     1      27.142  40.812  15.787  1.00  0.00    -0.384 N 
ATOM      2  H11 UNL     1      27.264  40.193  14.985  1.00  0.00     0.157 HD
ATOM      3  H12 UNL     1      26.227  40.571  16.166  1.00  0.00     0.157 HD
HETATM    4  C1  UNL     1      27.880  41.667  16.245  1.00  0.00     0.129 A 
HETATM    5  N2  UNL     1      27.712  42.525  17.358  1.00  0.00    -0.329 N 
ATOM      6  H2  UNL     1      26.902  42.560  17.978  1.00  0.00     0.168 HD
HETATM    7  C2  UNL     1      28.883  43.335  17.454  1.00  0.00     0.112 A 
HETATM    8  N4  UNL     1      29.722  43.054  16.525  1.00  0.00    -0.340 N 
ATOM      9  H4  UNL     1      30.628  43.506  16.398  1.00  0.00     0.167 HD
HETATM   10  C11 UNL     1      29.203  42.015  15.698  1.00  0.00     0.099 A 
HETATM   11  C12 UNL     1      29.799  41.475  14.648  1.00  0.00     0.164 C 
ENDROOT
BRANCH   7  12
HETATM   12  C3  UNL     1      29.050  44.356  18.514  1.00  0.00     0.348 C 
BRANCH  12  13
HETATM   13  N3  UNL     1      29.047  45.705  17.967  1.00  0.00     0.098 N 
HETATM   14  C4  UNL     1      27.939  46.401  18.533  1.00  0.00     0.275 C 
HETATM   15  C5  UNL     1      27.901  47.869  18.272  1.00  0.00     0.065 C 
HETATM   16  C6  UNL     1      29.277  48.441  18.608  1.00  0.00     0.153 C 
HETATM   17  O1  UNL     1      29.345  49.797  18.380  1.00  0.00    -0.381 OA
HETATM   18  C9  UNL     1      30.260  47.742  17.733  1.00  0.00     0.178 C 
HETATM   19  C7  UNL     1      30.606  50.211  18.812  1.00  0.00     0.194 C 
HETATM   20  C8  UNL     1      31.724  49.514  18.135  1.00  0.00     0.194 C 
HETATM   21  O2  UNL     1      31.468  48.311  17.582  1.00  0.00    -0.379 OA
HETATM   22  C10 UNL     1      30.327  46.291  18.227  1.00  0.00     0.307 C 
ENDBRANCH  12  13
ENDBRANCH   7  12
BRANCH  11  23
HETATM   23  O3  UNL     1      31.053  41.941  14.285  1.00  0.00    -0.370 OA
ATOM     24  H3  UNL     1      31.138  42.438  13.480  1.00  0.00     0.216 HD
ENDBRANCH  11  23
TORSDOF 3
ENDMDL
MODEL 2
REMARK VINA RESULT: -7.030417290      1.517      1.666
REMARK  3 active torsions:
REMARK  status: ('A' for Active; 'I' for Inactive)
REMARK    1  A    between atoms: C2_7  and  C3_8 
REMARK    2  A    between atoms: C3_8  and  N3_9 
REMARK    3  A    between atoms: C12_22  and  O3_23 
ROOT
HETATM    1  N1  UNL     1      28.006  44.320  13.551  1.00  0.00    -0.384 N 
ATOM      2  H11 UNL     1      28.196  43.852  12.666  1.00  0.00     0.157 HD
ATOM      3  H12 UNL     1      27.354  45.069  13.316  1.00  0.00     0.157 HD
HETATM    4  C1  UNL     1      28.425  44.092  14.673  1.00  0.00     0.129 A 
HETATM    5  N2  UNL     1      28.162  44.742  15.902  1.00  0.00    -0.329 N 
ATOM      6  H2  UNL     1      27.547  45.544  16.042  1.00  0.00     0.168 HD
HETATM    7  C2  UNL     1      28.915  44.069  16.911  1.00  0.00     0.112 A 
HETATM    8  N4  UNL     1      29.592  43.097  16.418  1.00  0.00    -0.340 N 
ATOM      9  H4  UNL     1      30.202  42.479  16.953  1.00  0.00     0.167 HD
HETATM   10  C11 UNL     1      29.366  43.010  15.013  1.00  0.00     0.099 A 
HETATM   11  C12 UNL     1      29.900  42.128  14.184  1.00  0.00     0.164 C 
ENDROOT
BRANCH   7  12
HETATM   12  C3  UNL     1      28.877  44.487  18.331  1.00  0.00     0.348 C 
BRANCH  12  13
HETATM   13  N3  UNL     1      28.806  45.936  18.464  1.00  0.00     0.098 N 
HETATM   14  C4  UNL     1      28.334  46.229  19.776  1.00  0.00     0.275 C 
HETATM   15  C5  UNL     1      28.413  47.662  20.182  1.00  0.00     0.065 C 
HETATM   16  C6  UNL     1      29.819  48.164  19.861  1.00  0.00     0.153 C 
HETATM   17  O1  UNL     1      29.982  49.492  20.186  1.00  0.00    -0.381 OA
HETATM   18  C9  UNL     1      30.017  47.986  18.395  1.00  0.00     0.178 C 
HETATM   19  C7  UNL     1      31.321  49.801  19.939  1.00  0.00     0.194 C 
HETATM   20  C8  UNL     1      31.739  49.554  18.540  1.00  0.00     0.194 C 
HETATM   21  O2  UNL     1      31.018  48.673  17.818  1.00  0.00    -0.379 OA
HETATM   22  C10 UNL     1      30.094  46.473  18.148  1.00  0.00     0.307 C 
ENDBRANCH  12  13
ENDBRANCH   7  12
BRANCH  11  23
HETATM   23  O3  UNL     1      30.771  41.179  14.698  1.00  0.00    -0.370 OA
ATOM     24  H3  UNL     1      31.311  40.684  14.093  1.00  0.00     0.216 HD
ENDBRANCH  11  23
TORSDOF 3
ENDMDL
MODEL 3
REMARK VINA RESULT: -6.922732201      3.818      6.388
REMARK  3 active torsions:
REMARK  status: ('A' for Active; 'I' for Inactive)
REMARK    1  A    between atoms: C2_7  and  C3_8 
REMARK    2  A    between atoms: C3_8  and  N3_9 
REMARK    3  A    between atoms: C12_22  and  O3_23 
ROOT
HETATM    1  N1  UNL     1      33.513  47.542  18.502  1.00  0.00    -0.384 N 
ATOM      2  H11 UNL     1      34.111  48.262  18.907  1.00  0.00     0.157 HD
ATOM      3  H12 UNL     1      34.145  46.772  18.281  1.00  0.00     0.157 HD
HETATM    4  C1  UNL     1      32.312  47.534  18.297  1.00  0.00     0.129 A 
HETATM    5  N2  UNL     1      31.482  46.534  17.735  1.00  0.00    -0.329 N 
ATOM      6  H2  UNL     1      31.782  45.620  17.397  1.00  0.00     0.168 HD
HETATM    7  C2  UNL     1      30.148  47.041  17.728  1.00  0.00     0.112 A 
HETATM    8  N4  UNL     1      30.095  48.225  18.221  1.00  0.00    -0.340 N 
ATOM      9  H4  UNL     1      29.246  48.782  18.315  1.00  0.00     0.167 HD
HETATM   10  C11 UNL     1      31.399  48.645  18.616  1.00  0.00     0.099 A 
HETATM   11  C12 UNL     1      31.717  49.807  19.163  1.00  0.00     0.164 C 
ENDROOT
BRANCH   7  12
HETATM   12  C3  UNL     1      29.009  46.252  17.204  1.00  0.00     0.348 C 
BRANCH  12  13
HETATM   13  N3  UNL     1      27.745  46.680  17.787  1.00  0.00     0.098 N 
HETATM   14  C4  UNL     1      26.695  46.172  16.967  1.00  0.00     0.275 C 
HETATM   15  C5  UNL     1      25.320  46.309  17.526  1.00  0.00     0.065 C 
HETATM   16  C6  UNL     1      25.343  45.789  18.963  1.00  0.00     0.153 C 
HETATM   17  O1  UNL     1      24.112  45.893  19.572  1.00  0.00    -0.381 OA
HETATM   18  C9  UNL     1      26.334  46.616  19.706  1.00  0.00     0.178 C 
HETATM   19  C7  UNL     1      24.240  45.301  20.830  1.00  0.00     0.194 C 
HETATM   20  C8  UNL     1      25.291  45.919  21.672  1.00  0.00     0.194 C 
HETATM   21  O2  UNL     1      26.276  46.595  21.048  1.00  0.00    -0.379 OA
HETATM   22  C10 UNL     1      27.715  46.244  19.149  1.00  0.00     0.307 C 
ENDBRANCH  12  13
ENDBRANCH   7  12
BRANCH  11  23
HETATM   23  O3  UNL     1      30.710  50.733  19.387  1.00  0.00    -0.370 OA
ATOM     24  H3  UNL     1      30.938  51.567  19.779  1.00  0.00     0.216 HD
ENDBRANCH  11  23
TORSDOF 3
ENDMDL
MODEL 4
REMARK VINA RESULT: -6.920126731      3.614      7.190
REMARK  3 active torsions:
REMARK  status: ('A' for Active; 'I' for Inactive)
REMARK    1  A    between atoms: C2_7  and  C3_8 
REMARK    2  A    between atoms: C3_8  and  N3_9 
REMARK    3  A    between atoms: C12_22  and  O3_23 
ROOT
HETATM    1  N1  UNL     1      28.648  48.147  21.772  1.00  0.00    -0.384 N 
ATOM      2  H11 UNL     1      28.647  48.655  22.657  1.00  0.00     0.157 HD
ATOM      3  H12 UNL     1      29.361  48.608  21.208  1.00  0.00     0.157 HD
HETATM    4  C1  UNL     1      27.978  47.198  21.404  1.00  0.00     0.129 A 
HETATM    5  N2  UNL     1      27.979  46.493  20.176  1.00  0.00    -0.329 N 
ATOM      6  H2  UNL     1      28.573  46.685  19.370  1.00  0.00     0.168 HD
HETATM    7  C2  UNL     1      26.994  45.465  20.274  1.00  0.00     0.112 A 
HETATM    8  N4  UNL     1      26.412  45.482  21.417  1.00  0.00    -0.340 N 
ATOM      9  H4  UNL     1      25.676  44.839  21.708  1.00  0.00     0.167 HD
HETATM   10  C11 UNL     1      26.947  46.532  22.220  1.00  0.00     0.099 A 
HETATM   11  C12 UNL     1      26.584  46.841  23.454  1.00  0.00     0.164 C 
ENDROOT
BRANCH   7  12
HETATM   12  C3  UNL     1      26.724  44.526  19.160  1.00  0.00     0.348 C 
BRANCH  12  13
HETATM   13  N3  UNL     1      27.956  44.028  18.566  1.00  0.00     0.098 N 
HETATM   14  C4  UNL     1      28.317  42.833  19.253  1.00  0.00     0.275 C 
HETATM   15  C5  UNL     1      29.427  42.048  18.639  1.00  0.00     0.065 C 
HETATM   16  C6  UNL     1      29.118  41.884  17.152  1.00  0.00     0.153 C 
HETATM   17  O1  UNL     1      30.102  41.183  16.492  1.00  0.00    -0.381 OA
HETATM   18  C9  UNL     1      29.017  43.255  16.577  1.00  0.00     0.178 C 
HETATM   19  C7  UNL     1      29.661  41.018  15.178  1.00  0.00     0.194 C 
HETATM   20  C8  UNL     1      29.377  42.294  14.482  1.00  0.00     0.194 C 
HETATM   21  O2  UNL     1      29.109  43.375  15.242  1.00  0.00    -0.379 OA
HETATM   22  C10 UNL     1      27.740  43.876  17.159  1.00  0.00     0.307 C 
ENDBRANCH  12  13
ENDBRANCH   7  12
BRANCH  11  23
HETATM   23  O3  UNL     1      25.587  46.091  24.058  1.00  0.00    -0.370 OA
ATOM     24  H3  UNL     1      24.785  46.528  24.321  1.00  0.00     0.216 HD
ENDBRANCH  11  23
TORSDOF 3
ENDMDL
MODEL 5
REMARK VINA RESULT: -6.914572666      4.060      6.305
REMARK  3 active torsions:
REMARK  status: ('A' for Active; 'I' for Inactive)
REMARK    1  A    between atoms: C2_7  and  C3_8 
REMARK    2  A    between atoms: C3_8  and  N3_9 
REMARK    3  A    between atoms: C12_22  and  O3_23 
ROOT
HETATM    1  N1  UNL     1      33.295  47.447  17.407  1.00  0.00    -0.384 N 
ATOM      2  H11 UNL     1      33.983  48.198  17.459  1.00  0.00     0.157 HD
ATOM      3  H12 UNL     1      33.754  46.710  16.871  1.00  0.00     0.157 HD
HETATM    4  C1  UNL     1      32.165  47.375  17.858  1.00  0.00     0.129 A 
HETATM    5  N2  UNL     1      31.211  46.332  17.785  1.00  0.00    -0.329 N 
ATOM      6  H2  UNL     1      31.332  45.434  17.318  1.00  0.00     0.168 HD
HETATM    7  C2  UNL     1      30.047  46.769  18.485  1.00  0.00     0.112 A 
HETATM    8  N4  UNL     1      30.204  47.950  18.962  1.00  0.00    -0.340 N 
ATOM      9  H4  UNL     1      29.504  48.462  19.498  1.00  0.00     0.167 HD
HETATM   10  C11 UNL     1      31.502  48.439  18.632  1.00  0.00     0.099 A 
HETATM   11  C12 UNL     1      32.005  49.617  18.961  1.00  0.00     0.164 C 
ENDROOT
BRANCH   7  12
HETATM   12  C3  UNL     1      28.839  45.921  18.611  1.00  0.00     0.348 C 
BRANCH  12  13
HETATM   13  N3  UNL     1      27.800  46.576  19.393  1.00  0.00     0.098 N 
HETATM   14  C4  UNL     1      26.574  45.892  19.146  1.00  0.00     0.275 C 
HETATM   15  C5  UNL     1      25.437  46.270  20.033  1.00  0.00     0.065 C 
HETATM   16  C6  UNL     1      25.934  46.227  21.477  1.00  0.00     0.153 C 
HETATM   17  O1  UNL     1      24.952  46.582  22.375  1.00  0.00    -0.381 OA
HETATM   18  C9  UNL     1      27.065  47.193  21.574  1.00  0.00     0.178 C 
HETATM   19  C7  UNL     1      25.496  46.411  23.649  1.00  0.00     0.194 C 
HETATM   20  C8  UNL     1      26.724  47.206  23.881  1.00  0.00     0.194 C 
HETATM   21  O2  UNL     1      27.429  47.598  22.802  1.00  0.00    -0.379 OA
HETATM   22  C10 UNL     1      28.220  46.592  20.761  1.00  0.00     0.307 C 
ENDBRANCH  12  13
ENDBRANCH   7  12
BRANCH  11  23
HETATM   23  O3  UNL     1      31.220  50.490  19.699  1.00  0.00    -0.370 OA
ATOM     24  H3  UNL     1      30.277  50.463  19.582  1.00  0.00     0.216 HD
ENDBRANCH  11  23
TORSDOF 3
ENDMDL
