MODEL 1
REMARK VINA RESULT: -7.212143313      0.000      0.000
REMARK  9 active torsions:
REMARK  status: ('A' for Active; 'I' for Inactive)
REMARK    1  A    between atoms: C2_2  and  C3_5 
REMARK    2  A    between atoms: C3_5  and  N1_6 
REMARK       I    between atoms: N2_9  and  C6_10 
REMARK    3  A    between atoms: C6_10  and  S1_12 
REMARK    4  A    between atoms: S1_12  and  S2_13 
REMARK    5  A    between atoms: S2_13  and  C7_14 
REMARK    6  A    between atoms: C8_16  and  C9_17 
REMARK    7  A    between atoms: C9_17  and  O3_18 
REMARK    8  A    between atoms: C10_20  and  O4_21 
REMARK    9  A    between atoms: C11_23  and  O5_24 
ROOT
HETATM    1  S1  UNL     1      -5.045   5.655  12.859  1.00  0.00     0.006 SA
ENDROOT
BRANCH   1   2
HETATM    2  C6  UNL     1      -3.343   5.316  12.652  1.00  0.00     0.292 C 
HETATM    3  N2  UNL     1      -2.780   4.611  11.616  1.00  0.00    -0.339 N 
HETATM    4  C5  UNL     1      -3.542   3.990  10.563  1.00  0.00     0.146 C 
HETATM    5  C12 UNL     1      -1.311   4.459  11.544  1.00  0.00     0.146 C 
HETATM    6  C4  UNL     1      -2.622   2.956   9.844  1.00  0.00     0.142 C 
HETATM    7  N1  UNL     1      -1.830   2.265  10.755  1.00  0.00    -0.385 N 
HETATM    8  C13 UNL     1      -1.026   2.987  11.670  1.00  0.00     0.142 C 
HETATM    9  O1  UNL     1      -2.556   5.781  13.564  1.00  0.00    -0.259 OA
BRANCH   7  10
HETATM   10  C3  UNL     1      -1.683   0.875  10.741  1.00  0.00     0.136 C 
BRANCH  10  11
HETATM   11  C2  UNL     1      -2.915   0.143  11.159  1.00  0.00     0.271 C 
HETATM   12  C1  UNL     1      -2.691  -1.299  11.402  1.00  0.00     0.096 C 
HETATM   13  F1  UNL     1      -3.975   0.381  10.282  1.00  0.00    -0.201 F 
HETATM   14  F2  UNL     1      -3.290   0.708  12.399  1.00  0.00    -0.201 F 
ENDBRANCH  10  11
ENDBRANCH   7  10
ENDBRANCH   1   2
BRANCH   1  15
HETATM   15  S2  UNL     1      -5.708   5.273  14.822  1.00  0.00    -0.053 SA
BRANCH  15  16
HETATM   16  C7  UNL     1      -5.809   3.481  15.045  1.00  0.00     0.226 C 
HETATM   17  O2  UNL     1      -6.219   3.090  16.282  1.00  0.00    -0.362 OA
HETATM   18  C8  UNL     1      -5.584   1.922  16.626  1.00  0.00     0.178 C 
HETATM   19  C10 UNL     1      -4.616   1.539  15.561  1.00  0.00     0.181 C 
HETATM   20  C11 UNL     1      -4.482   2.815  14.764  1.00  0.00     0.189 C 
BRANCH  18  21
HETATM   21  C9  UNL     1      -6.579   0.807  16.930  1.00  0.00     0.198 C 
BRANCH  21  22
HETATM   22  O3  UNL     1      -5.901  -0.380  17.130  1.00  0.00    -0.398 OA
ATOM     23  H3  UNL     1      -6.170  -0.768  17.955  1.00  0.00     0.209 HD
ENDBRANCH  21  22
ENDBRANCH  18  21
BRANCH  19  24
HETATM   24  O4  UNL     1      -3.390   1.118  16.074  1.00  0.00    -0.390 OA
ATOM     25  H4  UNL     1      -2.801   1.842  16.255  1.00  0.00     0.210 HD
ENDBRANCH  19  24
BRANCH  20  26
HETATM   26  O5  UNL     1      -3.412   3.543  15.303  1.00  0.00    -0.389 OA
ATOM     27  H5  UNL     1      -2.655   2.990  15.462  1.00  0.00     0.210 HD
ENDBRANCH  20  26
ENDBRANCH  15  16
ENDBRANCH   1  15
TORSDOF 9
ENDMDL
MODEL 2
REMARK VINA RESULT: -6.846837757      3.388      5.341
REMARK  9 active torsions:
REMARK  status: ('A' for Active; 'I' for Inactive)
REMARK    1  A    between atoms: C2_2  and  C3_5 
REMARK    2  A    between atoms: C3_5  and  N1_6 
REMARK       I    between atoms: N2_9  and  C6_10 
REMARK    3  A    between atoms: C6_10  and  S1_12 
REMARK    4  A    between atoms: S1_12  and  S2_13 
REMARK    5  A    between atoms: S2_13  and  C7_14 
REMARK    6  A    between atoms: C8_16  and  C9_17 
REMARK    7  A    between atoms: C9_17  and  O3_18 
REMARK    8  A    between atoms: C10_20  and  O4_21 
REMARK    9  A    between atoms: C11_23  and  O5_24 
ROOT
HETATM    1  S1  UNL     1      -1.122   5.014  11.231  1.00  0.00     0.006 SA
ENDROOT
BRANCH   1   2
HETATM    2  C6  UNL     1      -2.560   5.623  12.014  1.00  0.00     0.292 C 
HETATM    3  N2  UNL     1      -3.038   5.233  13.242  1.00  0.00    -0.339 N 
HETATM    4  C5  UNL     1      -2.433   4.201  14.045  1.00  0.00     0.146 C 
HETATM    5  C12 UNL     1      -4.239   5.887  13.805  1.00  0.00     0.146 C 
HETATM    6  C4  UNL     1      -3.468   3.758  15.124  1.00  0.00     0.142 C 
HETATM    7  N1  UNL     1      -4.753   3.693  14.595  1.00  0.00    -0.385 N 
HETATM    8  C13 UNL     1      -5.291   4.818  13.926  1.00  0.00     0.142 C 
HETATM    9  O1  UNL     1      -3.221   6.524  11.368  1.00  0.00    -0.259 OA
BRANCH   7  10
HETATM   10  C3  UNL     1      -5.609   2.605  14.795  1.00  0.00     0.136 C 
BRANCH  10  11
HETATM   11  C2  UNL     1      -6.153   2.525  16.183  1.00  0.00     0.271 C 
HETATM   12  C1  UNL     1      -7.119   1.421  16.375  1.00  0.00     0.096 C 
HETATM   13  F1  UNL     1      -6.657   3.757  16.608  1.00  0.00    -0.201 F 
HETATM   14  F2  UNL     1      -5.045   2.242  17.011  1.00  0.00    -0.201 F 
ENDBRANCH  10  11
ENDBRANCH   7  10
ENDBRANCH   1   2
BRANCH   1  15
HETATM   15  S2  UNL     1      -1.529   3.392   9.949  1.00  0.00    -0.053 SA
BRANCH  15  16
HETATM   16  C7  UNL     1      -2.486   2.168  10.874  1.00  0.00     0.226 C 
HETATM   17  O2  UNL     1      -2.601   0.961  10.258  1.00  0.00    -0.362 OA
HETATM   18  C8  UNL     1      -3.829   0.416  10.543  1.00  0.00     0.178 C 
HETATM   19  C10 UNL     1      -4.630   1.371  11.359  1.00  0.00     0.181 C 
HETATM   20  C11 UNL     1      -3.880   2.670  11.174  1.00  0.00     0.189 C 
BRANCH  18  21
HETATM   21  C9  UNL     1      -3.701  -0.948  11.213  1.00  0.00     0.198 C 
BRANCH  21  22
HETATM   22  O3  UNL     1      -4.214  -0.888  12.494  1.00  0.00    -0.398 OA
ATOM     23  H3  UNL     1      -4.761  -1.648  12.656  1.00  0.00     0.209 HD
ENDBRANCH  21  22
ENDBRANCH  18  21
BRANCH  19  24
HETATM   24  O4  UNL     1      -5.951   1.471  10.928  1.00  0.00    -0.390 OA
ATOM     25  H4  UNL     1      -6.093   2.209  10.345  1.00  0.00     0.210 HD
ENDBRANCH  19  24
BRANCH  20  26
HETATM   26  O5  UNL     1      -4.441   3.331  10.072  1.00  0.00    -0.389 OA
ATOM     27  H5  UNL     1      -5.072   3.990  10.341  1.00  0.00     0.210 HD
ENDBRANCH  20  26
ENDBRANCH  15  16
ENDBRANCH   1  15
TORSDOF 9
ENDMDL
MODEL 3
REMARK VINA RESULT: -6.828804123      3.312      5.332
REMARK  9 active torsions:
REMARK  status: ('A' for Active; 'I' for Inactive)
REMARK    1  A    between atoms: C2_2  and  C3_5 
REMARK    2  A    between atoms: C3_5  and  N1_6 
REMARK       I    between atoms: N2_9  and  C6_10 
REMARK    3  A    between atoms: C6_10  and  S1_12 
REMARK    4  A    between atoms: S1_12  and  S2_13 
REMARK    5  A    between atoms: S2_13  and  C7_14 
REMARK    6  A    between atoms: C8_16  and  C9_17 
REMARK    7  A    between atoms: C9_17  and  O3_18 
REMARK    8  A    between atoms: C10_20  and  O4_21 
REMARK    9  A    between atoms: C11_23  and  O5_24 
ROOT
HETATM    1  S1  UNL     1      -0.909   4.817  10.707  1.00  0.00     0.006 SA
ENDROOT
BRANCH   1   2
HETATM    2  C6  UNL     1      -2.368   5.765  10.870  1.00  0.00     0.292 C 
HETATM    3  N2  UNL     1      -2.910   6.217  12.048  1.00  0.00    -0.339 N 
HETATM    4  C5  UNL     1      -2.367   5.913  13.348  1.00  0.00     0.146 C 
HETATM    5  C12 UNL     1      -4.121   7.066  12.023  1.00  0.00     0.146 C 
HETATM    6  C4  UNL     1      -3.461   6.224  14.415  1.00  0.00     0.142 C 
HETATM    7  N1  UNL     1      -4.721   5.832  13.977  1.00  0.00    -0.385 N 
HETATM    8  C13 UNL     1      -5.202   6.293  12.727  1.00  0.00     0.142 C 
HETATM    9  O1  UNL     1      -2.977   6.064   9.772  1.00  0.00    -0.259 OA
BRANCH   7  10
HETATM   10  C3  UNL     1      -5.610   5.094  14.765  1.00  0.00     0.136 C 
BRANCH  10  11
HETATM   11  C2  UNL     1      -5.413   3.618  14.659  1.00  0.00     0.271 C 
HETATM   12  C1  UNL     1      -6.066   2.856  15.746  1.00  0.00     0.096 C 
HETATM   13  F1  UNL     1      -4.064   3.290  14.511  1.00  0.00    -0.201 F 
HETATM   14  F2  UNL     1      -6.050   3.234  13.458  1.00  0.00    -0.201 F 
ENDBRANCH  10  11
ENDBRANCH   7  10
ENDBRANCH   1   2
BRANCH   1  15
HETATM   15  S2  UNL     1      -1.235   3.012   9.671  1.00  0.00    -0.053 SA
BRANCH  15  16
HETATM   16  C7  UNL     1      -2.247   1.936  10.715  1.00  0.00     0.226 C 
HETATM   17  O2  UNL     1      -2.457   0.693  10.206  1.00  0.00    -0.362 OA
HETATM   18  C8  UNL     1      -3.711   0.259  10.561  1.00  0.00     0.178 C 
HETATM   19  C10 UNL     1      -4.424   1.330  11.311  1.00  0.00     0.181 C 
HETATM   20  C11 UNL     1      -3.596   2.555  11.002  1.00  0.00     0.189 C 
BRANCH  18  21
HETATM   21  C9  UNL     1      -3.656  -1.051  11.341  1.00  0.00     0.198 C 
BRANCH  21  22
HETATM   22  O3  UNL     1      -4.294  -0.897  12.556  1.00  0.00    -0.398 OA
ATOM     23  H3  UNL     1      -3.714  -1.167  13.258  1.00  0.00     0.209 HD
ENDBRANCH  21  22
ENDBRANCH  18  21
BRANCH  19  24
HETATM   24  O4  UNL     1      -5.747   1.484  10.901  1.00  0.00    -0.390 OA
ATOM     25  H4  UNL     1      -6.131   2.301  11.200  1.00  0.00     0.210 HD
ENDBRANCH  19  24
BRANCH  20  26
HETATM   26  O5  UNL     1      -4.141   3.160   9.860  1.00  0.00    -0.389 OA
ATOM     27  H5  UNL     1      -3.668   3.949   9.621  1.00  0.00     0.210 HD
ENDBRANCH  20  26
ENDBRANCH  15  16
ENDBRANCH   1  15
TORSDOF 9
ENDMDL
MODEL 4
REMARK VINA RESULT: -6.715151197      2.453      3.314
REMARK  9 active torsions:
REMARK  status: ('A' for Active; 'I' for Inactive)
REMARK    1  A    between atoms: C2_2  and  C3_5 
REMARK    2  A    between atoms: C3_5  and  N1_6 
REMARK       I    between atoms: N2_9  and  C6_10 
REMARK    3  A    between atoms: C6_10  and  S1_12 
REMARK    4  A    between atoms: S1_12  and  S2_13 
REMARK    5  A    between atoms: S2_13  and  C7_14 
REMARK    6  A    between atoms: C8_16  and  C9_17 
REMARK    7  A    between atoms: C9_17  and  O3_18 
REMARK    8  A    between atoms: C10_20  and  O4_21 
REMARK    9  A    between atoms: C11_23  and  O5_24 
ROOT
HETATM    1  S1  UNL     1      -4.699   5.156  12.294  1.00  0.00     0.006 SA
ENDROOT
BRANCH   1   2
HETATM    2  C6  UNL     1      -4.016   3.681  11.653  1.00  0.00     0.292 C 
HETATM    3  N2  UNL     1      -2.685   3.343  11.645  1.00  0.00    -0.339 N 
HETATM    4  C5  UNL     1      -1.637   4.209  12.126  1.00  0.00     0.146 C 
HETATM    5  C12 UNL     1      -2.263   2.026  11.122  1.00  0.00     0.146 C 
HETATM    6  C4  UNL     1      -0.279   3.678  11.572  1.00  0.00     0.142 C 
HETATM    7  N1  UNL     1      -0.403   3.248  10.255  1.00  0.00    -0.385 N 
HETATM    8  C13 UNL     1      -1.399   2.299   9.920  1.00  0.00     0.142 C 
HETATM    9  O1  UNL     1      -4.855   2.840  11.147  1.00  0.00    -0.259 OA
BRANCH   7  10
HETATM   10  C3  UNL     1       0.492   3.611   9.244  1.00  0.00     0.136 C 
BRANCH  10  11
HETATM   11  C2  UNL     1      -0.017   4.703   8.364  1.00  0.00     0.271 C 
HETATM   12  C1  UNL     1       1.039   5.632   7.905  1.00  0.00     0.096 C 
HETATM   13  F1  UNL     1      -1.100   5.368   8.945  1.00  0.00    -0.201 F 
HETATM   14  F2  UNL     1      -0.519   4.060   7.210  1.00  0.00    -0.201 F 
ENDBRANCH  10  11
ENDBRANCH   7  10
ENDBRANCH   1   2
BRANCH   1  15
HETATM   15  S2  UNL     1      -5.124   5.016  14.353  1.00  0.00    -0.053 SA
BRANCH  15  16
HETATM   16  C7  UNL     1      -5.401   3.276  14.757  1.00  0.00     0.226 C 
HETATM   17  O2  UNL     1      -5.955   3.063  15.980  1.00  0.00    -0.362 OA
HETATM   18  C8  UNL     1      -5.459   1.897  16.510  1.00  0.00     0.178 C 
HETATM   19  C10 UNL     1      -4.434   1.320  15.596  1.00  0.00     0.181 C 
HETATM   20  C11 UNL     1      -4.116   2.482  14.684  1.00  0.00     0.189 C 
BRANCH  18  21
HETATM   21  C9  UNL     1      -6.571   0.903  16.830  1.00  0.00     0.198 C 
BRANCH  21  22
HETATM   22  O3  UNL     1      -6.024  -0.335  17.105  1.00  0.00    -0.398 OA
ATOM     23  H3  UNL     1      -6.649  -0.861  17.589  1.00  0.00     0.209 HD
ENDBRANCH  21  22
ENDBRANCH  18  21
BRANCH  19  24
HETATM   24  O4  UNL     1      -3.302   0.869  16.272  1.00  0.00    -0.390 OA
ATOM     25  H4  UNL     1      -3.292  -0.075  16.383  1.00  0.00     0.210 HD
ENDBRANCH  19  24
BRANCH  20  26
HETATM   26  O5  UNL     1      -3.041   3.183  15.248  1.00  0.00    -0.389 OA
ATOM     27  H5  UNL     1      -2.253   3.098  14.724  1.00  0.00     0.210 HD
ENDBRANCH  20  26
ENDBRANCH  15  16
ENDBRANCH   1  15
TORSDOF 9
ENDMDL
MODEL 5
REMARK VINA RESULT: -6.673811222      4.169      5.846
REMARK  9 active torsions:
REMARK  status: ('A' for Active; 'I' for Inactive)
REMARK    1  A    between atoms: C2_2  and  C3_5 
REMARK    2  A    between atoms: C3_5  and  N1_6 
REMARK       I    between atoms: N2_9  and  C6_10 
REMARK    3  A    between atoms: C6_10  and  S1_12 
REMARK    4  A    between atoms: S1_12  and  S2_13 
REMARK    5  A    between atoms: S2_13  and  C7_14 
REMARK    6  A    between atoms: C8_16  and  C9_17 
REMARK    7  A    between atoms: C9_17  and  O3_18 
REMARK    8  A    between atoms: C10_20  and  O4_21 
REMARK    9  A    between atoms: C11_23  and  O5_24 
ROOT
HETATM    1  S1  UNL     1      -1.867   4.114  11.579  1.00  0.00     0.006 SA
ENDROOT
BRANCH   1   2
HETATM    2  C6  UNL     1      -2.131   4.063   9.853  1.00  0.00     0.292 C 
HETATM    3  N2  UNL     1      -2.463   5.129   9.054  1.00  0.00    -0.339 N 
HETATM    4  C5  UNL     1      -2.703   6.459   9.555  1.00  0.00     0.146 C 
HETATM    5  C12 UNL     1      -2.593   4.942   7.593  1.00  0.00     0.146 C 
HETATM    6  C4  UNL     1      -3.452   7.265   8.449  1.00  0.00     0.142 C 
HETATM    7  N1  UNL     1      -4.407   6.480   7.811  1.00  0.00    -0.385 N 
HETATM    8  C13 UNL     1      -4.027   5.237   7.249  1.00  0.00     0.142 C 
HETATM    9  O1  UNL     1      -1.992   2.908   9.291  1.00  0.00    -0.259 OA
BRANCH   7  10
HETATM   10  C3  UNL     1      -5.718   6.908   7.579  1.00  0.00     0.136 C 
BRANCH  10  11
HETATM   11  C2  UNL     1      -6.630   6.682   8.738  1.00  0.00     0.271 C 
HETATM   12  C1  UNL     1      -7.224   7.927   9.273  1.00  0.00     0.096 C 
HETATM   13  F1  UNL     1      -6.018   5.912   9.730  1.00  0.00    -0.201 F 
HETATM   14  F2  UNL     1      -7.699   5.907   8.236  1.00  0.00    -0.201 F 
ENDBRANCH  10  11
ENDBRANCH   7  10
ENDBRANCH   1   2
BRANCH   1  15
HETATM   15  S2  UNL     1      -3.533   3.425  12.669  1.00  0.00    -0.053 SA
BRANCH  15  16
HETATM   16  C7  UNL     1      -3.714   1.652  12.364  1.00  0.00     0.226 C 
HETATM   17  O2  UNL     1      -2.598   1.048  11.876  1.00  0.00    -0.362 OA
HETATM   18  C8  UNL     1      -2.961   0.047  11.009  1.00  0.00     0.178 C 
HETATM   19  C10 UNL     1      -4.441   0.027  10.849  1.00  0.00     0.181 C 
HETATM   20  C11 UNL     1      -4.850   1.370  11.407  1.00  0.00     0.189 C 
BRANCH  18  21
HETATM   21  C9  UNL     1      -2.410  -1.307  11.446  1.00  0.00     0.198 C 
BRANCH  21  22
HETATM   22  O3  UNL     1      -3.408  -2.260  11.377  1.00  0.00    -0.398 OA
ATOM     23  H3  UNL     1      -3.531  -2.657  12.231  1.00  0.00     0.209 HD
ENDBRANCH  21  22
ENDBRANCH  18  21
BRANCH  19  24
HETATM   24  O4  UNL     1      -4.838  -0.123   9.521  1.00  0.00    -0.390 OA
ATOM     25  H4  UNL     1      -4.669   0.652   8.998  1.00  0.00     0.210 HD
ENDBRANCH  19  24
BRANCH  20  26
HETATM   26  O5  UNL     1      -4.870   2.284  10.343  1.00  0.00    -0.389 OA
ATOM     27  H5  UNL     1      -5.231   3.122  10.607  1.00  0.00     0.210 HD
ENDBRANCH  20  26
ENDBRANCH  15  16
ENDBRANCH   1  15
TORSDOF 9
ENDMDL
