MODEL 1
REMARK VINA RESULT: -7.798042529      0.000      0.000
REMARK  8 active torsions:
REMARK  status: ('A' for Active; 'I' for Inactive)
REMARK    1  A    between atoms: C4_5  and  O1_6 
REMARK    2  A    between atoms: C5_8  and  S2_9 
REMARK    3  A    between atoms: C7_12  and  C8_13 
REMARK    4  A    between atoms: C8_13  and  O3_14 
REMARK    5  A    between atoms: C10_17  and  O4_18 
REMARK    6  A    between atoms: C10_17  and  C11_20 
REMARK    7  A    between atoms: C11_20  and  O6_22 
REMARK    8  A    between atoms: O6_22  and  C12_23 
ROOT
HETATM    1  C1  UNL     1      -5.979   5.878  14.695  1.00  0.00     0.033 C 
HETATM    2  C2  UNL     1      -5.468   4.869  14.031  1.00  0.00     0.044 C 
HETATM    3  S1  UNL     1      -4.558   5.067  12.480  1.00  0.00    -0.121 SA
HETATM    4  C3  UNL     1      -4.305   3.319  11.975  1.00  0.00     0.094 C 
HETATM    5  C4  UNL     1      -3.297   3.336  10.869  1.00  0.00     0.171 C 
HETATM    6  C5  UNL     1      -2.572   2.064  10.642  1.00  0.00     0.212 C 
HETATM    7  O2  UNL     1      -2.355   1.241  11.705  1.00  0.00    -0.365 OA
HETATM    8  C7  UNL     1      -3.421   1.184  12.620  1.00  0.00     0.155 C 
HETATM    9  C9  UNL     1      -3.617   2.565  13.123  1.00  0.00     0.085 C 
HETATM   10  C10 UNL     1      -4.195   2.791  14.449  1.00  0.00     0.224 C 
HETATM   11  C14 UNL     1      -5.565   3.446  14.456  1.00  0.00     0.316 C 
HETATM   12  F1  UNL     1      -6.529   2.785  13.793  1.00  0.00    -0.196 F 
HETATM   13  F2  UNL     1      -5.945   3.486  15.805  1.00  0.00    -0.196 F 
ENDROOT
BRANCH  10  14
HETATM   14  O4  UNL     1      -3.413   3.791  15.118  1.00  0.00    -0.374 OA
ATOM     15  H4  UNL     1      -3.004   3.392  15.878  1.00  0.00     0.211 HD
ENDBRANCH  10  14
BRANCH  10  16
HETATM   16  C11 UNL     1      -4.219   1.642  15.378  1.00  0.00     0.300 C 
HETATM   17  O5  UNL     1      -3.219   1.367  16.098  1.00  0.00    -0.262 OA
BRANCH  16  18
HETATM   18  O6  UNL     1      -5.287   0.776  15.559  1.00  0.00    -0.319 OA
BRANCH  18  19
HETATM   19  C12 UNL     1      -5.821   0.457  16.830  1.00  0.00     0.174 C 
HETATM   20  C13 UNL     1      -7.189   1.038  16.965  1.00  0.00     0.034 C 
ENDBRANCH  18  19
ENDBRANCH  16  18
ENDBRANCH  10  16
BRANCH   8  21
HETATM   21  C8  UNL     1      -4.568   0.580  11.859  1.00  0.00     0.196 C 
BRANCH  21  22
HETATM   22  O3  UNL     1      -4.460  -0.822  12.052  1.00  0.00    -0.398 OA
ATOM     23  H3  UNL     1      -4.355  -1.193  11.184  1.00  0.00     0.209 HD
ENDBRANCH  21  22
ENDBRANCH   8  21
BRANCH   5  24
HETATM   24  O1  UNL     1      -3.879   3.775   9.681  1.00  0.00    -0.391 OA
ATOM     25  H1  UNL     1      -3.549   3.276   8.944  1.00  0.00     0.210 HD
ENDBRANCH   5  24
BRANCH   6  26
HETATM   26  S2  UNL     1      -0.920   2.502   9.963  1.00  0.00    -0.139 SA
HETATM   27  C6  UNL     1      -0.046   3.505  11.187  1.00  0.00     0.092 C 
ENDBRANCH   6  26
TORSDOF 8
ENDMDL
MODEL 2
REMARK VINA RESULT: -7.241008793      2.469      5.195
REMARK  8 active torsions:
REMARK  status: ('A' for Active; 'I' for Inactive)
REMARK    1  A    between atoms: C4_5  and  O1_6 
REMARK    2  A    between atoms: C5_8  and  S2_9 
REMARK    3  A    between atoms: C7_12  and  C8_13 
REMARK    4  A    between atoms: C8_13  and  O3_14 
REMARK    5  A    between atoms: C10_17  and  O4_18 
REMARK    6  A    between atoms: C10_17  and  C11_20 
REMARK    7  A    between atoms: C11_20  and  O6_22 
REMARK    8  A    between atoms: O6_22  and  C12_23 
ROOT
HETATM    1  C1  UNL     1      -0.720   3.072   9.578  1.00  0.00     0.033 C 
HETATM    2  C2  UNL     1      -1.566   2.939  10.571  1.00  0.00     0.044 C 
HETATM    3  S1  UNL     1      -2.088   4.322  11.614  1.00  0.00    -0.121 SA
HETATM    4  C3  UNL     1      -3.076   3.461  12.901  1.00  0.00     0.094 C 
HETATM    5  C4  UNL     1      -3.821   4.521  13.648  1.00  0.00     0.171 C 
HETATM    6  C5  UNL     1      -5.028   4.066  14.376  1.00  0.00     0.212 C 
HETATM    7  O2  UNL     1      -5.729   3.011  13.876  1.00  0.00    -0.365 OA
HETATM    8  C7  UNL     1      -4.930   1.997  13.319  1.00  0.00     0.155 C 
HETATM    9  C9  UNL     1      -4.165   2.624  12.213  1.00  0.00     0.085 C 
HETATM   10  C10 UNL     1      -3.707   1.814  11.084  1.00  0.00     0.224 C 
HETATM   11  C14 UNL     1      -2.201   1.654  10.969  1.00  0.00     0.316 C 
HETATM   12  F1  UNL     1      -1.593   1.098  12.032  1.00  0.00    -0.196 F 
HETATM   13  F2  UNL     1      -2.006   0.789   9.883  1.00  0.00    -0.196 F 
ENDROOT
BRANCH  10  14
HETATM   14  O4  UNL     1      -3.997   2.526   9.872  1.00  0.00    -0.374 OA
ATOM     15  H4  UNL     1      -4.880   2.306   9.599  1.00  0.00     0.211 HD
ENDBRANCH  10  14
BRANCH  10  16
HETATM   16  C11 UNL     1      -4.335   0.488  10.906  1.00  0.00     0.300 C 
HETATM   17  O5  UNL     1      -5.056   0.241   9.900  1.00  0.00    -0.262 OA
BRANCH  16  18
HETATM   18  O6  UNL     1      -4.213  -0.583  11.777  1.00  0.00    -0.319 OA
BRANCH  18  19
HETATM   19  C12 UNL     1      -4.007  -1.916  11.345  1.00  0.00     0.174 C 
HETATM   20  C13 UNL     1      -2.547  -2.221  11.321  1.00  0.00     0.034 C 
ENDBRANCH  18  19
ENDBRANCH  16  18
ENDBRANCH  10  16
BRANCH   8  21
HETATM   21  C8  UNL     1      -4.124   1.449  14.464  1.00  0.00     0.196 C 
BRANCH  21  22
HETATM   22  O3  UNL     1      -4.607   0.132  14.676  1.00  0.00    -0.398 OA
ATOM     23  H3  UNL     1      -4.138  -0.416  14.057  1.00  0.00     0.209 HD
ENDBRANCH  21  22
ENDBRANCH   8  21
BRANCH   5  24
HETATM   24  O1  UNL     1      -2.968   5.203  14.514  1.00  0.00    -0.391 OA
ATOM     25  H1  UNL     1      -3.333   5.230  15.391  1.00  0.00     0.210 HD
ENDBRANCH   5  24
BRANCH   6  26
HETATM   26  S2  UNL     1      -6.187   5.492  14.438  1.00  0.00    -0.139 SA
HETATM   27  C6  UNL     1      -6.174   6.312  12.826  1.00  0.00     0.092 C 
ENDBRANCH   6  26
TORSDOF 8
ENDMDL
MODEL 3
REMARK VINA RESULT: -6.318192546      2.388      3.988
REMARK  8 active torsions:
REMARK  status: ('A' for Active; 'I' for Inactive)
REMARK    1  A    between atoms: C4_5  and  O1_6 
REMARK    2  A    between atoms: C5_8  and  S2_9 
REMARK    3  A    between atoms: C7_12  and  C8_13 
REMARK    4  A    between atoms: C8_13  and  O3_14 
REMARK    5  A    between atoms: C10_17  and  O4_18 
REMARK    6  A    between atoms: C10_17  and  C11_20 
REMARK    7  A    between atoms: C11_20  and  O6_22 
REMARK    8  A    between atoms: O6_22  and  C12_23 
ROOT
HETATM    1  C1  UNL     1      -4.790   0.435  10.561  1.00  0.00     0.033 C 
HETATM    2  C2  UNL     1      -4.259   1.475  11.159  1.00  0.00     0.044 C 
HETATM    3  S1  UNL     1      -3.992   3.060  10.329  1.00  0.00    -0.121 SA
HETATM    4  C3  UNL     1      -3.056   3.991  11.606  1.00  0.00     0.094 C 
HETATM    5  C4  UNL     1      -3.042   5.422  11.168  1.00  0.00     0.171 C 
HETATM    6  C5  UNL     1      -2.797   6.419  12.236  1.00  0.00     0.212 C 
HETATM    7  O2  UNL     1      -3.214   6.132  13.500  1.00  0.00    -0.365 OA
HETATM    8  C7  UNL     1      -3.055   4.785  13.870  1.00  0.00     0.155 C 
HETATM    9  C9  UNL     1      -3.862   3.988  12.914  1.00  0.00     0.085 C 
HETATM   10  C10 UNL     1      -4.398   2.685  13.310  1.00  0.00     0.224 C 
HETATM   11  C14 UNL     1      -3.810   1.492  12.578  1.00  0.00     0.316 C 
HETATM   12  F1  UNL     1      -2.479   1.339  12.689  1.00  0.00    -0.196 F 
HETATM   13  F2  UNL     1      -4.405   0.369  13.170  1.00  0.00    -0.196 F 
ENDROOT
BRANCH  10  14
HETATM   14  O4  UNL     1      -5.768   2.615  12.888  1.00  0.00    -0.374 OA
ATOM     15  H4  UNL     1      -6.260   3.277  13.359  1.00  0.00     0.211 HD
ENDBRANCH  10  14
BRANCH  10  16
HETATM   16  C11 UNL     1      -4.429   2.380  14.756  1.00  0.00     0.300 C 
HETATM   17  O5  UNL     1      -3.400   1.956  15.352  1.00  0.00    -0.262 OA
BRANCH  16  18
HETATM   18  O6  UNL     1      -5.532   2.517  15.584  1.00  0.00    -0.319 OA
BRANCH  18  19
HETATM   19  C12 UNL     1      -5.717   1.756  16.763  1.00  0.00     0.174 C 
HETATM   20  C13 UNL     1      -7.132   1.291  16.849  1.00  0.00     0.034 C 
ENDBRANCH  18  19
ENDBRANCH  16  18
ENDBRANCH  10  16
BRANCH   8  21
HETATM   21  C8  UNL     1      -1.572   4.540  13.861  1.00  0.00     0.196 C 
BRANCH  21  22
HETATM   22  O3  UNL     1      -1.292   3.836  15.061  1.00  0.00    -0.398 OA
ATOM     23  H3  UNL     1      -1.990   4.067  15.663  1.00  0.00     0.209 HD
ENDBRANCH  21  22
ENDBRANCH   8  21
BRANCH   5  24
HETATM   24  O1  UNL     1      -2.138   5.607  10.123  1.00  0.00    -0.391 OA
ATOM     25  H1  UNL     1      -2.338   6.402   9.645  1.00  0.00     0.210 HD
ENDBRANCH   5  24
BRANCH   6  26
HETATM   26  S2  UNL     1      -3.653   7.966  11.732  1.00  0.00    -0.139 SA
HETATM   27  C6  UNL     1      -5.368   7.564  11.321  1.00  0.00     0.092 C 
ENDBRANCH   6  26
TORSDOF 8
ENDMDL
MODEL 4
REMARK VINA RESULT: -6.289642788      2.929      5.212
REMARK  8 active torsions:
REMARK  status: ('A' for Active; 'I' for Inactive)
REMARK    1  A    between atoms: C4_5  and  O1_6 
REMARK    2  A    between atoms: C5_8  and  S2_9 
REMARK    3  A    between atoms: C7_12  and  C8_13 
REMARK    4  A    between atoms: C8_13  and  O3_14 
REMARK    5  A    between atoms: C10_17  and  O4_18 
REMARK    6  A    between atoms: C10_17  and  C11_20 
REMARK    7  A    between atoms: C11_20  and  O6_22 
REMARK    8  A    between atoms: O6_22  and  C12_23 
ROOT
HETATM    1  C1  UNL     1      -0.764   3.180   9.126  1.00  0.00     0.033 C 
HETATM    2  C2  UNL     1      -1.596   3.689  10.003  1.00  0.00     0.044 C 
HETATM    3  S1  UNL     1      -2.413   5.287   9.776  1.00  0.00    -0.121 SA
HETATM    4  C3  UNL     1      -3.247   5.508  11.398  1.00  0.00     0.094 C 
HETATM    5  C4  UNL     1      -4.210   6.641  11.232  1.00  0.00     0.171 C 
HETATM    6  C5  UNL     1      -5.324   6.685  12.208  1.00  0.00     0.212 C 
HETATM    7  O2  UNL     1      -5.786   5.511  12.720  1.00  0.00    -0.365 OA
HETATM    8  C7  UNL     1      -4.785   4.558  12.975  1.00  0.00     0.155 C 
HETATM    9  C9  UNL     1      -4.128   4.280  11.674  1.00  0.00     0.085 C 
HETATM   10  C10 UNL     1      -3.484   2.987  11.435  1.00  0.00     0.224 C 
HETATM   11  C14 UNL     1      -1.974   3.033  11.284  1.00  0.00     0.316 C 
HETATM   12  F1  UNL     1      -1.299   3.540  12.330  1.00  0.00    -0.196 F 
HETATM   13  F2  UNL     1      -1.579   1.694  11.147  1.00  0.00    -0.196 F 
ENDROOT
BRANCH  10  14
HETATM   14  O4  UNL     1      -3.874   2.523  10.134  1.00  0.00    -0.374 OA
ATOM     15  H4  UNL     1      -4.432   3.182   9.737  1.00  0.00     0.211 HD
ENDBRANCH  10  14
BRANCH  10  16
HETATM   16  C11 UNL     1      -3.831   1.882  12.353  1.00  0.00     0.300 C 
HETATM   17  O5  UNL     1      -3.406   1.868  13.542  1.00  0.00    -0.262 OA
BRANCH  16  18
HETATM   18  O6  UNL     1      -4.622   0.789  12.034  1.00  0.00    -0.319 OA
BRANCH  18  19
HETATM   19  C12 UNL     1      -4.168  -0.549  12.119  1.00  0.00     0.174 C 
HETATM   20  C13 UNL     1      -3.425  -0.913  10.877  1.00  0.00     0.034 C 
ENDBRANCH  18  19
ENDBRANCH  16  18
ENDBRANCH  10  16
BRANCH   8  21
HETATM   21  C8  UNL     1      -3.920   5.161  14.046  1.00  0.00     0.196 C 
BRANCH  21  22
HETATM   22  O3  UNL     1      -3.725   4.134  15.005  1.00  0.00    -0.398 OA
ATOM     23  H3  UNL     1      -2.870   3.765  14.815  1.00  0.00     0.209 HD
ENDBRANCH  21  22
ENDBRANCH   8  21
BRANCH   5  24
HETATM   24  O1  UNL     1      -3.536   7.861  11.219  1.00  0.00    -0.391 OA
ATOM     25  H1  UNL     1      -2.645   7.746  10.911  1.00  0.00     0.210 HD
ENDBRANCH   5  24
BRANCH   6  26
HETATM   26  S2  UNL     1      -6.745   7.493  11.364  1.00  0.00    -0.139 SA
HETATM   27  C6  UNL     1      -6.680   7.074   9.607  1.00  0.00     0.092 C 
ENDBRANCH   6  26
TORSDOF 8
ENDMDL
MODEL 5
REMARK VINA RESULT: -6.258274251      2.887      4.997
REMARK  8 active torsions:
REMARK  status: ('A' for Active; 'I' for Inactive)
REMARK    1  A    between atoms: C4_5  and  O1_6 
REMARK    2  A    between atoms: C5_8  and  S2_9 
REMARK    3  A    between atoms: C7_12  and  C8_13 
REMARK    4  A    between atoms: C8_13  and  O3_14 
REMARK    5  A    between atoms: C10_17  and  O4_18 
REMARK    6  A    between atoms: C10_17  and  C11_20 
REMARK    7  A    between atoms: C11_20  and  O6_22 
REMARK    8  A    between atoms: O6_22  and  C12_23 
ROOT
HETATM    1  C1  UNL     1      -0.961   2.860   9.293  1.00  0.00     0.033 C 
HETATM    2  C2  UNL     1      -1.769   3.512  10.095  1.00  0.00     0.044 C 
HETATM    3  S1  UNL     1      -2.371   5.181   9.744  1.00  0.00    -0.121 SA
HETATM    4  C3  UNL     1      -3.255   5.589  11.301  1.00  0.00     0.094 C 
HETATM    5  C4  UNL     1      -4.063   6.818  11.025  1.00  0.00     0.171 C 
HETATM    6  C5  UNL     1      -5.211   7.049  11.931  1.00  0.00     0.212 C 
HETATM    7  O2  UNL     1      -5.839   5.968  12.472  1.00  0.00    -0.365 OA
HETATM    8  C7  UNL     1      -4.977   4.918  12.830  1.00  0.00     0.155 C 
HETATM    9  C9  UNL     1      -4.292   4.492  11.585  1.00  0.00     0.085 C 
HETATM   10  C10 UNL     1      -3.801   3.121  11.447  1.00  0.00     0.224 C 
HETATM   11  C14 UNL     1      -2.290   2.977  11.382  1.00  0.00     0.316 C 
HETATM   12  F1  UNL     1      -1.614   3.456  12.439  1.00  0.00    -0.196 F 
HETATM   13  F2  UNL     1      -2.056   1.595  11.333  1.00  0.00    -0.196 F 
ENDROOT
BRANCH  10  14
HETATM   14  O4  UNL     1      -4.176   2.636  10.150  1.00  0.00    -0.374 OA
ATOM     15  H4  UNL     1      -3.813   3.221   9.495  1.00  0.00     0.211 HD
ENDBRANCH  10  14
BRANCH  10  16
HETATM   16  C11 UNL     1      -4.327   2.117  12.396  1.00  0.00     0.300 C 
HETATM   17  O5  UNL     1      -5.329   1.407  12.101  1.00  0.00    -0.262 OA
BRANCH  16  18
HETATM   18  O6  UNL     1      -3.810   1.851  13.654  1.00  0.00    -0.319 OA
BRANCH  18  19
HETATM   19  C12 UNL     1      -4.295   0.817  14.490  1.00  0.00     0.174 C 
HETATM   20  C13 UNL     1      -4.267   1.260  15.915  1.00  0.00     0.034 C 
ENDBRANCH  18  19
ENDBRANCH  16  18
ENDBRANCH  10  16
BRANCH   8  21
HETATM   21  C8  UNL     1      -4.102   5.472  13.920  1.00  0.00     0.196 C 
BRANCH  21  22
HETATM   22  O3  UNL     1      -3.837   4.383  14.790  1.00  0.00    -0.398 OA
ATOM     23  H3  UNL     1      -4.447   4.477  15.512  1.00  0.00     0.209 HD
ENDBRANCH  21  22
ENDBRANCH   8  21
BRANCH   5  24
HETATM   24  O1  UNL     1      -3.244   7.946  10.992  1.00  0.00    -0.391 OA
ATOM     25  H1  UNL     1      -3.647   8.665  11.462  1.00  0.00     0.210 HD
ENDBRANCH   5  24
BRANCH   6  26
HETATM   26  S2  UNL     1      -6.477   7.973  10.968  1.00  0.00    -0.139 SA
HETATM   27  C6  UNL     1      -6.786   7.081   9.426  1.00  0.00     0.092 C 
ENDBRANCH   6  26
TORSDOF 8
ENDMDL
