MODEL 1
REMARK VINA RESULT: -7.393977408      0.000      0.000
REMARK  9 active torsions:
REMARK  status: ('A' for Active; 'I' for Inactive)
REMARK    1  A    between atoms: C2_2  and  O2_4 
REMARK    2  A    between atoms: O2_4  and  C3_5 
REMARK    3  A    between atoms: C7_9  and  C8_10 
REMARK    4  A    between atoms: C8_10  and  O4_12 
REMARK    5  A    between atoms: O4_12  and  C9_13 
REMARK    6  A    between atoms: C11_16  and  C12_17 
REMARK    7  A    between atoms: C13_20  and  O5_21 
REMARK    8  A    between atoms: C14_23  and  O6_24 
REMARK    9  A    between atoms: C15_26  and  O7_27 
ROOT
HETATM    1  C9  UNL     1      -3.775   1.160  12.778  1.00  0.00     0.172 C 
HETATM    2  C10 UNL     1      -3.052   0.174  11.911  1.00  0.00     0.109 C 
HETATM    3  S1  UNL     1      -1.995   1.081  10.747  1.00  0.00    -0.153 SA
HETATM    4  C11 UNL     1      -1.713   2.779  11.325  1.00  0.00     0.143 C 
HETATM    5  C13 UNL     1      -2.877   3.670  10.977  1.00  0.00     0.168 C 
HETATM    6  C14 UNL     1      -4.048   3.477  11.917  1.00  0.00     0.179 C 
HETATM    7  C15 UNL     1      -4.579   2.081  11.923  1.00  0.00     0.179 C 
ENDROOT
BRANCH   1   8
HETATM    8  O4  UNL     1      -4.512   0.572  13.824  1.00  0.00    -0.312 OA
BRANCH   8   9
HETATM    9  C8  UNL     1      -4.447   0.932  15.139  1.00  0.00     0.266 C 
HETATM   10  O3  UNL     1      -3.326   1.112  15.657  1.00  0.00    -0.265 OA
BRANCH   9  11
HETATM   11  C7  UNL     1      -5.691   1.099  15.916  1.00  0.00     0.115 C 
HETATM   12  C3  UNL     1      -6.369   2.412  15.753  1.00  0.00     0.145 C 
HETATM   13  C4  UNL     1      -7.017   2.714  17.083  1.00  0.00     0.033 C 
HETATM   14  C5  UNL     1      -6.284   1.899  18.126  1.00  0.00     0.004 C 
HETATM   15  C6  UNL     1      -5.408   0.927  17.395  1.00  0.00     0.017 C 
BRANCH  12  16
HETATM   16  O2  UNL     1      -5.599   3.454  15.256  1.00  0.00    -0.315 OA
BRANCH  16  17
HETATM   17  C2  UNL     1      -6.094   4.679  14.839  1.00  0.00     0.255 C 
HETATM   18  C1  UNL     1      -6.010   5.925  15.626  1.00  0.00     0.126 C 
HETATM   19  O1  UNL     1      -6.650   4.709  13.709  1.00  0.00    -0.266 OA
ENDBRANCH  16  17
ENDBRANCH  12  16
ENDBRANCH   9  11
ENDBRANCH   8   9
ENDBRANCH   1   8
BRANCH   7  20
HETATM   20  O7  UNL     1      -5.879   2.125  12.463  1.00  0.00    -0.390 OA
ATOM     21  H7  UNL     1      -6.230   1.243  12.426  1.00  0.00     0.210 HD
ENDBRANCH   7  20
BRANCH   6  22
HETATM   22  O6  UNL     1      -3.635   3.924  13.170  1.00  0.00    -0.390 OA
ATOM     23  H6  UNL     1      -4.299   4.530  13.476  1.00  0.00     0.210 HD
ENDBRANCH   6  22
BRANCH   4  24
HETATM   24  C12 UNL     1      -0.482   3.301  10.576  1.00  0.00     0.369 C 
HETATM   25  F1  UNL     1       0.646   2.976  11.293  1.00  0.00    -0.213 F 
HETATM   26  F2  UNL     1      -0.466   2.836   9.279  1.00  0.00    -0.213 F 
ENDBRANCH   4  24
BRANCH   5  27
HETATM   27  O5  UNL     1      -2.461   4.991  11.124  1.00  0.00    -0.392 OA
ATOM     28  H5  UNL     1      -2.849   5.498  10.420  1.00  0.00     0.210 HD
ENDBRANCH   5  27
TORSDOF 9
ENDMDL
MODEL 2
REMARK VINA RESULT: -7.043381476      3.189      4.781
REMARK  9 active torsions:
REMARK  status: ('A' for Active; 'I' for Inactive)
REMARK    1  A    between atoms: C2_2  and  O2_4 
REMARK    2  A    between atoms: O2_4  and  C3_5 
REMARK    3  A    between atoms: C7_9  and  C8_10 
REMARK    4  A    between atoms: C8_10  and  O4_12 
REMARK    5  A    between atoms: O4_12  and  C9_13 
REMARK    6  A    between atoms: C11_16  and  C12_17 
REMARK    7  A    between atoms: C13_20  and  O5_21 
REMARK    8  A    between atoms: C14_23  and  O6_24 
REMARK    9  A    between atoms: C15_26  and  O7_27 
ROOT
HETATM    1  C9  UNL     1      -4.255   5.133  12.277  1.00  0.00     0.172 C 
HETATM    2  C10 UNL     1      -4.605   6.587  12.379  1.00  0.00     0.109 C 
HETATM    3  S1  UNL     1      -4.853   7.249  10.708  1.00  0.00    -0.153 SA
HETATM    4  C11 UNL     1      -5.147   5.906   9.522  1.00  0.00     0.143 C 
HETATM    5  C13 UNL     1      -3.850   5.274   9.089  1.00  0.00     0.168 C 
HETATM    6  C14 UNL     1      -3.300   4.321  10.129  1.00  0.00     0.179 C 
HETATM    7  C15 UNL     1      -3.026   4.973  11.444  1.00  0.00     0.179 C 
ENDROOT
BRANCH   1   8
HETATM    8  O4  UNL     1      -4.186   4.471  13.517  1.00  0.00    -0.312 OA
BRANCH   8   9
HETATM    9  C8  UNL     1      -5.161   3.675  14.046  1.00  0.00     0.266 C 
HETATM   10  O3  UNL     1      -6.311   3.734  13.564  1.00  0.00    -0.265 OA
BRANCH   9  11
HETATM   11  C7  UNL     1      -4.841   2.768  15.166  1.00  0.00     0.115 C 
HETATM   12  C3  UNL     1      -4.407   1.401  14.771  1.00  0.00     0.145 C 
HETATM   13  C4  UNL     1      -4.910   0.477  15.854  1.00  0.00     0.033 C 
HETATM   14  C5  UNL     1      -6.055   1.186  16.543  1.00  0.00     0.004 C 
HETATM   15  C6  UNL     1      -6.049   2.607  16.067  1.00  0.00     0.017 C 
BRANCH  12  16
HETATM   16  O2  UNL     1      -4.734   0.990  13.488  1.00  0.00    -0.315 OA
BRANCH  16  17
HETATM   17  C2  UNL     1      -3.818   0.626  12.513  1.00  0.00     0.255 C 
HETATM   18  C1  UNL     1      -3.877  -0.631  11.741  1.00  0.00     0.126 C 
HETATM   19  O1  UNL     1      -2.882   1.437  12.286  1.00  0.00    -0.266 OA
ENDBRANCH  16  17
ENDBRANCH  12  16
ENDBRANCH   9  11
ENDBRANCH   8   9
ENDBRANCH   1   8
BRANCH   7  20
HETATM   20  O7  UNL     1      -2.144   4.137  12.156  1.00  0.00    -0.390 OA
ATOM     21  H7  UNL     1      -1.380   4.656  12.376  1.00  0.00     0.210 HD
ENDBRANCH   7  20
BRANCH   6  22
HETATM   22  O6  UNL     1      -4.193   3.255  10.207  1.00  0.00    -0.390 OA
ATOM     23  H6  UNL     1      -5.049   3.628  10.380  1.00  0.00     0.210 HD
ENDBRANCH   6  22
BRANCH   4  24
HETATM   24  C12 UNL     1      -5.794   6.542   8.287  1.00  0.00     0.369 C 
HETATM   25  F1  UNL     1      -7.111   6.150   8.223  1.00  0.00    -0.213 F 
HETATM   26  F2  UNL     1      -5.623   7.910   8.295  1.00  0.00    -0.213 F 
ENDBRANCH   4  24
BRANCH   5  27
HETATM   27  O5  UNL     1      -4.105   4.516   7.948  1.00  0.00    -0.392 OA
ATOM     28  H5  UNL     1      -4.515   3.705   8.224  1.00  0.00     0.210 HD
ENDBRANCH   5  27
TORSDOF 9
ENDMDL
MODEL 3
REMARK VINA RESULT: -6.904766251      2.705      3.123
REMARK  9 active torsions:
REMARK  status: ('A' for Active; 'I' for Inactive)
REMARK    1  A    between atoms: C2_2  and  O2_4 
REMARK    2  A    between atoms: O2_4  and  C3_5 
REMARK    3  A    between atoms: C7_9  and  C8_10 
REMARK    4  A    between atoms: C8_10  and  O4_12 
REMARK    5  A    between atoms: O4_12  and  C9_13 
REMARK    6  A    between atoms: C11_16  and  C12_17 
REMARK    7  A    between atoms: C13_20  and  O5_21 
REMARK    8  A    between atoms: C14_23  and  O6_24 
REMARK    9  A    between atoms: C15_26  and  O7_27 
ROOT
HETATM    1  C9  UNL     1      -3.488   2.900  13.263  1.00  0.00     0.172 C 
HETATM    2  C10 UNL     1      -2.816   4.013  14.008  1.00  0.00     0.109 C 
HETATM    3  S1  UNL     1      -3.029   5.555  13.074  1.00  0.00    -0.153 SA
HETATM    4  C11 UNL     1      -4.394   5.403  11.886  1.00  0.00     0.143 C 
HETATM    5  C13 UNL     1      -3.944   4.696  10.634  1.00  0.00     0.168 C 
HETATM    6  C14 UNL     1      -3.856   3.196  10.821  1.00  0.00     0.179 C 
HETATM    7  C15 UNL     1      -2.901   2.789  11.895  1.00  0.00     0.179 C 
ENDROOT
BRANCH   1   8
HETATM    8  O4  UNL     1      -3.521   1.679  13.964  1.00  0.00    -0.312 OA
BRANCH   8   9
HETATM    9  C8  UNL     1      -3.915   1.520  15.261  1.00  0.00     0.266 C 
HETATM   10  O3  UNL     1      -3.071   1.671  16.168  1.00  0.00    -0.265 OA
BRANCH   9  11
HETATM   11  C7  UNL     1      -5.319   1.177  15.565  1.00  0.00     0.115 C 
HETATM   12  C3  UNL     1      -6.270   2.320  15.544  1.00  0.00     0.145 C 
HETATM   13  C4  UNL     1      -7.315   2.010  16.589  1.00  0.00     0.033 C 
HETATM   14  C5  UNL     1      -6.695   1.022  17.553  1.00  0.00     0.004 C 
HETATM   15  C6  UNL     1      -5.414   0.545  16.939  1.00  0.00     0.017 C 
BRANCH  12  16
HETATM   16  O2  UNL     1      -5.722   3.589  15.660  1.00  0.00    -0.315 OA
BRANCH  16  17
HETATM   17  C2  UNL     1      -6.175   4.714  14.990  1.00  0.00     0.255 C 
HETATM   18  C1  UNL     1      -5.994   6.099  15.468  1.00  0.00     0.126 C 
HETATM   19  O1  UNL     1      -6.779   4.519  13.902  1.00  0.00    -0.266 OA
ENDBRANCH  16  17
ENDBRANCH  12  16
ENDBRANCH   9  11
ENDBRANCH   8   9
ENDBRANCH   1   8
BRANCH   7  20
HETATM   20  O7  UNL     1      -2.581   1.433  11.686  1.00  0.00    -0.390 OA
ATOM     21  H7  UNL     1      -1.778   1.407  11.180  1.00  0.00     0.210 HD
ENDBRANCH   7  20
BRANCH   6  22
HETATM   22  O6  UNL     1      -5.156   2.741  11.025  1.00  0.00    -0.390 OA
ATOM     23  H6  UNL     1      -5.725   3.499  10.959  1.00  0.00     0.210 HD
ENDBRANCH   6  22
BRANCH   4  24
HETATM   24  C12 UNL     1      -4.802   6.828  11.499  1.00  0.00     0.369 C 
HETATM   25  F1  UNL     1      -6.119   7.024  11.847  1.00  0.00    -0.213 F 
HETATM   26  F2  UNL     1      -3.941   7.751  12.051  1.00  0.00    -0.213 F 
ENDBRANCH   4  24
BRANCH   5  27
HETATM   27  O5  UNL     1      -4.904   4.919   9.650  1.00  0.00    -0.392 OA
ATOM     28  H5  UNL     1      -5.754   4.706  10.019  1.00  0.00     0.210 HD
ENDBRANCH   5  27
TORSDOF 9
ENDMDL
MODEL 4
REMARK VINA RESULT: -6.838258130      1.858      3.735
REMARK  9 active torsions:
REMARK  status: ('A' for Active; 'I' for Inactive)
REMARK    1  A    between atoms: C2_2  and  O2_4 
REMARK    2  A    between atoms: O2_4  and  C3_5 
REMARK    3  A    between atoms: C7_9  and  C8_10 
REMARK    4  A    between atoms: C8_10  and  O4_12 
REMARK    5  A    between atoms: O4_12  and  C9_13 
REMARK    6  A    between atoms: C11_16  and  C12_17 
REMARK    7  A    between atoms: C13_20  and  O5_21 
REMARK    8  A    between atoms: C14_23  and  O6_24 
REMARK    9  A    between atoms: C15_26  and  O7_27 
ROOT
HETATM    1  C9  UNL     1      -3.724   5.099  12.509  1.00  0.00     0.172 C 
HETATM    2  C10 UNL     1      -4.161   5.242  11.082  1.00  0.00     0.109 C 
HETATM    3  S1  UNL     1      -2.927   4.456  10.009  1.00  0.00    -0.153 SA
HETATM    4  C11 UNL     1      -1.890   3.305  10.957  1.00  0.00     0.143 C 
HETATM    5  C13 UNL     1      -0.798   4.040  11.691  1.00  0.00     0.168 C 
HETATM    6  C14 UNL     1      -1.305   4.718  12.946  1.00  0.00     0.179 C 
HETATM    7  C15 UNL     1      -2.379   5.722  12.684  1.00  0.00     0.179 C 
ENDROOT
BRANCH   1   8
HETATM    8  O4  UNL     1      -4.676   5.538  13.448  1.00  0.00    -0.312 OA
BRANCH   8   9
HETATM    9  C8  UNL     1      -5.650   4.764  14.010  1.00  0.00     0.266 C 
HETATM   10  O3  UNL     1      -6.814   4.846  13.565  1.00  0.00    -0.265 OA
BRANCH   9  11
HETATM   11  C7  UNL     1      -5.313   3.854  15.122  1.00  0.00     0.115 C 
HETATM   12  C3  UNL     1      -4.932   2.474  14.720  1.00  0.00     0.145 C 
HETATM   13  C4  UNL     1      -5.419   1.569  15.826  1.00  0.00     0.033 C 
HETATM   14  C5  UNL     1      -6.516   2.313  16.554  1.00  0.00     0.004 C 
HETATM   15  C6  UNL     1      -6.489   3.731  16.070  1.00  0.00     0.017 C 
BRANCH  12  16
HETATM   16  O2  UNL     1      -5.319   2.066  13.452  1.00  0.00    -0.315 OA
BRANCH  16  17
HETATM   17  C2  UNL     1      -4.494   1.437  12.533  1.00  0.00     0.255 C 
HETATM   18  C1  UNL     1      -4.893   1.084  11.157  1.00  0.00     0.126 C 
HETATM   19  O1  UNL     1      -3.328   1.157  12.920  1.00  0.00    -0.266 OA
ENDBRANCH  16  17
ENDBRANCH  12  16
ENDBRANCH   9  11
ENDBRANCH   8   9
ENDBRANCH   1   8
BRANCH   7  20
HETATM   20  O7  UNL     1      -2.453   6.567  13.809  1.00  0.00    -0.390 OA
ATOM     21  H7  UNL     1      -1.760   6.306  14.404  1.00  0.00     0.210 HD
ENDBRANCH   7  20
BRANCH   6  22
HETATM   22  O6  UNL     1      -1.687   3.705  13.822  1.00  0.00    -0.390 OA
ATOM     23  H6  UNL     1      -2.537   3.950  14.169  1.00  0.00     0.210 HD
ENDBRANCH   6  22
BRANCH   4  24
HETATM   24  C12 UNL     1      -1.227   2.370   9.942  1.00  0.00     0.369 C 
HETATM   25  F1  UNL     1      -1.851   1.145   9.989  1.00  0.00    -0.213 F 
HETATM   26  F2  UNL     1      -1.218   2.938   8.686  1.00  0.00    -0.213 F 
ENDBRANCH   4  24
BRANCH   5  27
HETATM   27  O5  UNL     1       0.147   3.101  12.098  1.00  0.00    -0.392 OA
ATOM     28  H5  UNL     1       0.636   3.477  12.821  1.00  0.00     0.210 HD
ENDBRANCH   5  27
TORSDOF 9
ENDMDL
MODEL 5
REMARK VINA RESULT: -6.782793426      2.906      5.005
REMARK  9 active torsions:
REMARK  status: ('A' for Active; 'I' for Inactive)
REMARK    1  A    between atoms: C2_2  and  O2_4 
REMARK    2  A    between atoms: O2_4  and  C3_5 
REMARK    3  A    between atoms: C7_9  and  C8_10 
REMARK    4  A    between atoms: C8_10  and  O4_12 
REMARK    5  A    between atoms: O4_12  and  C9_13 
REMARK    6  A    between atoms: C11_16  and  C12_17 
REMARK    7  A    between atoms: C13_20  and  O5_21 
REMARK    8  A    between atoms: C14_23  and  O6_24 
REMARK    9  A    between atoms: C15_26  and  O7_27 
ROOT
HETATM    1  C9  UNL     1      -3.380   3.367  10.967  1.00  0.00     0.172 C 
HETATM    2  C10 UNL     1      -2.111   3.115  11.724  1.00  0.00     0.109 C 
HETATM    3  S1  UNL     1      -1.672   4.614  12.648  1.00  0.00    -0.153 SA
HETATM    4  C11 UNL     1      -3.111   5.707  12.821  1.00  0.00     0.143 C 
HETATM    5  C13 UNL     1      -3.323   6.526  11.574  1.00  0.00     0.168 C 
HETATM    6  C14 UNL     1      -3.981   5.728  10.469  1.00  0.00     0.179 C 
HETATM    7  C15 UNL     1      -3.192   4.531  10.052  1.00  0.00     0.179 C 
ENDROOT
BRANCH   1   8
HETATM    8  O4  UNL     1      -3.905   2.226  10.330  1.00  0.00    -0.312 OA
BRANCH   8   9
HETATM    9  C8  UNL     1      -4.813   1.363  10.872  1.00  0.00     0.266 C 
HETATM   10  O3  UNL     1      -5.919   1.809  11.239  1.00  0.00    -0.265 OA
BRANCH   9  11
HETATM   11  C7  UNL     1      -4.473  -0.067  11.011  1.00  0.00     0.115 C 
HETATM   12  C3  UNL     1      -4.148  -0.510  12.393  1.00  0.00     0.145 C 
HETATM   13  C4  UNL     1      -3.114  -1.601  12.247  1.00  0.00     0.033 C 
HETATM   14  C5  UNL     1      -2.460  -1.410  10.896  1.00  0.00     0.004 C 
HETATM   15  C6  UNL     1      -3.278  -0.405  10.144  1.00  0.00     0.017 C 
BRANCH  12  16
HETATM   16  O2  UNL     1      -3.793   0.480  13.297  1.00  0.00    -0.315 OA
BRANCH  16  17
HETATM   17  C2  UNL     1      -4.280   0.586  14.590  1.00  0.00     0.255 C 
HETATM   18  C1  UNL     1      -4.237   1.819  15.400  1.00  0.00     0.126 C 
HETATM   19  O1  UNL     1      -4.790  -0.452  15.089  1.00  0.00    -0.266 OA
ENDBRANCH  16  17
ENDBRANCH  12  16
ENDBRANCH   9  11
ENDBRANCH   8   9
ENDBRANCH   1   8
BRANCH   7  20
HETATM   20  O7  UNL     1      -3.654   4.141   8.779  1.00  0.00    -0.390 OA
ATOM     21  H7  UNL     1      -4.307   4.776   8.509  1.00  0.00     0.210 HD
ENDBRANCH   7  20
BRANCH   6  22
HETATM   22  O6  UNL     1      -5.269   5.427  10.904  1.00  0.00    -0.390 OA
ATOM     23  H6  UNL     1      -5.768   5.186  10.133  1.00  0.00     0.210 HD
ENDBRANCH   6  22
BRANCH   4  24
HETATM   24  C12 UNL     1      -2.797   6.672  13.969  1.00  0.00     0.369 C 
HETATM   25  F1  UNL     1      -3.783   6.567  14.922  1.00  0.00    -0.213 F 
HETATM   26  F2  UNL     1      -1.528   6.451  14.460  1.00  0.00    -0.213 F 
ENDBRANCH   4  24
BRANCH   5  27
HETATM   27  O5  UNL     1      -4.194   7.565  11.890  1.00  0.00    -0.392 OA
ATOM     28  H5  UNL     1      -4.938   7.510  11.302  1.00  0.00     0.210 HD
ENDBRANCH   5  27
TORSDOF 9
ENDMDL
