MODEL 1
REMARK VINA RESULT: -8.853241643      0.000      0.000
REMARK  13 active torsions:
REMARK  status: ('A' for Active; 'I' for Inactive)
REMARK    1  A    between atoms: C2_2  and  N1_3 
REMARK    2  A    between atoms: N1_3  and  C3_5 
REMARK    3  A    between atoms: C4_8  and  N3_9 
REMARK    4  A    between atoms: N3_9  and  C5_11 
REMARK    5  A    between atoms: C5_11  and  C6_12 
REMARK    6  A    between atoms: C6_12  and  C7_13 
REMARK    7  A    between atoms: C7_13  and  N4_14 
REMARK    8  A    between atoms: C15_25  and  N7_26 
REMARK       I    between atoms: N7_26  and  C16_28 
REMARK    9  A    between atoms: C16_28  and  C17_30 
REMARK   10  A    between atoms: N9_34  and  C19_35 
REMARK   11  A    between atoms: C19_35  and  C20_36 
REMARK   12  A    between atoms: C20_36  and  C21_37 
REMARK   13  A    between atoms: C21_37  and  N10_38 
ROOT
HETATM    1  C3  UNL     1      -1.659   8.914  32.655  1.00  0.00     0.129 A 
HETATM    2  N2  UNL     1      -2.874   9.040  33.270  1.00  0.00    -0.176 N 
ATOM      3  H2  UNL     1      -3.712   9.264  32.734  1.00  0.00     0.186 HD
HETATM    4  C4  UNL     1      -2.934   8.862  34.590  1.00  0.00     0.680 A 
HETATM    5  N6  UNL     1      -1.843   8.566  35.315  1.00  0.00    -0.191 N 
ATOM      6  H6  UNL     1      -1.941   8.440  36.322  1.00  0.00     0.184 HD
HETATM    7  C13 UNL     1      -0.621   8.429  34.756  1.00  0.00     0.065 A 
HETATM    8  C14 UNL     1       0.494   8.132  35.504  1.00  0.00     0.060 A 
HETATM    9  C15 UNL     1       1.773   7.994  34.952  1.00  0.00     0.037 A 
HETATM   10  C27 UNL     1       1.849   8.174  33.598  1.00  0.00     0.030 A 
HETATM   11  C28 UNL     1       0.713   8.477  32.833  1.00  0.00     0.020 A 
HETATM   12  C29 UNL     1      -0.529   8.608  33.393  1.00  0.00     0.036 A 
ENDROOT
BRANCH   9  13
HETATM   13  N7  UNL     1       2.857   7.675  35.803  1.00  0.00    -0.323 N 
HETATM   14  C16 UNL     1       3.537   8.563  36.653  1.00  0.00     0.259 C 
HETATM   15  O1  UNL     1       3.240   9.773  36.753  1.00  0.00    -0.267 OA
ATOM     16  H7  UNL     1       3.176   6.706  35.798  1.00  0.00     0.169 HD
BRANCH  14  17
HETATM   17  C17 UNL     1       4.665   8.047  37.476  1.00  0.00     0.066 A 
HETATM   18  C18 UNL     1       5.613   7.129  37.081  1.00  0.00     0.125 A 
HETATM   19  N8  UNL     1       6.434   6.940  38.114  1.00  0.00    -0.309 N 
HETATM   20  N9  UNL     1       6.071   7.671  39.130  1.00  0.00    -0.303 N 
ATOM     21  H8  UNL     1       7.236   6.310  38.110  1.00  0.00     0.186 HD
HETATM   22  C26 UNL     1       4.987   8.366  38.775  1.00  0.00     0.128 A 
BRANCH  20  23
HETATM   23  C19 UNL     1       6.739   7.709  40.409  1.00  0.00     0.150 C 
BRANCH  23  24
HETATM   24  C20 UNL     1       5.895   7.115  41.515  1.00  0.00     0.052 C 
BRANCH  24  25
HETATM   25  C21 UNL     1       6.195   7.752  42.852  1.00  0.00     0.274 C 
BRANCH  25  26
HETATM   26  N10 UNL     1       4.990   8.180  43.524  1.00  0.00     0.088 N 
HETATM   27  C22 UNL     1       4.869   7.450  44.779  1.00  0.00     0.272 C 
HETATM   28  C23 UNL     1       3.387   7.647  45.096  1.00  0.00     0.032 C 
HETATM   29  C24 UNL     1       2.747   7.433  43.762  1.00  0.00     0.032 C 
HETATM   30  C25 UNL     1       3.814   7.811  42.757  1.00  0.00     0.272 C 
ENDBRANCH  25  26
ENDBRANCH  24  25
ENDBRANCH  23  24
ENDBRANCH  20  23
ENDBRANCH  14  17
ENDBRANCH   9  13
BRANCH   4  31
HETATM   31  N3  UNL     1      -4.085   9.003  35.156  1.00  0.00    -0.226 N 
ATOM     32  H3  UNL     1      -4.894   8.684  34.623  1.00  0.00     0.177 HD
BRANCH  31  33
HETATM   33  C5  UNL     1      -4.350   9.551  36.435  1.00  0.00     0.143 C 
BRANCH  33  34
HETATM   34  C6  UNL     1      -3.727   8.738  37.573  1.00  0.00     0.064 C 
BRANCH  34  35
HETATM   35  C7  UNL     1      -3.014   9.657  38.521  1.00  0.00     0.060 C 
BRANCH  35  36
HETATM   36  N4  UNL     1      -1.817   9.222  39.062  1.00  0.00    -0.390 N 
HETATM   37  C8  UNL     1      -1.603   7.927  39.521  1.00  0.00     0.152 C 
HETATM   38  C9  UNL     1      -0.481   7.188  38.788  1.00  0.00     0.291 C 
HETATM   39  N5  UNL     1       0.783   7.850  38.954  1.00  0.00     0.087 N 
HETATM   40  C10 UNL     1       1.630   7.238  39.930  1.00  0.00     0.310 C 
HETATM   41  C11 UNL     1       0.633   9.267  39.125  1.00  0.00     0.291 C 
HETATM   42  C12 UNL     1      -0.637   9.810  38.511  1.00  0.00     0.152 C 
ENDBRANCH  35  36
ENDBRANCH  34  35
ENDBRANCH  33  34
ENDBRANCH  31  33
ENDBRANCH   4  31
BRANCH   1  43
HETATM   43  N1  UNL     1      -1.599   9.101  31.259  1.00  0.00    -0.376 N 
ATOM     44  H1  UNL     1      -1.031   9.852  30.867  1.00  0.00     0.161 HD
BRANCH  43  45
HETATM   45  C2  UNL     1      -2.341   8.230  30.388  1.00  0.00     0.116 C 
HETATM   46  C1  UNL     1      -3.411   8.957  29.625  1.00  0.00     0.026 C 
ENDBRANCH  43  45
ENDBRANCH   1  43
TORSDOF 13
ENDMDL
MODEL 2
REMARK VINA RESULT: -8.773421291      1.687      5.175
REMARK  13 active torsions:
REMARK  status: ('A' for Active; 'I' for Inactive)
REMARK    1  A    between atoms: C2_2  and  N1_3 
REMARK    2  A    between atoms: N1_3  and  C3_5 
REMARK    3  A    between atoms: C4_8  and  N3_9 
REMARK    4  A    between atoms: N3_9  and  C5_11 
REMARK    5  A    between atoms: C5_11  and  C6_12 
REMARK    6  A    between atoms: C6_12  and  C7_13 
REMARK    7  A    between atoms: C7_13  and  N4_14 
REMARK    8  A    between atoms: C15_25  and  N7_26 
REMARK       I    between atoms: N7_26  and  C16_28 
REMARK    9  A    between atoms: C16_28  and  C17_30 
REMARK   10  A    between atoms: N9_34  and  C19_35 
REMARK   11  A    between atoms: C19_35  and  C20_36 
REMARK   12  A    between atoms: C20_36  and  C21_37 
REMARK   13  A    between atoms: C21_37  and  N10_38 
ROOT
HETATM    1  C3  UNL     1      -4.205   8.941  36.814  1.00  0.00     0.129 A 
HETATM    2  N2  UNL     1      -4.212   8.524  35.511  1.00  0.00    -0.176 N 
ATOM      3  H2  UNL     1      -5.009   8.715  34.904  1.00  0.00     0.186 HD
HETATM    4  C4  UNL     1      -3.148   7.863  35.055  1.00  0.00     0.680 A 
HETATM    5  N6  UNL     1      -2.088   7.602  35.836  1.00  0.00    -0.191 N 
ATOM      6  H6  UNL     1      -1.299   7.092  35.441  1.00  0.00     0.184 HD
HETATM    7  C13 UNL     1      -2.031   7.991  37.129  1.00  0.00     0.065 A 
HETATM    8  C14 UNL     1      -0.946   7.716  37.927  1.00  0.00     0.060 A 
HETATM    9  C15 UNL     1      -0.864   8.100  39.271  1.00  0.00     0.037 A 
HETATM   10  C27 UNL     1      -1.949   8.780  39.752  1.00  0.00     0.030 A 
HETATM   11  C28 UNL     1      -3.058   9.062  38.940  1.00  0.00     0.020 A 
HETATM   12  C29 UNL     1      -3.117   8.677  37.628  1.00  0.00     0.036 A 
ENDROOT
BRANCH   9  13
HETATM   13  N7  UNL     1       0.301   7.781  40.006  1.00  0.00    -0.323 N 
HETATM   14  C16 UNL     1       1.454   8.574  40.124  1.00  0.00     0.259 C 
HETATM   15  O1  UNL     1       1.573   9.690  39.573  1.00  0.00    -0.267 OA
ATOM     16  H7  UNL     1       0.304   6.888  40.499  1.00  0.00     0.169 HD
BRANCH  14  17
HETATM   17  C17 UNL     1       2.591   8.070  40.941  1.00  0.00     0.066 A 
HETATM   18  C18 UNL     1       2.546   7.699  42.267  1.00  0.00     0.125 A 
HETATM   19  N8  UNL     1       3.775   7.314  42.612  1.00  0.00    -0.309 N 
HETATM   20  N9  UNL     1       4.590   7.416  41.600  1.00  0.00    -0.303 N 
ATOM     21  H8  UNL     1       4.040   6.986  43.540  1.00  0.00     0.186 HD
HETATM   22  C26 UNL     1       3.898   7.877  40.554  1.00  0.00     0.128 A 
BRANCH  20  23
HETATM   23  C19 UNL     1       5.994   7.084  41.626  1.00  0.00     0.150 C 
BRANCH  23  24
HETATM   24  C20 UNL     1       6.633   7.187  40.259  1.00  0.00     0.052 C 
BRANCH  24  25
HETATM   25  C21 UNL     1       7.318   8.519  40.059  1.00  0.00     0.274 C 
BRANCH  25  26
HETATM   26  N10 UNL     1       7.172   8.999  38.703  1.00  0.00     0.088 N 
HETATM   27  C22 UNL     1       6.253  10.129  38.704  1.00  0.00     0.272 C 
HETATM   28  C23 UNL     1       5.853  10.187  37.230  1.00  0.00     0.032 C 
HETATM   29  C24 UNL     1       5.644   8.743  36.902  1.00  0.00     0.032 C 
HETATM   30  C25 UNL     1       6.536   7.996  37.869  1.00  0.00     0.272 C 
ENDBRANCH  25  26
ENDBRANCH  24  25
ENDBRANCH  23  24
ENDBRANCH  20  23
ENDBRANCH  14  17
ENDBRANCH   9  13
BRANCH   4  31
HETATM   31  N3  UNL     1      -3.179   7.463  33.829  1.00  0.00    -0.226 N 
ATOM     32  H3  UNL     1      -3.177   6.454  33.681  1.00  0.00     0.177 HD
BRANCH  31  33
HETATM   33  C5  UNL     1      -3.218   8.268  32.665  1.00  0.00     0.143 C 
BRANCH  33  34
HETATM   34  C6  UNL     1      -1.908   8.232  31.870  1.00  0.00     0.064 C 
BRANCH  34  35
HETATM   35  C7  UNL     1      -1.165   9.521  32.058  1.00  0.00     0.060 C 
BRANCH  35  36
HETATM   36  N4  UNL     1      -0.113   9.533  32.956  1.00  0.00    -0.390 N 
HETATM   37  C8  UNL     1       0.100  10.549  33.882  1.00  0.00     0.152 C 
HETATM   38  C9  UNL     1       0.068  10.078  35.337  1.00  0.00     0.291 C 
HETATM   39  N5  UNL     1       1.101   9.116  35.603  1.00  0.00     0.087 N 
HETATM   40  C10 UNL     1       2.238   9.663  36.278  1.00  0.00     0.310 C 
HETATM   41  C11 UNL     1       1.434   8.345  34.440  1.00  0.00     0.291 C 
HETATM   42  C12 UNL     1       0.305   8.255  33.440  1.00  0.00     0.152 C 
ENDBRANCH  35  36
ENDBRANCH  34  35
ENDBRANCH  33  34
ENDBRANCH  31  33
ENDBRANCH   4  31
BRANCH   1  43
HETATM   43  N1  UNL     1      -5.331   9.642  37.293  1.00  0.00    -0.376 N 
ATOM     44  H1  UNL     1      -5.384   9.913  38.274  1.00  0.00     0.161 HD
BRANCH  43  45
HETATM   45  C2  UNL     1      -6.403   9.972  36.394  1.00  0.00     0.116 C 
HETATM   46  C1  UNL     1      -7.756   9.708  36.993  1.00  0.00     0.026 C 
ENDBRANCH  43  45
ENDBRANCH   1  43
TORSDOF 13
ENDMDL
MODEL 3
REMARK VINA RESULT: -8.626262487      1.930      4.894
REMARK  13 active torsions:
REMARK  status: ('A' for Active; 'I' for Inactive)
REMARK    1  A    between atoms: C2_2  and  N1_3 
REMARK    2  A    between atoms: N1_3  and  C3_5 
REMARK    3  A    between atoms: C4_8  and  N3_9 
REMARK    4  A    between atoms: N3_9  and  C5_11 
REMARK    5  A    between atoms: C5_11  and  C6_12 
REMARK    6  A    between atoms: C6_12  and  C7_13 
REMARK    7  A    between atoms: C7_13  and  N4_14 
REMARK    8  A    between atoms: C15_25  and  N7_26 
REMARK       I    between atoms: N7_26  and  C16_28 
REMARK    9  A    between atoms: C16_28  and  C17_30 
REMARK   10  A    between atoms: N9_34  and  C19_35 
REMARK   11  A    between atoms: C19_35  and  C20_36 
REMARK   12  A    between atoms: C20_36  and  C21_37 
REMARK   13  A    between atoms: C21_37  and  N10_38 
ROOT
HETATM    1  C3  UNL     1      -4.233   9.018  36.741  1.00  0.00     0.129 A 
HETATM    2  N2  UNL     1      -4.235   8.590  35.441  1.00  0.00    -0.176 N 
ATOM      3  H2  UNL     1      -5.017   8.799  34.822  1.00  0.00     0.186 HD
HETATM    4  C4  UNL     1      -3.186   7.892  35.006  1.00  0.00     0.680 A 
HETATM    5  N6  UNL     1      -2.145   7.606  35.805  1.00  0.00    -0.191 N 
ATOM      6  H6  UNL     1      -1.366   7.068  35.425  1.00  0.00     0.184 HD
HETATM    7  C13 UNL     1      -2.093   8.005  37.095  1.00  0.00     0.065 A 
HETATM    8  C14 UNL     1      -1.028   7.704  37.910  1.00  0.00     0.060 A 
HETATM    9  C15 UNL     1      -0.953   8.097  39.251  1.00  0.00     0.037 A 
HETATM   10  C27 UNL     1      -2.024   8.815  39.711  1.00  0.00     0.030 A 
HETATM   11  C28 UNL     1      -3.112   9.123  38.881  1.00  0.00     0.020 A 
HETATM   12  C29 UNL     1      -3.165   8.729  37.572  1.00  0.00     0.036 A 
ENDROOT
BRANCH   9  13
HETATM   13  N7  UNL     1       0.190   7.749  40.006  1.00  0.00    -0.323 N 
HETATM   14  C16 UNL     1       1.365   8.509  40.135  1.00  0.00     0.259 C 
HETATM   15  O1  UNL     1       1.526   9.616  39.577  1.00  0.00    -0.267 OA
ATOM     16  H7  UNL     1       0.160   6.861  40.506  1.00  0.00     0.169 HD
BRANCH  14  17
HETATM   17  C17 UNL     1       2.475   7.978  40.972  1.00  0.00     0.066 A 
HETATM   18  C18 UNL     1       3.682   7.494  40.519  1.00  0.00     0.125 A 
HETATM   19  N8  UNL     1       4.383   7.116  41.588  1.00  0.00    -0.309 N 
HETATM   20  N9  UNL     1       3.705   7.327  42.680  1.00  0.00    -0.303 N 
ATOM     21  H8  UNL     1       5.321   6.717  41.555  1.00  0.00     0.186 HD
HETATM   22  C26 UNL     1       2.527   7.857  42.342  1.00  0.00     0.128 A 
BRANCH  20  23
HETATM   23  C19 UNL     1       4.165   7.031  44.016  1.00  0.00     0.150 C 
BRANCH  23  24
HETATM   24  C20 UNL     1       4.555   8.278  44.778  1.00  0.00     0.052 C 
BRANCH  24  25
HETATM   25  C21 UNL     1       6.052   8.389  44.942  1.00  0.00     0.274 C 
BRANCH  25  26
HETATM   26  N10 UNL     1       6.573   9.584  44.314  1.00  0.00     0.088 N 
HETATM   27  C22 UNL     1       7.073   9.236  42.991  1.00  0.00     0.272 C 
HETATM   28  C23 UNL     1       7.977  10.431  42.693  1.00  0.00     0.032 C 
HETATM   29  C24 UNL     1       8.683  10.627  43.996  1.00  0.00     0.032 C 
HETATM   30  C25 UNL     1       7.729  10.082  45.036  1.00  0.00     0.272 C 
ENDBRANCH  25  26
ENDBRANCH  24  25
ENDBRANCH  23  24
ENDBRANCH  20  23
ENDBRANCH  14  17
ENDBRANCH   9  13
BRANCH   4  31
HETATM   31  N3  UNL     1      -3.212   7.482  33.783  1.00  0.00    -0.226 N 
ATOM     32  H3  UNL     1      -3.202   6.472  33.644  1.00  0.00     0.177 HD
BRANCH  31  33
HETATM   33  C5  UNL     1      -3.255   8.278  32.613  1.00  0.00     0.143 C 
BRANCH  33  34
HETATM   34  C6  UNL     1      -1.890   8.408  31.930  1.00  0.00     0.064 C 
BRANCH  34  35
HETATM   35  C7  UNL     1      -1.235   9.692  32.345  1.00  0.00     0.060 C 
BRANCH  35  36
HETATM   36  N4  UNL     1      -0.113   9.612  33.150  1.00  0.00    -0.390 N 
HETATM   37  C8  UNL     1       0.218  10.563  34.110  1.00  0.00     0.152 C 
HETATM   38  C9  UNL     1       0.287  10.007  35.534  1.00  0.00     0.291 C 
HETATM   39  N5  UNL     1       1.298   8.994  35.656  1.00  0.00     0.087 N 
HETATM   40  C10 UNL     1       2.508   9.458  36.261  1.00  0.00     0.310 C 
HETATM   41  C11 UNL     1       1.502   8.282  34.427  1.00  0.00     0.291 C 
HETATM   42  C12 UNL     1       0.290   8.293  33.523  1.00  0.00     0.152 C 
ENDBRANCH  35  36
ENDBRANCH  34  35
ENDBRANCH  33  34
ENDBRANCH  31  33
ENDBRANCH   4  31
BRANCH   1  43
HETATM   43  N1  UNL     1      -5.343   9.757  37.198  1.00  0.00    -0.376 N 
ATOM     44  H1  UNL     1      -5.407  10.031  38.178  1.00  0.00     0.161 HD
BRANCH  43  45
HETATM   45  C2  UNL     1      -6.385  10.124  36.278  1.00  0.00     0.116 C 
HETATM   46  C1  UNL     1      -7.757   9.833  36.819  1.00  0.00     0.026 C 
ENDBRANCH  43  45
ENDBRANCH   1  43
TORSDOF 13
ENDMDL
MODEL 4
REMARK VINA RESULT: -8.398307032      2.025      6.522
REMARK  13 active torsions:
REMARK  status: ('A' for Active; 'I' for Inactive)
REMARK    1  A    between atoms: C2_2  and  N1_3 
REMARK    2  A    between atoms: N1_3  and  C3_5 
REMARK    3  A    between atoms: C4_8  and  N3_9 
REMARK    4  A    between atoms: N3_9  and  C5_11 
REMARK    5  A    between atoms: C5_11  and  C6_12 
REMARK    6  A    between atoms: C6_12  and  C7_13 
REMARK    7  A    between atoms: C7_13  and  N4_14 
REMARK    8  A    between atoms: C15_25  and  N7_26 
REMARK       I    between atoms: N7_26  and  C16_28 
REMARK    9  A    between atoms: C16_28  and  C17_30 
REMARK   10  A    between atoms: N9_34  and  C19_35 
REMARK   11  A    between atoms: C19_35  and  C20_36 
REMARK   12  A    between atoms: C20_36  and  C21_37 
REMARK   13  A    between atoms: C21_37  and  N10_38 
ROOT
HETATM    1  C3  UNL     1      -3.923   8.873  36.502  1.00  0.00     0.129 A 
HETATM    2  N2  UNL     1      -3.815   8.654  35.156  1.00  0.00    -0.176 N 
ATOM      3  H2  UNL     1      -4.596   8.847  34.530  1.00  0.00     0.186 HD
HETATM    4  C4  UNL     1      -2.661   8.182  34.685  1.00  0.00     0.680 A 
HETATM    5  N6  UNL     1      -1.620   7.921  35.492  1.00  0.00    -0.191 N 
ATOM      6  H6  UNL     1      -0.758   7.560  35.082  1.00  0.00     0.184 HD
HETATM    7  C13 UNL     1      -1.674   8.121  36.827  1.00  0.00     0.065 A 
HETATM    8  C14 UNL     1      -0.607   7.847  37.649  1.00  0.00     0.060 A 
HETATM    9  C15 UNL     1      -0.639   8.036  39.036  1.00  0.00     0.037 A 
HETATM   10  C27 UNL     1      -1.818   8.521  39.534  1.00  0.00     0.030 A 
HETATM   11  C28 UNL     1      -2.908   8.801  38.696  1.00  0.00     0.020 A 
HETATM   12  C29 UNL     1      -2.855   8.609  37.343  1.00  0.00     0.036 A 
ENDROOT
BRANCH   9  13
HETATM   13  N7  UNL     1       0.515   7.737  39.797  1.00  0.00    -0.323 N 
HETATM   14  C16 UNL     1       1.611   8.587  40.015  1.00  0.00     0.259 C 
HETATM   15  O1  UNL     1       1.682   9.743  39.545  1.00  0.00    -0.267 OA
ATOM     16  H7  UNL     1       0.555   6.814  40.229  1.00  0.00     0.169 HD
BRANCH  14  17
HETATM   17  C17 UNL     1       2.747   8.096  40.844  1.00  0.00     0.066 A 
HETATM   18  C18 UNL     1       2.698   7.749  42.175  1.00  0.00     0.125 A 
HETATM   19  N8  UNL     1       3.926   7.368  42.529  1.00  0.00    -0.309 N 
HETATM   20  N9  UNL     1       4.743   7.451  41.518  1.00  0.00    -0.303 N 
ATOM     21  H8  UNL     1       4.189   7.056  43.464  1.00  0.00     0.186 HD
HETATM   22  C26 UNL     1       4.054   7.894  40.463  1.00  0.00     0.128 A 
BRANCH  20  23
HETATM   23  C19 UNL     1       6.146   7.118  41.552  1.00  0.00     0.150 C 
BRANCH  23  24
HETATM   24  C20 UNL     1       6.789   7.195  40.185  1.00  0.00     0.052 C 
BRANCH  24  25
HETATM   25  C21 UNL     1       7.428   8.543  39.942  1.00  0.00     0.274 C 
BRANCH  25  26
HETATM   26  N10 UNL     1       7.204   9.006  38.591  1.00  0.00     0.088 N 
HETATM   27  C22 UNL     1       6.314  10.158  38.634  1.00  0.00     0.272 C 
HETATM   28  C23 UNL     1       5.819  10.204  37.188  1.00  0.00     0.032 C 
HETATM   29  C24 UNL     1       5.555   8.762  36.898  1.00  0.00     0.032 C 
HETATM   30  C25 UNL     1       6.492   8.007  37.816  1.00  0.00     0.272 C 
ENDBRANCH  25  26
ENDBRANCH  24  25
ENDBRANCH  23  24
ENDBRANCH  20  23
ENDBRANCH  14  17
ENDBRANCH   9  13
BRANCH   4  31
HETATM   31  N3  UNL     1      -2.584   7.964  33.415  1.00  0.00    -0.226 N 
ATOM     32  H3  UNL     1      -3.411   7.564  32.972  1.00  0.00     0.177 HD
BRANCH  31  33
HETATM   33  C5  UNL     1      -1.478   8.218  32.568  1.00  0.00     0.143 C 
BRANCH  33  34
HETATM   34  C6  UNL     1      -1.732   9.362  31.582  1.00  0.00     0.064 C 
BRANCH  34  35
HETATM   35  C7  UNL     1      -2.663   8.901  30.500  1.00  0.00     0.060 C 
BRANCH  35  36
HETATM   36  N4  UNL     1      -3.976   9.332  30.554  1.00  0.00    -0.390 N 
HETATM   37  C8  UNL     1      -4.410  10.388  31.349  1.00  0.00     0.152 C 
HETATM   38  C9  UNL     1      -5.028  11.544  30.560  1.00  0.00     0.291 C 
HETATM   39  N5  UNL     1      -6.196  11.124  29.838  1.00  0.00     0.087 N 
HETATM   40  C10 UNL     1      -7.427  11.491  30.468  1.00  0.00     0.310 C 
HETATM   41  C11 UNL     1      -6.131   9.742  29.458  1.00  0.00     0.291 C 
HETATM   42  C12 UNL     1      -4.716   9.224  29.336  1.00  0.00     0.152 C 
ENDBRANCH  35  36
ENDBRANCH  34  35
ENDBRANCH  33  34
ENDBRANCH  31  33
ENDBRANCH   4  31
BRANCH   1  43
HETATM   43  N1  UNL     1      -5.144   9.375  36.997  1.00  0.00    -0.376 N 
ATOM     44  H1  UNL     1      -5.428   9.173  37.956  1.00  0.00     0.161 HD
BRANCH  43  45
HETATM   45  C2  UNL     1      -5.987  10.171  36.148  1.00  0.00     0.116 C 
HETATM   46  C1  UNL     1      -7.443  10.027  36.489  1.00  0.00     0.026 C 
ENDBRANCH  43  45
ENDBRANCH   1  43
TORSDOF 13
ENDMDL
MODEL 5
REMARK VINA RESULT: -8.383583562      2.078      4.428
REMARK  13 active torsions:
REMARK  status: ('A' for Active; 'I' for Inactive)
REMARK    1  A    between atoms: C2_2  and  N1_3 
REMARK    2  A    between atoms: N1_3  and  C3_5 
REMARK    3  A    between atoms: C4_8  and  N3_9 
REMARK    4  A    between atoms: N3_9  and  C5_11 
REMARK    5  A    between atoms: C5_11  and  C6_12 
REMARK    6  A    between atoms: C6_12  and  C7_13 
REMARK    7  A    between atoms: C7_13  and  N4_14 
REMARK    8  A    between atoms: C15_25  and  N7_26 
REMARK       I    between atoms: N7_26  and  C16_28 
REMARK    9  A    between atoms: C16_28  and  C17_30 
REMARK   10  A    between atoms: N9_34  and  C19_35 
REMARK   11  A    between atoms: C19_35  and  C20_36 
REMARK   12  A    between atoms: C20_36  and  C21_37 
REMARK   13  A    between atoms: C21_37  and  N10_38 
ROOT
HETATM    1  C3  UNL     1      -2.124   8.744  33.352  1.00  0.00     0.129 A 
HETATM    2  N2  UNL     1      -3.291   8.868  34.055  1.00  0.00    -0.176 N 
ATOM      3  H2  UNL     1      -4.170   9.071  33.580  1.00  0.00     0.186 HD
HETATM    4  C4  UNL     1      -3.248   8.715  35.378  1.00  0.00     0.680 A 
HETATM    5  N6  UNL     1      -2.102   8.446  36.024  1.00  0.00    -0.191 N 
ATOM      6  H6  UNL     1      -2.121   8.339  37.038  1.00  0.00     0.184 HD
HETATM    7  C13 UNL     1      -0.923   8.313  35.377  1.00  0.00     0.065 A 
HETATM    8  C14 UNL     1       0.249   8.044  36.043  1.00  0.00     0.060 A 
HETATM    9  C15 UNL     1       1.485   7.910  35.399  1.00  0.00     0.037 A 
HETATM   10  C27 UNL     1       1.456   8.064  34.040  1.00  0.00     0.030 A 
HETATM   11  C28 UNL     1       0.261   8.339  33.357  1.00  0.00     0.020 A 
HETATM   12  C29 UNL     1      -0.937   8.466  34.007  1.00  0.00     0.036 A 
ENDROOT
BRANCH   9  13
HETATM   13  N7  UNL     1       2.634   7.621  36.171  1.00  0.00    -0.323 N 
HETATM   14  C16 UNL     1       3.455   8.556  36.822  1.00  0.00     0.259 C 
HETATM   15  O1  UNL     1       3.246   9.788  36.789  1.00  0.00    -0.267 OA
ATOM     16  H7  UNL     1       2.891   6.638  36.264  1.00  0.00     0.169 HD
BRANCH  14  17
HETATM   17  C17 UNL     1       4.633   8.065  37.588  1.00  0.00     0.066 A 
HETATM   18  C18 UNL     1       5.626   7.233  37.119  1.00  0.00     0.125 A 
HETATM   19  N8  UNL     1       6.483   7.037  38.121  1.00  0.00    -0.309 N 
HETATM   20  N9  UNL     1       6.102   7.684  39.186  1.00  0.00    -0.303 N 
ATOM     21  H8  UNL     1       7.321   6.459  38.063  1.00  0.00     0.186 HD
HETATM   22  C26 UNL     1       4.968   8.329  38.897  1.00  0.00     0.128 A 
BRANCH  20  23
HETATM   23  C19 UNL     1       6.798   7.689  40.450  1.00  0.00     0.150 C 
BRANCH  23  24
HETATM   24  C20 UNL     1       6.121   8.573  41.475  1.00  0.00     0.052 C 
BRANCH  24  25
HETATM   25  C21 UNL     1       6.201   7.983  42.863  1.00  0.00     0.274 C 
BRANCH  25  26
HETATM   26  N10 UNL     1       4.959   7.349  43.248  1.00  0.00     0.088 N 
HETATM   27  C22 UNL     1       3.851   8.128  42.712  1.00  0.00     0.272 C 
HETATM   28  C23 UNL     1       2.694   7.631  43.577  1.00  0.00     0.032 C 
HETATM   29  C24 UNL     1       3.309   7.596  44.939  1.00  0.00     0.032 C 
HETATM   30  C25 UNL     1       4.787   7.389  44.689  1.00  0.00     0.272 C 
ENDBRANCH  25  26
ENDBRANCH  24  25
ENDBRANCH  23  24
ENDBRANCH  20  23
ENDBRANCH  14  17
ENDBRANCH   9  13
BRANCH   4  31
HETATM   31  N3  UNL     1      -4.355   8.854  36.027  1.00  0.00    -0.226 N 
ATOM     32  H3  UNL     1      -4.879   8.000  36.217  1.00  0.00     0.177 HD
BRANCH  31  33
HETATM   33  C5  UNL     1      -4.922  10.059  36.506  1.00  0.00     0.143 C 
BRANCH  33  34
HETATM   34  C6  UNL     1      -6.408  10.199  36.159  1.00  0.00     0.064 C 
BRANCH  34  35
HETATM   35  C7  UNL     1      -6.628  11.458  35.373  1.00  0.00     0.060 C 
BRANCH  35  36
HETATM   36  N4  UNL     1      -6.303  11.443  34.028  1.00  0.00    -0.390 N 
HETATM   37  C8  UNL     1      -6.565  10.371  33.183  1.00  0.00     0.152 C 
HETATM   38  C9  UNL     1      -7.489  10.715  32.013  1.00  0.00     0.291 C 
HETATM   39  N5  UNL     1      -6.911  11.719  31.164  1.00  0.00     0.087 N 
HETATM   40  C10 UNL     1      -6.332  11.197  29.965  1.00  0.00     0.310 C 
HETATM   41  C11 UNL     1      -6.046  12.606  31.886  1.00  0.00     0.291 C 
HETATM   42  C12 UNL     1      -6.382  12.702  33.357  1.00  0.00     0.152 C 
ENDBRANCH  35  36
ENDBRANCH  34  35
ENDBRANCH  33  34
ENDBRANCH  31  33
ENDBRANCH   4  31
BRANCH   1  43
HETATM   43  N1  UNL     1      -2.172   8.904  31.952  1.00  0.00    -0.376 N 
ATOM     44  H1  UNL     1      -1.308   8.975  31.415  1.00  0.00     0.161 HD
BRANCH  43  45
HETATM   45  C2  UNL     1      -3.443   8.966  31.283  1.00  0.00     0.116 C 
HETATM   46  C1  UNL     1      -3.315   8.814  29.793  1.00  0.00     0.026 C 
ENDBRANCH  43  45
ENDBRANCH   1  43
TORSDOF 13
ENDMDL
