MODEL 1
REMARK VINA RESULT: -8.505066388      0.000      0.000
REMARK  13 active torsions:
REMARK  status: ('A' for Active; 'I' for Inactive)
REMARK    1  A    between atoms: C2_2  and  C3_3 
REMARK    2  A    between atoms: C3_3  and  C4_4 
REMARK    3  A    between atoms: C5_7  and  C6_8 
REMARK       I    between atoms: C6_8  and  N2_10 
REMARK    4  A    between atoms: N2_10  and  C7_12 
REMARK    5  A    between atoms: C7_12  and  C9_14 
REMARK    6  A    between atoms: C9_14  and  C10_15 
REMARK       I    between atoms: C10_15  and  N3_17 
REMARK    7  A    between atoms: N3_17  and  C11_19 
REMARK    8  A    between atoms: C14_27  and  N6_28 
REMARK    9  A    between atoms: N6_28  and  C15_30 
REMARK   10  A    between atoms: C15_30  and  C16_31 
REMARK   11  A    between atoms: C16_31  and  C17_32 
REMARK   12  A    between atoms: C17_32  and  N7_33 
REMARK   13  A    between atoms: C25_43  and  C26_44 
ROOT
HETATM    1  C4  UNL     1      -2.125   8.116  37.200  1.00  0.00     0.032 A 
HETATM    2  N1  UNL     1      -1.714   8.412  35.928  1.00  0.00    -0.350 N 
ATOM      3  H1  UNL     1      -2.285   8.087  35.147  1.00  0.00     0.166 HD
HETATM    4  C5  UNL     1      -0.602   9.105  35.656  1.00  0.00     0.145 A 
HETATM    5  C14 UNL     1       0.200   9.562  36.674  1.00  0.00     0.134 A 
HETATM    6  N8  UNL     1      -0.182   9.285  37.913  1.00  0.00    -0.342 N 
ATOM      7  H8  UNL     1       0.403   9.617  38.680  1.00  0.00     0.167 HD
HETATM    8  C25 UNL     1      -1.313   8.579  38.226  1.00  0.00     0.033 A 
ENDROOT
BRANCH   4   9
HETATM    9  C6  UNL     1      -0.216   9.386  34.279  1.00  0.00     0.272 C 
HETATM   10  O1  UNL     1      -0.113  10.555  33.856  1.00  0.00    -0.266 OA
HETATM   11  N2  UNL     1       0.046   8.301  33.412  1.00  0.00    -0.351 N 
ATOM     12  H2  UNL     1      -0.037   7.351  33.775  1.00  0.00     0.163 HD
BRANCH  11  13
HETATM   13  C7  UNL     1       0.430   8.487  32.016  1.00  0.00     0.089 C 
HETATM   14  C8  UNL     1       1.849   7.953  31.872  1.00  0.00     0.032 C 
BRANCH  13  15
HETATM   15  C9  UNL     1      -0.548   7.764  31.152  1.00  0.00     0.128 C 
BRANCH  15  16
HETATM   16  C10 UNL     1      -1.610   8.645  30.619  1.00  0.00     0.225 C 
HETATM   17  O2  UNL     1      -2.240   8.300  29.597  1.00  0.00    -0.273 OA
HETATM   18  N3  UNL     1      -1.916   9.857  31.249  1.00  0.00    -0.306 N 
ATOM     19  H3  UNL     1      -1.251  10.629  31.275  1.00  0.00     0.171 HD
BRANCH  18  20
HETATM   20  C11 UNL     1      -3.105   9.949  31.806  1.00  0.00     0.167 A 
HETATM   21  N4  UNL     1      -3.518   9.459  32.978  1.00  0.00    -0.279 N 
HETATM   22  N5  UNL     1      -4.715   9.666  33.339  1.00  0.00    -0.296 N 
ATOM     23  H4  UNL     1      -2.881   8.928  33.572  1.00  0.00     0.189 HD
HETATM   24  C12 UNL     1      -5.540  10.355  32.568  1.00  0.00     0.066 A 
ATOM     25  H5  UNL     1      -5.045   9.299  34.232  1.00  0.00     0.187 HD
HETATM   26  C13 UNL     1      -6.986  10.705  32.818  1.00  0.00     0.078 C 
HETATM   27  S1  UNL     1      -4.524  10.725  31.240  1.00  0.00    -0.038 SA
ENDBRANCH  18  20
ENDBRANCH  15  16
ENDBRANCH  13  15
ENDBRANCH  11  13
ENDBRANCH   4   9
BRANCH   5  28
HETATM   28  N6  UNL     1       1.279  10.227  36.480  1.00  0.00    -0.374 N 
ATOM     29  H6  UNL     1       1.185  11.134  36.023  1.00  0.00     0.161 HD
BRANCH  28  30
HETATM   30  C15 UNL     1       2.596   9.821  36.842  1.00  0.00     0.123 C 
BRANCH  30  31
HETATM   31  C16 UNL     1       2.914   8.397  36.407  1.00  0.00     0.050 C 
BRANCH  31  32
HETATM   32  C17 UNL     1       3.248   7.594  37.647  1.00  0.00     0.275 C 
BRANCH  32  33
HETATM   33  N7  UNL     1       4.117   8.272  38.538  1.00  0.00     0.098 N 
HETATM   34  C18 UNL     1       5.497   7.898  38.393  1.00  0.00     0.273 C 
HETATM   35  C19 UNL     1       6.183   8.197  39.684  1.00  0.00     0.033 C 
HETATM   36  C20 UNL     1       5.076   8.315  40.699  1.00  0.00     0.043 C 
HETATM   37  C21 UNL     1       3.783   8.302  39.909  1.00  0.00     0.160 A 
HETATM   38  C22 UNL     1       2.729   9.225  40.380  1.00  0.00     0.042 A 
HETATM   39  C24 UNL     1       2.933   7.126  40.326  1.00  0.00     0.042 A 
HETATM   40  C23 UNL     1       1.827   8.085  40.686  1.00  0.00     0.005 A 
ENDBRANCH  32  33
ENDBRANCH  31  32
ENDBRANCH  30  31
ENDBRANCH  28  30
ENDBRANCH   5  28
BRANCH   1  41
HETATM   41  C3  UNL     1      -3.374   7.373  37.427  1.00  0.00     0.059 C 
BRANCH  41  42
HETATM   42  C2  UNL     1      -4.558   7.833  36.658  1.00  0.00     0.002 C 
HETATM   43  C1  UNL     1      -4.925   9.276  36.964  1.00  0.00     0.005 C 
ENDBRANCH  41  42
ENDBRANCH   1  41
BRANCH   8  44
HETATM   44  C26 UNL     1      -1.614   8.312  39.633  1.00  0.00     0.054 C 
HETATM   45  C27 UNL     1      -2.809   9.135  40.122  1.00  0.00     0.011 C 
ENDBRANCH   8  44
TORSDOF 13
ENDMDL
MODEL 2
REMARK VINA RESULT: -8.376155782      0.908      1.108
REMARK  13 active torsions:
REMARK  status: ('A' for Active; 'I' for Inactive)
REMARK    1  A    between atoms: C2_2  and  C3_3 
REMARK    2  A    between atoms: C3_3  and  C4_4 
REMARK    3  A    between atoms: C5_7  and  C6_8 
REMARK       I    between atoms: C6_8  and  N2_10 
REMARK    4  A    between atoms: N2_10  and  C7_12 
REMARK    5  A    between atoms: C7_12  and  C9_14 
REMARK    6  A    between atoms: C9_14  and  C10_15 
REMARK       I    between atoms: C10_15  and  N3_17 
REMARK    7  A    between atoms: N3_17  and  C11_19 
REMARK    8  A    between atoms: C14_27  and  N6_28 
REMARK    9  A    between atoms: N6_28  and  C15_30 
REMARK   10  A    between atoms: C15_30  and  C16_31 
REMARK   11  A    between atoms: C16_31  and  C17_32 
REMARK   12  A    between atoms: C17_32  and  N7_33 
REMARK   13  A    between atoms: C25_43  and  C26_44 
ROOT
HETATM    1  C4  UNL     1      -3.338   9.226  36.883  1.00  0.00     0.032 A 
HETATM    2  N1  UNL     1      -2.651   9.392  35.710  1.00  0.00    -0.350 N 
ATOM      3  H1  UNL     1      -3.185   9.555  34.856  1.00  0.00     0.166 HD
HETATM    4  C5  UNL     1      -1.316   9.351  35.626  1.00  0.00     0.145 A 
HETATM    5  C14 UNL     1      -0.555   9.133  36.749  1.00  0.00     0.134 A 
HETATM    6  N8  UNL     1      -1.202   8.969  37.894  1.00  0.00    -0.342 N 
ATOM      7  H8  UNL     1      -0.651   8.807  38.737  1.00  0.00     0.167 HD
HETATM    8  C25 UNL     1      -2.566   9.005  38.015  1.00  0.00     0.033 A 
ENDROOT
BRANCH   4   9
HETATM    9  C6  UNL     1      -0.643   9.532  34.346  1.00  0.00     0.272 C 
HETATM   10  O1  UNL     1      -0.095  10.612  34.045  1.00  0.00    -0.266 OA
HETATM   11  N2  UNL     1      -0.616   8.453  33.434  1.00  0.00    -0.351 N 
ATOM     12  H2  UNL     1      -1.063   7.575  33.699  1.00  0.00     0.163 HD
BRANCH  11  13
HETATM   13  C7  UNL     1       0.028   8.546  32.127  1.00  0.00     0.089 C 
HETATM   14  C8  UNL     1       1.431   7.977  32.283  1.00  0.00     0.032 C 
BRANCH  13  15
HETATM   15  C9  UNL     1      -0.794   7.791  31.137  1.00  0.00     0.128 C 
BRANCH  15  16
HETATM   16  C10 UNL     1      -1.821   8.628  30.479  1.00  0.00     0.225 C 
HETATM   17  O2  UNL     1      -2.273   8.287  29.366  1.00  0.00    -0.273 OA
HETATM   18  N3  UNL     1      -2.291   9.795  31.093  1.00  0.00    -0.306 N 
ATOM     19  H3  UNL     1      -1.688  10.603  31.240  1.00  0.00     0.171 HD
BRANCH  18  20
HETATM   20  C11 UNL     1      -3.552   9.796  31.472  1.00  0.00     0.167 A 
HETATM   21  N4  UNL     1      -4.258   8.806  32.026  1.00  0.00    -0.279 N 
HETATM   22  N5  UNL     1      -5.472   9.015  32.325  1.00  0.00    -0.296 N 
ATOM     23  H4  UNL     1      -3.827   7.899  32.205  1.00  0.00     0.189 HD
HETATM   24  C12 UNL     1      -6.029  10.192  32.091  1.00  0.00     0.066 A 
ATOM     25  H5  UNL     1      -6.023   8.269  32.750  1.00  0.00     0.187 HD
HETATM   26  C13 UNL     1      -7.443  10.633  32.373  1.00  0.00     0.078 C 
HETATM   27  S1  UNL     1      -4.719  11.049  31.397  1.00  0.00    -0.038 SA
ENDBRANCH  18  20
ENDBRANCH  15  16
ENDBRANCH  13  15
ENDBRANCH  11  13
ENDBRANCH   4   9
BRANCH   5  28
HETATM   28  N6  UNL     1       0.726   9.078  36.735  1.00  0.00    -0.374 N 
ATOM     29  H6  UNL     1       1.147   8.240  36.335  1.00  0.00     0.161 HD
BRANCH  28  30
HETATM   30  C15 UNL     1       1.618  10.077  37.223  1.00  0.00     0.123 C 
BRANCH  30  31
HETATM   31  C16 UNL     1       3.078   9.757  36.930  1.00  0.00     0.050 C 
BRANCH  31  32
HETATM   32  C17 UNL     1       3.415   8.447  37.611  1.00  0.00     0.275 C 
BRANCH  32  33
HETATM   33  N7  UNL     1       4.154   8.612  38.811  1.00  0.00     0.098 N 
HETATM   34  C18 UNL     1       5.502   8.121  38.728  1.00  0.00     0.273 C 
HETATM   35  C19 UNL     1       5.956   7.816  40.116  1.00  0.00     0.033 C 
HETATM   36  C20 UNL     1       4.692   7.709  40.928  1.00  0.00     0.043 C 
HETATM   37  C21 UNL     1       3.573   8.179  40.022  1.00  0.00     0.160 A 
HETATM   38  C22 UNL     1       2.527   9.005  40.661  1.00  0.00     0.042 A 
HETATM   39  C24 UNL     1       2.569   7.070  39.821  1.00  0.00     0.042 A 
HETATM   40  C23 UNL     1       1.494   7.977  40.366  1.00  0.00     0.005 A 
ENDBRANCH  32  33
ENDBRANCH  31  32
ENDBRANCH  30  31
ENDBRANCH  28  30
ENDBRANCH   5  28
BRANCH   1  41
HETATM   41  C3  UNL     1      -4.806   9.310  36.906  1.00  0.00     0.059 C 
BRANCH  41  42
HETATM   42  C2  UNL     1      -5.425  10.229  35.917  1.00  0.00     0.002 C 
HETATM   43  C1  UNL     1      -6.929  10.348  36.097  1.00  0.00     0.005 C 
ENDBRANCH  41  42
ENDBRANCH   1  41
BRANCH   8  44
HETATM   44  C26 UNL     1      -3.166   8.783  39.331  1.00  0.00     0.054 C 
HETATM   45  C27 UNL     1      -2.117   8.389  40.373  1.00  0.00     0.011 C 
ENDBRANCH   8  44
TORSDOF 13
ENDMDL
MODEL 3
REMARK VINA RESULT: -8.287757839      6.404     12.459
REMARK  13 active torsions:
REMARK  status: ('A' for Active; 'I' for Inactive)
REMARK    1  A    between atoms: C2_2  and  C3_3 
REMARK    2  A    between atoms: C3_3  and  C4_4 
REMARK    3  A    between atoms: C5_7  and  C6_8 
REMARK       I    between atoms: C6_8  and  N2_10 
REMARK    4  A    between atoms: N2_10  and  C7_12 
REMARK    5  A    between atoms: C7_12  and  C9_14 
REMARK    6  A    between atoms: C9_14  and  C10_15 
REMARK       I    between atoms: C10_15  and  N3_17 
REMARK    7  A    between atoms: N3_17  and  C11_19 
REMARK    8  A    between atoms: C14_27  and  N6_28 
REMARK    9  A    between atoms: N6_28  and  C15_30 
REMARK   10  A    between atoms: C15_30  and  C16_31 
REMARK   11  A    between atoms: C16_31  and  C17_32 
REMARK   12  A    between atoms: C17_32  and  N7_33 
REMARK   13  A    between atoms: C25_43  and  C26_44 
ROOT
HETATM    1  C4  UNL     1       6.134   9.922  39.316  1.00  0.00     0.032 A 
HETATM    2  N1  UNL     1       6.067   9.445  40.598  1.00  0.00    -0.350 N 
ATOM      3  H1  UNL     1       6.721   9.817  41.287  1.00  0.00     0.166 HD
HETATM    4  C5  UNL     1       5.188   8.517  40.994  1.00  0.00     0.145 A 
HETATM    5  C14 UNL     1       4.288   7.986  40.103  1.00  0.00     0.134 A 
HETATM    6  N8  UNL     1       4.337   8.434  38.856  1.00  0.00    -0.342 N 
ATOM      7  H8  UNL     1       3.676   8.049  38.182  1.00  0.00     0.167 HD
HETATM    8  C25 UNL     1       5.223   9.382  38.418  1.00  0.00     0.033 A 
ENDROOT
BRANCH   4   9
HETATM    9  C6  UNL     1       5.169   8.048  42.374  1.00  0.00     0.272 C 
HETATM   10  O1  UNL     1       5.424   6.862  42.663  1.00  0.00    -0.266 OA
HETATM   11  N2  UNL     1       4.852   8.968  43.400  1.00  0.00    -0.351 N 
ATOM     12  H2  UNL     1       4.652   9.935  43.147  1.00  0.00     0.163 HD
BRANCH  11  13
HETATM   13  C7  UNL     1       4.800   8.585  44.808  1.00  0.00     0.089 C 
HETATM   14  C8  UNL     1       3.689   7.554  44.946  1.00  0.00     0.032 C 
BRANCH  13  15
HETATM   15  C9  UNL     1       6.135   8.051  45.205  1.00  0.00     0.128 C 
BRANCH  15  16
HETATM   16  C10 UNL     1       7.200   9.078  45.181  1.00  0.00     0.225 C 
HETATM   17  O2  UNL     1       6.950  10.214  44.726  1.00  0.00    -0.273 OA
HETATM   18  N3  UNL     1       8.482   8.789  45.663  1.00  0.00    -0.306 N 
ATOM     19  H3  UNL     1       9.087   8.110  45.202  1.00  0.00     0.171 HD
BRANCH  18  20
HETATM   20  C11 UNL     1       8.866   9.436  46.743  1.00  0.00     0.167 A 
HETATM   21  N4  UNL     1       8.313  10.509  47.314  1.00  0.00    -0.279 N 
HETATM   22  N5  UNL     1       8.840  10.982  48.365  1.00  0.00    -0.296 N 
ATOM     23  H4  UNL     1       7.481  10.940  46.912  1.00  0.00     0.189 HD
HETATM   24  C12 UNL     1       9.920  10.422  48.886  1.00  0.00     0.066 A 
ATOM     25  H5  UNL     1       8.428  11.801  48.813  1.00  0.00     0.187 HD
HETATM   26  C13 UNL     1      10.686  10.831  50.119  1.00  0.00     0.078 C 
HETATM   27  S1  UNL     1      10.189   9.135  47.790  1.00  0.00    -0.038 SA
ENDBRANCH  18  20
ENDBRANCH  15  16
ENDBRANCH  13  15
ENDBRANCH  11  13
ENDBRANCH   4   9
BRANCH   5  28
HETATM   28  N6  UNL     1       3.425   7.092  40.418  1.00  0.00    -0.374 N 
ATOM     29  H6  UNL     1       3.639   6.509  41.228  1.00  0.00     0.161 HD
BRANCH  28  30
HETATM   30  C15 UNL     1       2.194   6.834  39.747  1.00  0.00     0.123 C 
BRANCH  30  31
HETATM   31  C16 UNL     1       1.072   7.762  40.197  1.00  0.00     0.050 C 
BRANCH  31  32
HETATM   32  C17 UNL     1       0.701   8.647  39.026  1.00  0.00     0.275 C 
BRANCH  32  33
HETATM   33  N7  UNL     1      -0.082   7.984  38.047  1.00  0.00     0.098 N 
HETATM   34  C18 UNL     1       0.413   8.145  36.708  1.00  0.00     0.273 C 
HETATM   35  C19 UNL     1      -0.732   7.933  35.775  1.00  0.00     0.033 C 
HETATM   36  C20 UNL     1      -1.965   8.105  36.623  1.00  0.00     0.043 C 
HETATM   37  C21 UNL     1      -1.479   8.185  38.055  1.00  0.00     0.160 A 
HETATM   38  C22 UNL     1      -2.307   7.486  39.060  1.00  0.00     0.042 A 
HETATM   39  C24 UNL     1      -1.871   9.511  38.662  1.00  0.00     0.042 A 
HETATM   40  C23 UNL     1      -2.610   8.768  39.747  1.00  0.00     0.005 A 
ENDBRANCH  32  33
ENDBRANCH  31  32
ENDBRANCH  30  31
ENDBRANCH  28  30
ENDBRANCH   5  28
BRANCH   1  41
HETATM   41  C3  UNL     1       7.108  10.963  38.956  1.00  0.00     0.059 C 
BRANCH  41  42
HETATM   42  C2  UNL     1       7.876  11.557  40.080  1.00  0.00     0.002 C 
HETATM   43  C1  UNL     1       8.219  13.018  39.840  1.00  0.00     0.005 C 
ENDBRANCH  41  42
ENDBRANCH   1  41
BRANCH   8  44
HETATM   44  C26 UNL     1       5.198   9.777  37.009  1.00  0.00     0.054 C 
HETATM   45  C27 UNL     1       3.969   9.220  36.287  1.00  0.00     0.011 C 
ENDBRANCH   8  44
TORSDOF 13
ENDMDL
MODEL 4
REMARK VINA RESULT: -8.250197672      6.454     12.529
REMARK  13 active torsions:
REMARK  status: ('A' for Active; 'I' for Inactive)
REMARK    1  A    between atoms: C2_2  and  C3_3 
REMARK    2  A    between atoms: C3_3  and  C4_4 
REMARK    3  A    between atoms: C5_7  and  C6_8 
REMARK       I    between atoms: C6_8  and  N2_10 
REMARK    4  A    between atoms: N2_10  and  C7_12 
REMARK    5  A    between atoms: C7_12  and  C9_14 
REMARK    6  A    between atoms: C9_14  and  C10_15 
REMARK       I    between atoms: C10_15  and  N3_17 
REMARK    7  A    between atoms: N3_17  and  C11_19 
REMARK    8  A    between atoms: C14_27  and  N6_28 
REMARK    9  A    between atoms: N6_28  and  C15_30 
REMARK   10  A    between atoms: C15_30  and  C16_31 
REMARK   11  A    between atoms: C16_31  and  C17_32 
REMARK   12  A    between atoms: C17_32  and  N7_33 
REMARK   13  A    between atoms: C25_43  and  C26_44 
ROOT
HETATM    1  C4  UNL     1       6.133   9.931  39.326  1.00  0.00     0.032 A 
HETATM    2  N1  UNL     1       6.087   9.462  40.612  1.00  0.00    -0.350 N 
ATOM      3  H1  UNL     1       6.752   9.838  41.288  1.00  0.00     0.166 HD
HETATM    4  C5  UNL     1       5.215   8.535  41.027  1.00  0.00     0.145 A 
HETATM    5  C14 UNL     1       4.302   7.998  40.153  1.00  0.00     0.134 A 
HETATM    6  N8  UNL     1       4.331   8.439  38.902  1.00  0.00    -0.342 N 
ATOM      7  H8  UNL     1       3.659   8.051  38.242  1.00  0.00     0.167 HD
HETATM    8  C25 UNL     1       5.209   9.386  38.446  1.00  0.00     0.033 A 
ENDROOT
BRANCH   4   9
HETATM    9  C6  UNL     1       5.218   8.073  42.409  1.00  0.00     0.272 C 
HETATM   10  O1  UNL     1       5.481   6.889  42.700  1.00  0.00    -0.266 OA
HETATM   11  N2  UNL     1       4.914   8.997  43.434  1.00  0.00    -0.351 N 
ATOM     12  H2  UNL     1       4.707   9.963  43.179  1.00  0.00     0.163 HD
BRANCH  11  13
HETATM   13  C7  UNL     1       4.885   8.623  44.845  1.00  0.00     0.089 C 
HETATM   14  C8  UNL     1       3.766   7.602  45.009  1.00  0.00     0.032 C 
BRANCH  13  15
HETATM   15  C9  UNL     1       6.221   8.078  45.221  1.00  0.00     0.128 C 
BRANCH  15  16
HETATM   16  C10 UNL     1       7.288   9.104  45.210  1.00  0.00     0.225 C 
HETATM   17  O2  UNL     1       7.050  10.234  44.735  1.00  0.00    -0.273 OA
HETATM   18  N3  UNL     1       8.557   8.819  45.727  1.00  0.00    -0.306 N 
ATOM     19  H3  UNL     1       9.173   8.134  45.289  1.00  0.00     0.171 HD
BRANCH  18  20
HETATM   20  C11 UNL     1       8.916   9.479  46.808  1.00  0.00     0.167 A 
HETATM   21  N4  UNL     1       8.251  10.438  47.459  1.00  0.00    -0.279 N 
HETATM   22  N5  UNL     1       8.774  10.947  48.496  1.00  0.00    -0.296 N 
ATOM     23  H4  UNL     1       7.340  10.754  47.129  1.00  0.00     0.189 HD
HETATM   24  C12 UNL     1       9.957  10.537  48.923  1.00  0.00     0.066 A 
ATOM     25  H5  UNL     1       8.279  11.680  49.004  1.00  0.00     0.187 HD
HETATM   26  C13 UNL     1      10.738  11.013  50.122  1.00  0.00     0.078 C 
HETATM   27  S1  UNL     1      10.337   9.342  47.756  1.00  0.00    -0.038 SA
ENDBRANCH  18  20
ENDBRANCH  15  16
ENDBRANCH  13  15
ENDBRANCH  11  13
ENDBRANCH   4   9
BRANCH   5  28
HETATM   28  N6  UNL     1       3.444   7.105  40.486  1.00  0.00    -0.374 N 
ATOM     29  H6  UNL     1       3.668   6.532  41.300  1.00  0.00     0.161 HD
BRANCH  28  30
HETATM   30  C15 UNL     1       2.207   6.836  39.830  1.00  0.00     0.123 C 
BRANCH  30  31
HETATM   31  C16 UNL     1       1.165   7.921  40.070  1.00  0.00     0.050 C 
BRANCH  31  32
HETATM   32  C17 UNL     1       0.863   8.580  38.740  1.00  0.00     0.275 C 
BRANCH  32  33
HETATM   33  N7  UNL     1      -0.521   8.616  38.432  1.00  0.00     0.098 N 
HETATM   34  C18 UNL     1      -1.368   8.337  39.558  1.00  0.00     0.273 C 
HETATM   35  C19 UNL     1      -2.672   7.843  39.029  1.00  0.00     0.033 C 
HETATM   36  C20 UNL     1      -2.385   7.416  37.614  1.00  0.00     0.043 C 
HETATM   37  C21 UNL     1      -0.979   7.890  37.312  1.00  0.00     0.160 A 
HETATM   38  C22 UNL     1      -0.756   8.432  35.955  1.00  0.00     0.042 A 
HETATM   39  C24 UNL     1      -0.094   6.712  36.982  1.00  0.00     0.042 A 
HETATM   40  C23 UNL     1       0.212   7.348  35.649  1.00  0.00     0.005 A 
ENDBRANCH  32  33
ENDBRANCH  31  32
ENDBRANCH  30  31
ENDBRANCH  28  30
ENDBRANCH   5  28
BRANCH   1  41
HETATM   41  C3  UNL     1       7.100  10.971  38.945  1.00  0.00     0.059 C 
BRANCH  41  42
HETATM   42  C2  UNL     1       7.868  11.589  40.057  1.00  0.00     0.002 C 
HETATM   43  C1  UNL     1       8.261  13.027  39.762  1.00  0.00     0.005 C 
ENDBRANCH  41  42
ENDBRANCH   1  41
BRANCH   8  44
HETATM   44  C26 UNL     1       5.161   9.773  37.035  1.00  0.00     0.054 C 
HETATM   45  C27 UNL     1       3.911   9.228  36.340  1.00  0.00     0.011 C 
ENDBRANCH   8  44
TORSDOF 13
ENDMDL
MODEL 5
REMARK VINA RESULT: -8.190530379      2.668      5.819
REMARK  13 active torsions:
REMARK  status: ('A' for Active; 'I' for Inactive)
REMARK    1  A    between atoms: C2_2  and  C3_3 
REMARK    2  A    between atoms: C3_3  and  C4_4 
REMARK    3  A    between atoms: C5_7  and  C6_8 
REMARK       I    between atoms: C6_8  and  N2_10 
REMARK    4  A    between atoms: N2_10  and  C7_12 
REMARK    5  A    between atoms: C7_12  and  C9_14 
REMARK    6  A    between atoms: C9_14  and  C10_15 
REMARK       I    between atoms: C10_15  and  N3_17 
REMARK    7  A    between atoms: N3_17  and  C11_19 
REMARK    8  A    between atoms: C14_27  and  N6_28 
REMARK    9  A    between atoms: N6_28  and  C15_30 
REMARK   10  A    between atoms: C15_30  and  C16_31 
REMARK   11  A    between atoms: C16_31  and  C17_32 
REMARK   12  A    between atoms: C17_32  and  N7_33 
REMARK   13  A    between atoms: C25_43  and  C26_44 
ROOT
HETATM    1  C4  UNL     1       2.931   8.054  41.676  1.00  0.00     0.032 A 
HETATM    2  N1  UNL     1       2.049   7.694  40.692  1.00  0.00    -0.350 N 
ATOM      3  H1  UNL     1       1.059   7.626  40.930  1.00  0.00     0.166 HD
HETATM    4  C5  UNL     1       2.419   7.426  39.434  1.00  0.00     0.145 A 
HETATM    5  C14 UNL     1       3.740   7.502  39.066  1.00  0.00     0.134 A 
HETATM    6  N8  UNL     1       4.610   7.848  40.006  1.00  0.00    -0.342 N 
ATOM      7  H8  UNL     1       5.594   7.909  39.748  1.00  0.00     0.167 HD
HETATM    8  C25 UNL     1       4.265   8.129  41.301  1.00  0.00     0.033 A 
ENDROOT
BRANCH   4   9
HETATM    9  C6  UNL     1       1.433   7.045  38.431  1.00  0.00     0.272 C 
HETATM   10  O1  UNL     1       1.580   6.025  37.726  1.00  0.00    -0.266 OA
HETATM   11  N2  UNL     1       0.288   7.856  38.261  1.00  0.00    -0.351 N 
ATOM     12  H2  UNL     1       0.181   8.683  38.849  1.00  0.00     0.163 HD
BRANCH  11  13
HETATM   13  C7  UNL     1      -0.746   7.557  37.275  1.00  0.00     0.089 C 
HETATM   14  C8  UNL     1      -2.055   7.409  38.039  1.00  0.00     0.032 C 
BRANCH  13  15
HETATM   15  C9  UNL     1      -0.785   8.662  36.275  1.00  0.00     0.128 C 
BRANCH  15  16
HETATM   16  C10 UNL     1       0.081   8.412  35.102  1.00  0.00     0.225 C 
HETATM   17  O2  UNL     1       0.694   7.327  35.009  1.00  0.00    -0.273 OA
HETATM   18  N3  UNL     1       0.218   9.376  34.096  1.00  0.00    -0.306 N 
ATOM     19  H3  UNL     1       0.670  10.273  34.273  1.00  0.00     0.171 HD
BRANCH  18  20
HETATM   20  C11 UNL     1      -0.266   9.067  32.912  1.00  0.00     0.167 A 
HETATM   21  N4  UNL     1       0.182   8.163  32.037  1.00  0.00    -0.279 N 
HETATM   22  N5  UNL     1      -0.438   8.013  30.942  1.00  0.00    -0.296 N 
ATOM     23  H4  UNL     1       1.008   7.603  32.247  1.00  0.00     0.189 HD
HETATM   24  C12 UNL     1      -1.509   8.741  30.671  1.00  0.00     0.066 A 
ATOM     25  H5  UNL     1      -0.108   7.326  30.263  1.00  0.00     0.187 HD
HETATM   26  C13 UNL     1      -2.376   8.712  29.437  1.00  0.00     0.078 C 
HETATM   27  S1  UNL     1      -1.627   9.700  32.084  1.00  0.00    -0.038 SA
ENDBRANCH  18  20
ENDBRANCH  15  16
ENDBRANCH  13  15
ENDBRANCH  11  13
ENDBRANCH   4   9
BRANCH   5  28
HETATM   28  N6  UNL     1       4.160   7.254  37.880  1.00  0.00    -0.374 N 
ATOM     29  H6  UNL     1       4.049   6.297  37.542  1.00  0.00     0.161 HD
BRANCH  28  30
HETATM   30  C15 UNL     1       4.765   8.185  36.987  1.00  0.00     0.123 C 
BRANCH  30  31
HETATM   31  C16 UNL     1       4.805   9.600  37.550  1.00  0.00     0.050 C 
BRANCH  31  32
HETATM   32  C17 UNL     1       6.254  10.034  37.621  1.00  0.00     0.275 C 
BRANCH  32  33
HETATM   33  N7  UNL     1       6.788   9.998  38.935  1.00  0.00     0.098 N 
HETATM   34  C18 UNL     1       7.144  11.292  39.447  1.00  0.00     0.273 C 
HETATM   35  C19 UNL     1       8.173  11.089  40.508  1.00  0.00     0.033 C 
HETATM   36  C20 UNL     1       8.720   9.707  40.265  1.00  0.00     0.043 C 
HETATM   37  C21 UNL     1       7.826   9.083  39.213  1.00  0.00     0.160 A 
HETATM   38  C22 UNL     1       7.502   7.654  39.404  1.00  0.00     0.042 A 
HETATM   39  C24 UNL     1       8.635   8.733  37.988  1.00  0.00     0.042 A 
HETATM   40  C23 UNL     1       8.191   7.299  38.136  1.00  0.00     0.005 A 
ENDBRANCH  32  33
ENDBRANCH  31  32
ENDBRANCH  30  31
ENDBRANCH  28  30
ENDBRANCH   5  28
BRANCH   1  41
HETATM   41  C3  UNL     1       2.450   8.361  43.032  1.00  0.00     0.059 C 
BRANCH  41  42
HETATM   42  C2  UNL     1       2.544   7.259  44.024  1.00  0.00     0.002 C 
HETATM   43  C1  UNL     1       3.342   7.654  45.256  1.00  0.00     0.005 C 
ENDBRANCH  41  42
ENDBRANCH   1  41
BRANCH   8  44
HETATM   44  C26 UNL     1       5.319   8.474  42.255  1.00  0.00     0.054 C 
HETATM   45  C27 UNL     1       6.116   7.241  42.689  1.00  0.00     0.011 C 
ENDBRANCH   8  44
TORSDOF 13
ENDMDL
