MODEL 1
REMARK VINA RESULT: -8.217126596      0.000      0.000
REMARK  14 active torsions:
REMARK  status: ('A' for Active; 'I' for Inactive)
REMARK    1  A    between atoms: C2_2  and  C3_3 
REMARK    2  A    between atoms: C4_4  and  O1_5 
REMARK    3  A    between atoms: O1_5  and  C5_6 
REMARK    4  A    between atoms: C5_6  and  C6_7 
REMARK    5  A    between atoms: C6_7  and  O2_8 
REMARK    6  A    between atoms: C8_11  and  O3_12 
REMARK    7  A    between atoms: O3_12  and  C9_13 
REMARK    8  A    between atoms: C9_13  and  C10_15 
REMARK    9  A    between atoms: C10_15  and  C11_16 
REMARK   10  A    between atoms: C10_15  and  C18_23 
REMARK   11  A    between atoms: C11_16  and  C12_17 
REMARK   12  A    between atoms: C25_33  and  C26_34 
REMARK   13  A    between atoms: C27_36  and  O7_37 
REMARK   14  A    between atoms: O7_37  and  C28_38 
ROOT
HETATM    1  C3  UNL     1       6.941   7.900  39.253  1.00  0.00     0.060 C 
HETATM    2  C4  UNL     1       5.503   7.956  39.621  1.00  0.00     0.073 C 
HETATM    3  C7  UNL     1       4.616   7.610  38.409  1.00  0.00     0.071 C 
HETATM    4  C8  UNL     1       5.036   8.190  37.126  1.00  0.00     0.136 C 
HETATM    5  C24 UNL     1       6.248   9.049  37.108  1.00  0.00     0.053 C 
HETATM    6  C25 UNL     1       7.071   9.103  38.321  1.00  0.00     0.052 C 
HETATM    7  C27 UNL     1       6.522  10.159  39.261  1.00  0.00     0.152 C 
HETATM    8  C29 UNL     1       5.285   9.498  39.758  1.00  0.00     0.072 C 
ENDROOT
BRANCH   4   9
HETATM    9  O3  UNL     1       3.948   8.849  36.462  1.00  0.00    -0.316 OA
BRANCH   9  10
HETATM   10  C9  UNL     1       2.888   9.390  37.081  1.00  0.00     0.264 C 
HETATM   11  O4  UNL     1       2.968  10.449  37.700  1.00  0.00    -0.265 OA
BRANCH  10  12
HETATM   12  C10 UNL     1       1.472   8.714  37.056  1.00  0.00     0.099 C 
BRANCH  12  13
HETATM   13  C11 UNL     1       0.899   9.321  38.274  1.00  0.00     0.020 C 
BRANCH  13  14
HETATM   14  C12 UNL     1      -0.196   8.804  39.085  1.00  0.00    -0.014 C 
HETATM   15  C13 UNL     1      -1.488   9.651  38.746  1.00  0.00     0.005 C 
HETATM   16  C14 UNL     1      -2.577   9.259  39.700  1.00  0.00     0.000 C 
HETATM   17  C15 UNL     1      -2.969   7.836  39.421  1.00  0.00     0.000 C 
HETATM   18  C16 UNL     1      -2.104   7.320  38.295  1.00  0.00     0.000 C 
HETATM   19  C17 UNL     1      -0.623   7.412  38.594  1.00  0.00     0.005 C 
ENDBRANCH  13  14
ENDBRANCH  12  13
BRANCH  12  20
HETATM   20  C18 UNL     1       0.980   8.993  35.717  1.00  0.00     0.091 C 
HETATM   21  C19 UNL     1      -0.154   9.912  35.468  1.00  0.00     0.015 C 
HETATM   22  C20 UNL     1       0.030  10.668  34.149  1.00  0.00     0.002 C 
HETATM   23  C21 UNL     1      -0.424   9.856  32.965  1.00  0.00     0.020 C 
HETATM   24  C22 UNL     1       0.668   8.874  32.520  1.00  0.00     0.122 C 
HETATM   25  N1  UNL     1       0.708   7.745  33.474  1.00  0.00    -0.361 N 
HETATM   26  C23 UNL     1       0.682   7.771  34.885  1.00  0.00     0.222 C 
ATOM     27  H1  UNL     1       0.762   6.817  33.053  1.00  0.00     0.162 HD
HETATM   28  O5  UNL     1       0.396   6.738  35.478  1.00  0.00    -0.273 OA
ENDBRANCH  12  20
ENDBRANCH  10  12
ENDBRANCH   9  10
ENDBRANCH   4   9
BRANCH   2  29
HETATM   29  O1  UNL     1       5.041   7.480  40.729  1.00  0.00    -0.377 OA
BRANCH  29  30
HETATM   30  C5  UNL     1       5.162   7.112  41.911  1.00  0.00     0.194 C 
BRANCH  30  31
HETATM   31  C6  UNL     1       3.977   7.415  42.836  1.00  0.00     0.190 C 
BRANCH  31  32
HETATM   32  O2  UNL     1       4.025   6.643  43.990  1.00  0.00    -0.399 OA
ATOM     33  H2  UNL     1       4.866   6.721  44.425  1.00  0.00     0.209 HD
ENDBRANCH  31  32
ENDBRANCH  30  31
ENDBRANCH  29  30
ENDBRANCH   2  29
BRANCH   6  34
HETATM   34  C26 UNL     1       8.504   9.366  38.102  1.00  0.00     0.244 C 
HETATM   35  O6  UNL     1       9.383   8.710  38.624  1.00  0.00    -0.306 OA
ENDBRANCH   6  34
BRANCH   1  36
HETATM   36  C2  UNL     1       7.429   6.689  38.575  1.00  0.00    -0.028 C 
HETATM   37  C1  UNL     1       7.553   5.570  39.263  1.00  0.00     0.007 C 
ENDBRANCH   1  36
BRANCH   7  38
HETATM   38  O7  UNL     1       7.469  10.258  40.338  1.00  0.00    -0.300 OA
BRANCH  38  39
HETATM   39  C28 UNL     1       8.023  11.479  40.696  1.00  0.00     0.373 C 
HETATM   40  N2  UNL     1       7.851  12.655  39.893  1.00  0.00    -0.032 NA
HETATM   41  O8  UNL     1       8.688  11.504  41.765  1.00  0.00    -0.242 OA
ENDBRANCH  38  39
ENDBRANCH   7  38
TORSDOF 14
ENDMDL
MODEL 2
REMARK VINA RESULT: -8.084596710      2.208      8.552
REMARK  14 active torsions:
REMARK  status: ('A' for Active; 'I' for Inactive)
REMARK    1  A    between atoms: C2_2  and  C3_3 
REMARK    2  A    between atoms: C4_4  and  O1_5 
REMARK    3  A    between atoms: O1_5  and  C5_6 
REMARK    4  A    between atoms: C5_6  and  C6_7 
REMARK    5  A    between atoms: C6_7  and  O2_8 
REMARK    6  A    between atoms: C8_11  and  O3_12 
REMARK    7  A    between atoms: O3_12  and  C9_13 
REMARK    8  A    between atoms: C9_13  and  C10_15 
REMARK    9  A    between atoms: C10_15  and  C11_16 
REMARK   10  A    between atoms: C10_15  and  C18_23 
REMARK   11  A    between atoms: C11_16  and  C12_17 
REMARK   12  A    between atoms: C25_33  and  C26_34 
REMARK   13  A    between atoms: C27_36  and  O7_37 
REMARK   14  A    between atoms: O7_37  and  C28_38 
ROOT
HETATM    1  C3  UNL     1      -0.592   8.947  37.412  1.00  0.00     0.060 C 
HETATM    2  C4  UNL     1      -0.512   7.470  37.544  1.00  0.00     0.073 C 
HETATM    3  C7  UNL     1       0.534   7.073  38.604  1.00  0.00     0.071 C 
HETATM    4  C8  UNL     1       1.783   7.846  38.587  1.00  0.00     0.136 C 
HETATM    5  C24 UNL     1       1.934   8.914  37.566  1.00  0.00     0.053 C 
HETATM    6  C25 UNL     1       0.755   9.276  36.771  1.00  0.00     0.052 C 
HETATM    7  C27 UNL     1       0.648   8.354  35.571  1.00  0.00     0.152 C 
HETATM    8  C29 UNL     1       0.209   7.085  36.211  1.00  0.00     0.072 C 
ENDROOT
BRANCH   4   9
HETATM    9  O3  UNL     1       2.935   6.989  38.585  1.00  0.00    -0.316 OA
BRANCH   9  10
HETATM   10  C9  UNL     1       4.153   7.344  38.148  1.00  0.00     0.264 C 
HETATM   11  O4  UNL     1       4.502   7.169  36.983  1.00  0.00    -0.265 OA
BRANCH  10  12
HETATM   12  C10 UNL     1       5.216   8.010  39.092  1.00  0.00     0.099 C 
BRANCH  12  13
HETATM   13  C11 UNL     1       5.509   9.221  38.300  1.00  0.00     0.020 C 
BRANCH  13  14
HETATM   14  C12 UNL     1       6.748   9.988  38.289  1.00  0.00    -0.014 C 
HETATM   15  C13 UNL     1       6.859  10.743  39.675  1.00  0.00     0.005 C 
HETATM   16  C14 UNL     1       8.029  11.680  39.613  1.00  0.00     0.000 C 
HETATM   17  C15 UNL     1       9.289  10.868  39.517  1.00  0.00     0.000 C 
HETATM   18  C16 UNL     1       8.908   9.405  39.497  1.00  0.00     0.000 C 
HETATM   19  C17 UNL     1       7.965   9.054  38.367  1.00  0.00     0.005 C 
ENDBRANCH  13  14
ENDBRANCH  12  13
BRANCH  12  20
HETATM   20  C18 UNL     1       4.555   8.041  40.386  1.00  0.00     0.091 C 
HETATM   21  C19 UNL     1       3.805   9.228  40.861  1.00  0.00     0.015 C 
HETATM   22  C20 UNL     1       2.605   8.812  41.717  1.00  0.00     0.002 C 
HETATM   23  C21 UNL     1       2.997   8.541  43.145  1.00  0.00     0.020 C 
HETATM   24  C22 UNL     1       3.561   7.123  43.302  1.00  0.00     0.122 C 
HETATM   25  N1  UNL     1       4.935   7.096  42.758  1.00  0.00    -0.361 N 
HETATM   26  C23 UNL     1       5.426   7.639  41.551  1.00  0.00     0.222 C 
ATOM     27  H1  UNL     1       5.626   6.619  43.337  1.00  0.00     0.162 HD
HETATM   28  O5  UNL     1       6.635   7.798  41.436  1.00  0.00    -0.273 OA
ENDBRANCH  12  20
ENDBRANCH  10  12
ENDBRANCH   9  10
ENDBRANCH   4   9
BRANCH   2  29
HETATM   29  O1  UNL     1      -1.554   6.707  37.561  1.00  0.00    -0.377 OA
BRANCH  29  30
HETATM   30  C5  UNL     1      -2.751   6.474  37.805  1.00  0.00     0.194 C 
BRANCH  30  31
HETATM   31  C6  UNL     1      -3.770   7.381  37.104  1.00  0.00     0.190 C 
BRANCH  31  32
HETATM   32  O2  UNL     1      -3.806   7.140  35.737  1.00  0.00    -0.399 OA
ATOM     33  H2  UNL     1      -4.661   7.333  35.373  1.00  0.00     0.209 HD
ENDBRANCH  31  32
ENDBRANCH  30  31
ENDBRANCH  29  30
ENDBRANCH   2  29
BRANCH   6  34
HETATM   34  C26 UNL     1       0.715  10.671  36.299  1.00  0.00     0.244 C 
HETATM   35  O6  UNL     1       1.133  11.602  36.957  1.00  0.00    -0.306 OA
ENDBRANCH   6  34
BRANCH   1  36
HETATM   36  C2  UNL     1      -0.766   9.737  38.641  1.00  0.00    -0.028 C 
HETATM   37  C1  UNL     1      -1.934   9.730  39.253  1.00  0.00     0.007 C 
ENDBRANCH   1  36
BRANCH   7  38
HETATM   38  O7  UNL     1      -0.426   8.874  34.769  1.00  0.00    -0.300 OA
BRANCH  38  39
HETATM   39  C28 UNL     1      -0.770   8.285  33.561  1.00  0.00     0.373 C 
HETATM   40  N2  UNL     1      -2.084   7.768  33.315  1.00  0.00    -0.032 NA
HETATM   41  O8  UNL     1       0.134   8.226  32.686  1.00  0.00    -0.242 OA
ENDBRANCH  38  39
ENDBRANCH   7  38
TORSDOF 14
ENDMDL
MODEL 3
REMARK VINA RESULT: -8.078186179      2.033      8.018
REMARK  14 active torsions:
REMARK  status: ('A' for Active; 'I' for Inactive)
REMARK    1  A    between atoms: C2_2  and  C3_3 
REMARK    2  A    between atoms: C4_4  and  O1_5 
REMARK    3  A    between atoms: O1_5  and  C5_6 
REMARK    4  A    between atoms: C5_6  and  C6_7 
REMARK    5  A    between atoms: C6_7  and  O2_8 
REMARK    6  A    between atoms: C8_11  and  O3_12 
REMARK    7  A    between atoms: O3_12  and  C9_13 
REMARK    8  A    between atoms: C9_13  and  C10_15 
REMARK    9  A    between atoms: C10_15  and  C11_16 
REMARK   10  A    between atoms: C10_15  and  C18_23 
REMARK   11  A    between atoms: C11_16  and  C12_17 
REMARK   12  A    between atoms: C25_33  and  C26_34 
REMARK   13  A    between atoms: C27_36  and  O7_37 
REMARK   14  A    between atoms: O7_37  and  C28_38 
ROOT
HETATM    1  C3  UNL     1      -0.754   8.994  37.710  1.00  0.00     0.060 C 
HETATM    2  C4  UNL     1      -0.705   7.571  38.134  1.00  0.00     0.073 C 
HETATM    3  C7  UNL     1      -0.005   7.432  39.499  1.00  0.00     0.071 C 
HETATM    4  C8  UNL     1       1.192   8.263  39.689  1.00  0.00     0.136 C 
HETATM    5  C24 UNL     1       1.622   9.140  38.570  1.00  0.00     0.053 C 
HETATM    6  C25 UNL     1       0.718   9.283  37.423  1.00  0.00     0.052 C 
HETATM    7  C27 UNL     1       0.966   8.158  36.436  1.00  0.00     0.152 C 
HETATM    8  C29 UNL     1       0.370   6.999  37.154  1.00  0.00     0.072 C 
ENDROOT
BRANCH   4   9
HETATM    9  O3  UNL     1       2.301   7.491  40.171  1.00  0.00    -0.316 OA
BRANCH   9  10
HETATM   10  C9  UNL     1       3.057   7.814  41.232  1.00  0.00     0.264 C 
HETATM   11  O4  UNL     1       2.613   7.787  42.378  1.00  0.00    -0.265 OA
BRANCH  10  12
HETATM   12  C10 UNL     1       4.558   8.246  41.086  1.00  0.00     0.099 C 
BRANCH  12  13
HETATM   13  C11 UNL     1       5.189   7.187  41.899  1.00  0.00     0.020 C 
BRANCH  13  14
HETATM   14  C12 UNL     1       6.043   7.363  43.067  1.00  0.00    -0.014 C 
HETATM   15  C13 UNL     1       6.449   8.891  43.140  1.00  0.00     0.005 C 
HETATM   16  C14 UNL     1       7.473   9.058  44.224  1.00  0.00     0.000 C 
HETATM   17  C15 UNL     1       6.822   8.772  45.547  1.00  0.00     0.000 C 
HETATM   18  C16 UNL     1       5.379   8.399  45.293  1.00  0.00     0.000 C 
HETATM   19  C17 UNL     1       5.227   7.216  44.361  1.00  0.00     0.005 C 
ENDBRANCH  13  14
ENDBRANCH  12  13
BRANCH  12  20
HETATM   20  C18 UNL     1       4.743   8.368  39.649  1.00  0.00     0.091 C 
HETATM   21  C19 UNL     1       5.307   7.269  38.830  1.00  0.00     0.015 C 
HETATM   22  C20 UNL     1       4.679   7.247  37.433  1.00  0.00     0.002 C 
HETATM   23  C21 UNL     1       5.341   8.226  36.501  1.00  0.00     0.020 C 
HETATM   24  C22 UNL     1       4.781   9.640  36.698  1.00  0.00     0.122 C 
HETATM   25  N1  UNL     1       5.347  10.206  37.941  1.00  0.00    -0.361 N 
HETATM   26  C23 UNL     1       5.488   9.603  39.209  1.00  0.00     0.222 C 
ATOM     27  H1  UNL     1       5.683  11.167  37.872  1.00  0.00     0.162 HD
HETATM   28  O5  UNL     1       6.266  10.110  40.008  1.00  0.00    -0.273 OA
ENDBRANCH  12  20
ENDBRANCH  10  12
ENDBRANCH   9  10
ENDBRANCH   4   9
BRANCH   2  29
HETATM   29  O1  UNL     1      -1.703   6.762  38.001  1.00  0.00    -0.377 OA
BRANCH  29  30
HETATM   30  C5  UNL     1      -2.917   6.510  37.899  1.00  0.00     0.194 C 
BRANCH  30  31
HETATM   31  C6  UNL     1      -3.738   7.484  37.047  1.00  0.00     0.190 C 
BRANCH  31  32
HETATM   32  O2  UNL     1      -3.757   7.099  35.712  1.00  0.00    -0.399 OA
ATOM     33  H2  UNL     1      -4.407   7.586  35.220  1.00  0.00     0.209 HD
ENDBRANCH  31  32
ENDBRANCH  30  31
ENDBRANCH  29  30
ENDBRANCH   2  29
BRANCH   6  34
HETATM   34  C26 UNL     1       0.806  10.567  36.705  1.00  0.00     0.244 C 
HETATM   35  O6  UNL     1       1.207  11.588  37.227  1.00  0.00    -0.306 OA
ENDBRANCH   6  34
BRANCH   1  36
HETATM   36  C2  UNL     1      -1.277   9.978  38.670  1.00  0.00    -0.028 C 
HETATM   37  C1  UNL     1      -2.449   9.765  39.238  1.00  0.00     0.007 C 
ENDBRANCH   1  36
BRANCH   7  38
HETATM   38  O7  UNL     1       0.165   8.462  35.283  1.00  0.00    -0.300 OA
BRANCH  38  39
HETATM   39  C28 UNL     1       0.605   8.157  34.002  1.00  0.00     0.373 C 
HETATM   40  N2  UNL     1      -0.245   8.293  32.855  1.00  0.00    -0.032 NA
HETATM   41  O8  UNL     1       1.793   7.755  33.897  1.00  0.00    -0.242 OA
ENDBRANCH  38  39
ENDBRANCH   7  38
TORSDOF 14
ENDMDL
MODEL 4
REMARK VINA RESULT: -7.907290572      2.076      4.276
REMARK  14 active torsions:
REMARK  status: ('A' for Active; 'I' for Inactive)
REMARK    1  A    between atoms: C2_2  and  C3_3 
REMARK    2  A    between atoms: C4_4  and  O1_5 
REMARK    3  A    between atoms: O1_5  and  C5_6 
REMARK    4  A    between atoms: C5_6  and  C6_7 
REMARK    5  A    between atoms: C6_7  and  O2_8 
REMARK    6  A    between atoms: C8_11  and  O3_12 
REMARK    7  A    between atoms: O3_12  and  C9_13 
REMARK    8  A    between atoms: C9_13  and  C10_15 
REMARK    9  A    between atoms: C10_15  and  C11_16 
REMARK   10  A    between atoms: C10_15  and  C18_23 
REMARK   11  A    between atoms: C11_16  and  C12_17 
REMARK   12  A    between atoms: C25_33  and  C26_34 
REMARK   13  A    between atoms: C27_36  and  O7_37 
REMARK   14  A    between atoms: O7_37  and  C28_38 
ROOT
HETATM    1  C3  UNL     1       5.108   7.962  38.155  1.00  0.00     0.060 C 
HETATM    2  C4  UNL     1       4.081   8.066  39.222  1.00  0.00     0.073 C 
HETATM    3  C7  UNL     1       2.667   8.138  38.613  1.00  0.00     0.071 C 
HETATM    4  C8  UNL     1       2.530   8.986  37.421  1.00  0.00     0.136 C 
HETATM    5  C24 UNL     1       3.736   9.694  36.921  1.00  0.00     0.053 C 
HETATM    6  C25 UNL     1       5.032   9.347  37.514  1.00  0.00     0.052 C 
HETATM    7  C27 UNL     1       5.254  10.172  38.768  1.00  0.00     0.152 C 
HETATM    8  C29 UNL     1       4.301   9.533  39.715  1.00  0.00     0.072 C 
ENDROOT
BRANCH   4   9
HETATM    9  O3  UNL     1       1.431   9.901  37.547  1.00  0.00    -0.316 OA
BRANCH   9  10
HETATM   10  C9  UNL     1       0.726  10.397  36.519  1.00  0.00     0.264 C 
HETATM   11  O4  UNL     1       1.013  11.469  35.990  1.00  0.00    -0.265 OA
BRANCH  10  12
HETATM   12  C10 UNL     1      -0.512   9.643  35.916  1.00  0.00     0.099 C 
BRANCH  12  13
HETATM   13  C11 UNL     1       0.186   8.789  34.936  1.00  0.00     0.020 C 
BRANCH  13  14
HETATM   14  C12 UNL     1       0.180   8.925  33.485  1.00  0.00    -0.014 C 
HETATM   15  C13 UNL     1      -0.920   7.942  32.914  1.00  0.00     0.005 C 
HETATM   16  C14 UNL     1      -0.816   7.931  31.417  1.00  0.00     0.000 C 
HETATM   17  C15 UNL     1      -1.208   9.286  30.899  1.00  0.00     0.000 C 
HETATM   18  C16 UNL     1      -1.541  10.165  32.083  1.00  0.00     0.000 C 
HETATM   19  C17 UNL     1      -0.403  10.286  33.072  1.00  0.00     0.005 C 
ENDBRANCH  13  14
ENDBRANCH  12  13
BRANCH  12  20
HETATM   20  C18 UNL     1      -1.200   9.121  37.086  1.00  0.00     0.091 C 
HETATM   21  C19 UNL     1      -0.912   7.775  37.635  1.00  0.00     0.015 C 
HETATM   22  C20 UNL     1      -1.054   7.763  39.160  1.00  0.00     0.002 C 
HETATM   23  C21 UNL     1      -2.485   7.586  39.592  1.00  0.00     0.020 C 
HETATM   24  C22 UNL     1      -3.238   8.923  39.564  1.00  0.00     0.122 C 
HETATM   25  N1  UNL     1      -3.543   9.265  38.159  1.00  0.00    -0.361 N 
HETATM   26  C23 UNL     1      -2.704   9.203  37.025  1.00  0.00     0.222 C 
ATOM     27  H1  UNL     1      -4.493   9.593  37.984  1.00  0.00     0.162 HD
HETATM   28  O5  UNL     1      -3.227   9.213  35.917  1.00  0.00    -0.273 OA
ENDBRANCH  12  20
ENDBRANCH  10  12
ENDBRANCH   9  10
ENDBRANCH   4   9
BRANCH   2  29
HETATM   29  O1  UNL     1       4.121   7.368  40.308  1.00  0.00    -0.377 OA
BRANCH  29  30
HETATM   30  C5  UNL     1       4.434   7.192  41.500  1.00  0.00     0.194 C 
BRANCH  30  31
HETATM   31  C6  UNL     1       5.934   7.078  41.792  1.00  0.00     0.190 C 
BRANCH  31  32
HETATM   32  O2  UNL     1       6.429   5.832  41.427  1.00  0.00    -0.399 OA
ATOM     33  H2  UNL     1       7.081   5.524  42.045  1.00  0.00     0.209 HD
ENDBRANCH  31  32
ENDBRANCH  30  31
ENDBRANCH  29  30
ENDBRANCH   2  29
BRANCH   6  34
HETATM   34  C26 UNL     1       6.198   9.512  36.628  1.00  0.00     0.244 C 
HETATM   35  O6  UNL     1       6.101   9.871  35.472  1.00  0.00    -0.306 OA
ENDBRANCH   6  34
BRANCH   1  36
HETATM   36  C2  UNL     1       4.927   6.926  37.126  1.00  0.00    -0.028 C 
HETATM   37  C1  UNL     1       5.983   6.287  36.662  1.00  0.00     0.007 C 
ENDBRANCH   1  36
BRANCH   7  38
HETATM   38  O7  UNL     1       6.599   9.892  39.190  1.00  0.00    -0.300 OA
BRANCH  38  39
HETATM   39  C28 UNL     1       7.267  10.738  40.065  1.00  0.00     0.373 C 
HETATM   40  N2  UNL     1       7.779  10.278  41.323  1.00  0.00    -0.032 NA
HETATM   41  O8  UNL     1       7.403  11.934  39.696  1.00  0.00    -0.242 OA
ENDBRANCH  38  39
ENDBRANCH   7  38
TORSDOF 14
ENDMDL
MODEL 5
REMARK VINA RESULT: -7.871601058      1.450      3.646
REMARK  14 active torsions:
REMARK  status: ('A' for Active; 'I' for Inactive)
REMARK    1  A    between atoms: C2_2  and  C3_3 
REMARK    2  A    between atoms: C4_4  and  O1_5 
REMARK    3  A    between atoms: O1_5  and  C5_6 
REMARK    4  A    between atoms: C5_6  and  C6_7 
REMARK    5  A    between atoms: C6_7  and  O2_8 
REMARK    6  A    between atoms: C8_11  and  O3_12 
REMARK    7  A    between atoms: O3_12  and  C9_13 
REMARK    8  A    between atoms: C9_13  and  C10_15 
REMARK    9  A    between atoms: C10_15  and  C11_16 
REMARK   10  A    between atoms: C10_15  and  C18_23 
REMARK   11  A    between atoms: C11_16  and  C12_17 
REMARK   12  A    between atoms: C25_33  and  C26_34 
REMARK   13  A    between atoms: C27_36  and  O7_37 
REMARK   14  A    between atoms: O7_37  and  C28_38 
ROOT
HETATM    1  C3  UNL     1       6.724   7.999  39.164  1.00  0.00     0.060 C 
HETATM    2  C4  UNL     1       5.303   8.139  39.572  1.00  0.00     0.073 C 
HETATM    3  C7  UNL     1       4.364   7.882  38.377  1.00  0.00     0.071 C 
HETATM    4  C8  UNL     1       4.788   8.464  37.097  1.00  0.00     0.136 C 
HETATM    5  C24 UNL     1       6.052   9.243  37.065  1.00  0.00     0.053 C 
HETATM    6  C25 UNL     1       6.908   9.214  38.256  1.00  0.00     0.052 C 
HETATM    7  C27 UNL     1       6.454  10.280  39.235  1.00  0.00     0.152 C 
HETATM    8  C29 UNL     1       5.190   9.688  39.750  1.00  0.00     0.072 C 
ENDROOT
BRANCH   4   9
HETATM    9  O3  UNL     1       3.728   9.208  36.478  1.00  0.00    -0.316 OA
BRANCH   9  10
HETATM   10  C9  UNL     1       2.671   8.663  35.857  1.00  0.00     0.264 C 
HETATM   11  O4  UNL     1       2.748   7.588  35.266  1.00  0.00    -0.265 OA
BRANCH  10  12
HETATM   12  C10 UNL     1       1.263   9.357  35.843  1.00  0.00     0.099 C 
BRANCH  12  13
HETATM   13  C11 UNL     1       0.782   8.886  34.529  1.00  0.00     0.020 C 
BRANCH  13  14
HETATM   14  C12 UNL     1      -0.308   9.444  33.738  1.00  0.00    -0.014 C 
HETATM   15  C13 UNL     1      -0.094   8.992  32.237  1.00  0.00     0.005 C 
HETATM   16  C14 UNL     1      -1.097   9.705  31.379  1.00  0.00     0.000 C 
HETATM   17  C15 UNL     1      -2.470   9.210  31.735  1.00  0.00     0.000 C 
HETATM   18  C16 UNL     1      -2.333   8.192  32.844  1.00  0.00     0.000 C 
HETATM   19  C17 UNL     1      -1.633   8.739  34.069  1.00  0.00     0.005 C 
ENDBRANCH  13  14
ENDBRANCH  12  13
BRANCH  12  20
HETATM   20  C18 UNL     1       0.667   8.951  37.105  1.00  0.00     0.091 C 
HETATM   21  C19 UNL     1      -0.792   8.750  37.260  1.00  0.00     0.015 C 
HETATM   22  C20 UNL     1      -1.089   7.622  38.253  1.00  0.00     0.002 C 
HETATM   23  C21 UNL     1      -1.046   8.100  39.680  1.00  0.00     0.020 C 
HETATM   24  C22 UNL     1       0.396   8.140  40.204  1.00  0.00     0.122 C 
HETATM   25  N1  UNL     1       1.077   9.319  39.627  1.00  0.00    -0.361 N 
HETATM   26  C23 UNL     1       1.075   9.784  38.294  1.00  0.00     0.222 C 
ATOM     27  H1  UNL     1       1.625   9.874  40.284  1.00  0.00     0.162 HD
HETATM   28  O5  UNL     1       1.423  10.940  38.084  1.00  0.00    -0.273 OA
ENDBRANCH  12  20
ENDBRANCH  10  12
ENDBRANCH   9  10
ENDBRANCH   4   9
BRANCH   2  29
HETATM   29  O1  UNL     1       4.839   7.668  40.681  1.00  0.00    -0.377 OA
BRANCH  29  30
HETATM   30  C5  UNL     1       4.972   7.211  41.831  1.00  0.00     0.194 C 
BRANCH  30  31
HETATM   31  C6  UNL     1       3.785   7.419  42.779  1.00  0.00     0.190 C 
BRANCH  31  32
HETATM   32  O2  UNL     1       3.913   6.649  43.928  1.00  0.00    -0.399 OA
ATOM     33  H2  UNL     1       4.026   7.193  44.699  1.00  0.00     0.209 HD
ENDBRANCH  31  32
ENDBRANCH  30  31
ENDBRANCH  29  30
ENDBRANCH   2  29
BRANCH   6  34
HETATM   34  C26 UNL     1       8.349   9.390  38.004  1.00  0.00     0.244 C 
HETATM   35  O6  UNL     1       9.205   8.784  38.617  1.00  0.00    -0.306 OA
ENDBRANCH   6  34
BRANCH   1  36
HETATM   36  C2  UNL     1       7.114   6.776  38.445  1.00  0.00    -0.028 C 
HETATM   37  C1  UNL     1       7.520   5.726  39.133  1.00  0.00     0.007 C 
ENDBRANCH   1  36
BRANCH   7  38
HETATM   38  O7  UNL     1       7.433  10.291  40.287  1.00  0.00    -0.300 OA
BRANCH  38  39
HETATM   39  C28 UNL     1       8.079  11.464  40.653  1.00  0.00     0.373 C 
HETATM   40  N2  UNL     1       7.904  12.686  39.924  1.00  0.00    -0.032 NA
HETATM   41  O8  UNL     1       8.830  11.401  41.662  1.00  0.00    -0.242 OA
ENDBRANCH  38  39
ENDBRANCH   7  38
TORSDOF 14
ENDMDL
