MODEL 1
REMARK VINA RESULT: -10.342309790      0.000      0.000
REMARK  6 active torsions:
REMARK  status: ('A' for Active; 'I' for Inactive)
REMARK    1  A    between atoms: C7_7  and  C8_8 
REMARK    2  A    between atoms: C8_8  and  C9_9 
REMARK    3  A    between atoms: C9_9  and  N1_10 
REMARK    4  A    between atoms: N1_10  and  C11_13 
REMARK    5  A    between atoms: C11_13  and  N3_15 
REMARK    6  A    between atoms: N3_15  and  C12_17 
ROOT
HETATM    1  N1  UNL     1      11.289  -8.468   9.677  1.00  0.00    -0.238 N 
HETATM    2  C10 UNL     1      10.603  -8.549  10.906  1.00  0.00     0.190 C 
HETATM    3  N2  UNL     1      10.022  -8.637  11.926  1.00  0.00    -0.171 NA
ENDROOT
BRANCH   1   4
HETATM    4  C9  UNL     1      12.688  -8.290   9.657  1.00  0.00     0.089 C 
BRANCH   4   5
HETATM    5  C8  UNL     1      13.564  -8.775  10.721  1.00  0.00     0.089 C 
BRANCH   5   6
HETATM    6  C7  UNL     1      14.448  -9.922  10.498  1.00  0.00    -0.001 A 
HETATM    7  C5  UNL     1      15.114 -10.403  11.535  1.00  0.00    -0.070 A 
HETATM    8  C4  UNL     1      16.020 -11.545  11.421  1.00  0.00     0.062 A 
HETATM    9  C6  UNL     1      14.949  -9.765  12.893  1.00  0.00     0.044 C 
HETATM   10  C3  UNL     1      16.068 -12.164  10.088  1.00  0.00    -0.012 A 
HETATM   11  C2  UNL     1      15.414 -11.733   9.025  1.00  0.00    -0.015 A 
HETATM   12  C1  UNL     1      15.533 -12.437   7.703  1.00  0.00     0.052 C 
HETATM   13  C18 UNL     1      14.564 -10.568   9.199  1.00  0.00     0.184 A 
HETATM   14  O2  UNL     1      13.923 -10.140   8.176  1.00  0.00    -0.287 OA
ENDBRANCH   5   6
ENDBRANCH   4   5
ENDBRANCH   1   4
BRANCH   1  15
HETATM   15  C11 UNL     1      10.491  -8.578   8.503  1.00  0.00     0.205 C 
HETATM   16  S1  UNL     1      10.460 -10.018   7.751  1.00  0.00    -0.039 SA
BRANCH  15  17
HETATM   17  N3  UNL     1       9.733  -7.515   7.960  1.00  0.00    -0.165 N 
ATOM     18  H3  UNL     1      10.224  -6.838   7.375  1.00  0.00     0.186 HD
BRANCH  17  19
HETATM   19  C12 UNL     1       8.487  -7.339   8.144  1.00  0.00     0.689 A 
HETATM   20  N4  UNL     1       7.624  -6.864   7.238  1.00  0.00    -0.176 N 
HETATM   21  C13 UNL     1       6.311  -6.691   7.456  1.00  0.00     0.128 A 
ATOM     22  H4  UNL     1       7.989  -6.618   6.319  1.00  0.00     0.186 HD
HETATM   23  C14 UNL     1       5.808  -7.021   8.696  1.00  0.00     0.056 A 
HETATM   24  N6  UNL     1       5.234  -6.200   6.630  1.00  0.00    -0.375 N 
HETATM   25  C15 UNL     1       6.680  -7.515   9.651  1.00  0.00     0.269 A 
HETATM   26  C16 UNL     1       4.345  -6.740   8.674  1.00  0.00     0.068 C 
HETATM   27  O1  UNL     1       6.234  -7.825  10.800  1.00  0.00    -0.267 OA
HETATM   28  N5  UNL     1       7.975  -7.655   9.349  1.00  0.00    -0.155 N 
ATOM     29  H5  UNL     1       8.604  -8.019  10.065  1.00  0.00     0.187 HD
HETATM   30  C17 UNL     1       4.039  -6.765   7.195  1.00  0.00     0.126 C 
ATOM     31  H6  UNL     1       5.305  -5.585   5.819  1.00  0.00     0.161 HD
ENDBRANCH  17  19
ENDBRANCH  15  17
ENDBRANCH   1  15
TORSDOF 6
ENDMDL
MODEL 2
REMARK VINA RESULT: -10.303053574      5.609     12.275
REMARK  6 active torsions:
REMARK  status: ('A' for Active; 'I' for Inactive)
REMARK    1  A    between atoms: C7_7  and  C8_8 
REMARK    2  A    between atoms: C8_8  and  C9_9 
REMARK    3  A    between atoms: C9_9  and  N1_10 
REMARK    4  A    between atoms: N1_10  and  C11_13 
REMARK    5  A    between atoms: C11_13  and  N3_15 
REMARK    6  A    between atoms: N3_15  and  C12_17 
ROOT
HETATM    1  N1  UNL     1       2.084  -6.686   4.627  1.00  0.00    -0.238 N 
HETATM    2  C10 UNL     1       2.338  -8.068   4.739  1.00  0.00     0.190 C 
HETATM    3  N2  UNL     1       2.538  -9.222   4.852  1.00  0.00    -0.171 NA
ENDROOT
BRANCH   1   4
HETATM    4  C9  UNL     1       1.406  -6.178   3.500  1.00  0.00     0.089 C 
BRANCH   4   5
HETATM    5  C8  UNL     1       1.912  -5.059   2.708  1.00  0.00     0.089 C 
BRANCH   5   6
HETATM    6  C7  UNL     1       1.277  -3.741   2.787  1.00  0.00    -0.001 A 
HETATM    7  C5  UNL     1       0.211  -3.519   2.036  1.00  0.00    -0.070 A 
HETATM    8  C4  UNL     1      -0.497  -2.240   2.041  1.00  0.00     0.062 A 
HETATM    9  C6  UNL     1      -0.311  -4.612   1.134  1.00  0.00     0.044 C 
HETATM   10  C3  UNL     1       0.018  -1.253   3.001  1.00  0.00    -0.012 A 
HETATM   11  C2  UNL     1       1.069  -1.428   3.781  1.00  0.00    -0.015 A 
HETATM   12  C1  UNL     1       1.518  -0.352   4.730  1.00  0.00     0.052 C 
HETATM   13  C18 UNL     1       1.751  -2.708   3.696  1.00  0.00     0.184 A 
HETATM   14  O2  UNL     1       2.771  -2.890   4.449  1.00  0.00    -0.287 OA
ENDBRANCH   5   6
ENDBRANCH   4   5
ENDBRANCH   1   4
BRANCH   1  15
HETATM   15  C11 UNL     1       2.547  -5.873   5.701  1.00  0.00     0.205 C 
HETATM   16  S1  UNL     1       1.440  -5.334   6.762  1.00  0.00    -0.039 SA
BRANCH  15  17
HETATM   17  N3  UNL     1       3.900  -5.512   5.894  1.00  0.00    -0.165 N 
ATOM     18  H3  UNL     1       4.277  -4.769   5.306  1.00  0.00     0.186 HD
BRANCH  17  19
HETATM   19  C12 UNL     1       4.683  -6.043   6.745  1.00  0.00     0.689 A 
HETATM   20  N4  UNL     1       5.982  -6.298   6.556  1.00  0.00    -0.176 N 
HETATM   21  C13 UNL     1       6.790  -6.856   7.472  1.00  0.00     0.128 A 
ATOM     22  H4  UNL     1       6.388  -6.050   5.654  1.00  0.00     0.186 HD
HETATM   23  C14 UNL     1       6.250  -7.194   8.695  1.00  0.00     0.056 A 
HETATM   24  N6  UNL     1       8.189  -7.209   7.464  1.00  0.00    -0.375 N 
HETATM   25  C15 UNL     1       4.908  -6.940   8.916  1.00  0.00     0.269 A 
HETATM   26  C16 UNL     1       7.343  -7.785   9.516  1.00  0.00     0.068 C 
HETATM   27  O1  UNL     1       4.392  -7.245  10.037  1.00  0.00    -0.267 OA
HETATM   28  N5  UNL     1       4.175  -6.381   7.946  1.00  0.00    -0.155 N 
ATOM     29  H5  UNL     1       3.188  -6.202   8.125  1.00  0.00     0.187 HD
HETATM   30  C17 UNL     1       8.579  -7.231   8.848  1.00  0.00     0.126 C 
ATOM     31  H6  UNL     1       8.776  -7.402   6.652  1.00  0.00     0.161 HD
ENDBRANCH  17  19
ENDBRANCH  15  17
ENDBRANCH   1  15
TORSDOF 6
ENDMDL
MODEL 3
REMARK VINA RESULT: -10.272745120      1.092      2.180
REMARK  6 active torsions:
REMARK  status: ('A' for Active; 'I' for Inactive)
REMARK    1  A    between atoms: C7_7  and  C8_8 
REMARK    2  A    between atoms: C8_8  and  C9_9 
REMARK    3  A    between atoms: C9_9  and  N1_10 
REMARK    4  A    between atoms: N1_10  and  C11_13 
REMARK    5  A    between atoms: C11_13  and  N3_15 
REMARK    6  A    between atoms: N3_15  and  C12_17 
ROOT
HETATM    1  N1  UNL     1      11.214  -9.566   8.993  1.00  0.00    -0.238 N 
HETATM    2  C10 UNL     1      10.647  -9.394  10.272  1.00  0.00     0.190 C 
HETATM    3  N2  UNL     1      10.152  -9.255  11.331  1.00  0.00    -0.171 NA
ENDROOT
BRANCH   1   4
HETATM    4  C9  UNL     1      12.255 -10.498   8.798  1.00  0.00     0.089 C 
BRANCH   4   5
HETATM    5  C8  UNL     1      13.668 -10.132   8.870  1.00  0.00     0.089 C 
BRANCH   5   6
HETATM    6  C7  UNL     1      14.519 -10.648   9.945  1.00  0.00    -0.001 A 
HETATM    7  C5  UNL     1      15.337 -11.649   9.663  1.00  0.00    -0.070 A 
HETATM    8  C4  UNL     1      16.229 -12.236  10.662  1.00  0.00     0.062 A 
HETATM    9  C6  UNL     1      15.367 -12.222   8.266  1.00  0.00     0.044 C 
HETATM   10  C3  UNL     1      16.205 -11.575  11.975  1.00  0.00    -0.012 A 
HETATM   11  C2  UNL     1      15.418 -10.566  12.304  1.00  0.00    -0.015 A 
HETATM   12  C1  UNL     1      15.468  -9.961  13.679  1.00  0.00     0.052 C 
HETATM   13  C18 UNL     1      14.526 -10.059  11.276  1.00  0.00     0.184 A 
HETATM   14  O2  UNL     1      13.759  -9.080  11.582  1.00  0.00    -0.287 OA
ENDBRANCH   5   6
ENDBRANCH   4   5
ENDBRANCH   1   4
BRANCH   1  15
HETATM   15  C11 UNL     1      10.673  -8.760   7.951  1.00  0.00     0.205 C 
HETATM   16  S1  UNL     1      10.808  -9.313   6.429  1.00  0.00    -0.039 SA
BRANCH  15  17
HETATM   17  N3  UNL     1      10.032  -7.518   8.164  1.00  0.00    -0.165 N 
ATOM     18  H3  UNL     1      10.624  -6.692   8.254  1.00  0.00     0.186 HD
BRANCH  17  19
HETATM   19  C12 UNL     1       8.774  -7.351   8.251  1.00  0.00     0.689 A 
HETATM   20  N4  UNL     1       7.978  -6.898   7.277  1.00  0.00    -0.176 N 
HETATM   21  C13 UNL     1       6.650  -6.734   7.393  1.00  0.00     0.128 A 
ATOM     22  H4  UNL     1       8.408  -6.660   6.384  1.00  0.00     0.186 HD
HETATM   23  C14 UNL     1       6.058  -7.052   8.597  1.00  0.00     0.056 A 
HETATM   24  N6  UNL     1       5.634  -6.265   6.481  1.00  0.00    -0.375 N 
HETATM   25  C15 UNL     1       6.860  -7.524   9.620  1.00  0.00     0.269 A 
HETATM   26  C16 UNL     1       4.599  -6.785   8.460  1.00  0.00     0.068 C 
HETATM   27  O1  UNL     1       6.332  -7.823  10.738  1.00  0.00    -0.267 OA
HETATM   28  N5  UNL     1       8.175  -7.656   9.419  1.00  0.00    -0.155 N 
ATOM     29  H5  UNL     1       8.752  -8.004  10.185  1.00  0.00     0.187 HD
HETATM   30  C17 UNL     1       4.405  -6.834   6.963  1.00  0.00     0.126 C 
ATOM     31  H6  UNL     1       5.761  -5.660   5.669  1.00  0.00     0.161 HD
ENDBRANCH  17  19
ENDBRANCH  15  17
ENDBRANCH   1  15
TORSDOF 6
ENDMDL
MODEL 4
REMARK VINA RESULT: -10.152909310      1.225      1.819
REMARK  6 active torsions:
REMARK  status: ('A' for Active; 'I' for Inactive)
REMARK    1  A    between atoms: C7_7  and  C8_8 
REMARK    2  A    between atoms: C8_8  and  C9_9 
REMARK    3  A    between atoms: C9_9  and  N1_10 
REMARK    4  A    between atoms: N1_10  and  C11_13 
REMARK    5  A    between atoms: C11_13  and  N3_15 
REMARK    6  A    between atoms: N3_15  and  C12_17 
ROOT
HETATM    1  N1  UNL     1      11.505  -9.625   8.824  1.00  0.00    -0.238 N 
HETATM    2  C10 UNL     1      10.929  -9.579  10.110  1.00  0.00     0.190 C 
HETATM    3  N2  UNL     1      10.428  -9.548  11.175  1.00  0.00    -0.171 NA
ENDROOT
BRANCH   1   4
HETATM    4  C9  UNL     1      12.672 -10.384   8.597  1.00  0.00     0.089 C 
BRANCH   4   5
HETATM    5  C8  UNL     1      14.011  -9.890   8.909  1.00  0.00     0.089 C 
BRANCH   5   6
HETATM    6  C7  UNL     1      14.626 -10.169  10.210  1.00  0.00    -0.001 A 
HETATM    7  C5  UNL     1      14.579  -9.223  11.134  1.00  0.00    -0.070 A 
HETATM    8  C4  UNL     1      15.161  -9.400  12.464  1.00  0.00     0.062 A 
HETATM    9  C6  UNL     1      13.906  -7.907  10.827  1.00  0.00     0.044 C 
HETATM   10  C3  UNL     1      15.726 -10.733  12.718  1.00  0.00    -0.012 A 
HETATM   11  C2  UNL     1      15.787 -11.714  11.836  1.00  0.00    -0.015 A 
HETATM   12  C1  UNL     1      16.389 -13.044  12.195  1.00  0.00     0.052 C 
HETATM   13  C18 UNL     1      15.228 -11.457  10.520  1.00  0.00     0.184 A 
HETATM   14  O2  UNL     1      15.279 -12.401   9.656  1.00  0.00    -0.287 OA
ENDBRANCH   5   6
ENDBRANCH   4   5
ENDBRANCH   1   4
BRANCH   1  15
HETATM   15  C11 UNL     1      10.841  -8.878   7.810  1.00  0.00     0.205 C 
HETATM   16  S1  UNL     1      10.799  -9.516   6.316  1.00  0.00    -0.039 SA
BRANCH  15  17
HETATM   17  N3  UNL     1      10.223  -7.625   8.027  1.00  0.00    -0.165 N 
ATOM     18  H3  UNL     1      10.827  -6.804   8.073  1.00  0.00     0.186 HD
BRANCH  17  19
HETATM   19  C12 UNL     1       8.972  -7.443   8.169  1.00  0.00     0.689 A 
HETATM   20  N4  UNL     1       8.144  -6.956   7.239  1.00  0.00    -0.176 N 
HETATM   21  C13 UNL     1       6.824  -6.776   7.413  1.00  0.00     0.128 A 
ATOM     22  H4  UNL     1       8.542  -6.702   6.335  1.00  0.00     0.186 HD
HETATM   23  C14 UNL     1       6.277  -7.116   8.632  1.00  0.00     0.056 A 
HETATM   24  N6  UNL     1       5.780  -6.271   6.554  1.00  0.00    -0.375 N 
HETATM   25  C15 UNL     1       7.112  -7.623   9.611  1.00  0.00     0.269 A 
HETATM   26  C16 UNL     1       4.817  -6.825   8.561  1.00  0.00     0.068 C 
HETATM   27  O1  UNL     1       6.625  -7.942  10.742  1.00  0.00    -0.267 OA
HETATM   28  N5  UNL     1       8.417  -7.768   9.353  1.00  0.00    -0.155 N 
ATOM     29  H5  UNL     1       9.019  -8.142  10.087  1.00  0.00     0.187 HD
HETATM   30  C17 UNL     1       4.563  -6.835   7.072  1.00  0.00     0.126 C 
ATOM     31  H6  UNL     1       5.882  -5.649   5.753  1.00  0.00     0.161 HD
ENDBRANCH  17  19
ENDBRANCH  15  17
ENDBRANCH   1  15
TORSDOF 6
ENDMDL
MODEL 5
REMARK VINA RESULT: -9.846663170      2.493      3.524
REMARK  6 active torsions:
REMARK  status: ('A' for Active; 'I' for Inactive)
REMARK    1  A    between atoms: C7_7  and  C8_8 
REMARK    2  A    between atoms: C8_8  and  C9_9 
REMARK    3  A    between atoms: C9_9  and  N1_10 
REMARK    4  A    between atoms: N1_10  and  C11_13 
REMARK    5  A    between atoms: C11_13  and  N3_15 
REMARK    6  A    between atoms: N3_15  and  C12_17 
ROOT
HETATM    1  N1  UNL     1      12.567  -8.617   9.348  1.00  0.00    -0.238 N 
HETATM    2  C10 UNL     1      13.382  -7.774  10.130  1.00  0.00     0.190 C 
HETATM    3  N2  UNL     1      14.051  -7.077  10.802  1.00  0.00    -0.171 NA
ENDROOT
BRANCH   1   4
HETATM    4  C9  UNL     1      13.148  -9.621   8.545  1.00  0.00     0.089 C 
BRANCH   4   5
HETATM    5  C8  UNL     1      12.662 -10.999   8.524  1.00  0.00     0.089 C 
BRANCH   5   6
HETATM    6  C7  UNL     1      12.537 -11.728   7.259  1.00  0.00    -0.001 A 
HETATM    7  C5  UNL     1      13.405 -12.695   7.011  1.00  0.00    -0.070 A 
HETATM    8  C4  UNL     1      13.366 -13.484   5.781  1.00  0.00     0.062 A 
HETATM    9  C6  UNL     1      14.482 -13.012   8.021  1.00  0.00     0.044 C 
HETATM   10  C3  UNL     1      12.244 -13.174   4.884  1.00  0.00    -0.012 A 
HETATM   11  C2  UNL     1      11.344 -12.229   5.090  1.00  0.00    -0.015 A 
HETATM   12  C1  UNL     1      10.233 -11.989   4.107  1.00  0.00     0.052 C 
HETATM   13  C18 UNL     1      11.465 -11.455   6.313  1.00  0.00     0.184 A 
HETATM   14  O2  UNL     1      10.598 -10.536   6.525  1.00  0.00    -0.287 OA
ENDBRANCH   5   6
ENDBRANCH   4   5
ENDBRANCH   1   4
BRANCH   1  15
HETATM   15  C11 UNL     1      11.163  -8.388   9.430  1.00  0.00     0.205 C 
HETATM   16  S1  UNL     1      10.444  -8.655  10.862  1.00  0.00    -0.039 SA
BRANCH  15  17
HETATM   17  N3  UNL     1      10.370  -7.946   8.347  1.00  0.00    -0.165 N 
ATOM     18  H3  UNL     1      10.829  -7.830   7.443  1.00  0.00     0.186 HD
BRANCH  17  19
HETATM   19  C12 UNL     1       9.127  -7.682   8.412  1.00  0.00     0.689 A 
HETATM   20  N4  UNL     1       8.392  -7.143   7.433  1.00  0.00    -0.176 N 
HETATM   21  C13 UNL     1       7.079  -6.877   7.525  1.00  0.00     0.128 A 
ATOM     22  H4  UNL     1       8.861  -6.918   6.556  1.00  0.00     0.186 HD
HETATM   23  C14 UNL     1       6.436  -7.178   8.707  1.00  0.00     0.056 A 
HETATM   24  N6  UNL     1       6.125  -6.307   6.605  1.00  0.00    -0.375 N 
HETATM   25  C15 UNL     1       7.174  -7.738   9.735  1.00  0.00     0.269 A 
HETATM   26  C16 UNL     1       5.006  -6.793   8.547  1.00  0.00     0.068 C 
HETATM   27  O1  UNL     1       6.598  -8.022  10.832  1.00  0.00    -0.267 OA
HETATM   28  N5  UNL     1       8.479  -7.968   9.558  1.00  0.00    -0.155 N 
ATOM     29  H5  UNL     1       9.009  -8.380  10.327  1.00  0.00     0.187 HD
HETATM   30  C17 UNL     1       4.844  -6.788   7.045  1.00  0.00     0.126 C 
ATOM     31  H6  UNL     1       6.317  -5.694   5.812  1.00  0.00     0.161 HD
ENDBRANCH  17  19
ENDBRANCH  15  17
ENDBRANCH   1  15
TORSDOF 6
ENDMDL
