MODEL 1
REMARK VINA RESULT: -7.942373979      0.000      0.000
REMARK  5 active torsions:
REMARK  status: ('A' for Active; 'I' for Inactive)
REMARK    1  A    between atoms: C6_8  and  N2_9 
REMARK    2  A    between atoms: N2_9  and  S1_11 
REMARK    3  A    between atoms: S1_11  and  C7_14 
REMARK    4  A    between atoms: C8_15  and  N3_16 
REMARK    5  A    between atoms: C12_25  and  C13_26 
ROOT
HETATM    1  C7  UNL     1      10.023  -8.697   9.323  1.00  0.00     0.130 A 
HETATM    2  C8  UNL     1      10.220  -8.659   7.980  1.00  0.00     0.128 A 
HETATM    3  N4  UNL     1       9.341  -7.977   7.191  1.00  0.00    -0.327 N 
ATOM      4  H4  UNL     1       9.497  -7.953   6.183  1.00  0.00     0.169 HD
HETATM    5  C11 UNL     1       8.291  -7.344   7.694  1.00  0.00     0.107 A 
HETATM    6  N5  UNL     1       7.464  -6.705   6.966  1.00  0.00    -0.385 N 
ATOM      7  H51 UNL     1       6.656  -6.218   7.352  1.00  0.00     0.157 HD
ATOM      8  H52 UNL     1       7.637  -6.694   5.961  1.00  0.00     0.157 HD
HETATM    9  C12 UNL     1       8.050  -7.361   9.095  1.00  0.00    -0.003 A 
HETATM   10  C16 UNL     1       8.924  -8.035   9.902  1.00  0.00    -0.025 A 
HETATM   11  C17 UNL     1       8.905  -8.054  11.382  1.00  0.00     0.050 C 
ENDROOT
BRANCH   1  12
HETATM   12  S1  UNL     1      11.082  -9.605  10.341  1.00  0.00     0.280 S 
HETATM   13  O1  UNL     1      11.399 -10.921   9.620  1.00  0.00    -0.200 OA
HETATM   14  O2  UNL     1      10.398 -10.087  11.611  1.00  0.00    -0.200 OA
BRANCH  12  15
HETATM   15  N2  UNL     1      12.546  -8.849  10.652  1.00  0.00    -0.112 N 
ATOM     16  H2  UNL     1      12.512  -7.829  10.652  1.00  0.00     0.197 HD
BRANCH  15  17
HETATM   17  C6  UNL     1      13.699  -9.348  10.890  1.00  0.00     0.692 A 
HETATM   18  N1  UNL     1      14.229  -9.445  12.117  1.00  0.00    -0.195 N 
HETATM   19  C4  UNL     1      15.441 -10.001  12.323  1.00  0.00     0.024 A 
ATOM     20  H1  UNL     1      13.703  -9.089  12.915  1.00  0.00     0.184 HD
HETATM   21  C3  UNL     1      16.186 -10.494  11.281  1.00  0.00     0.050 A 
HETATM   22  C5  UNL     1      15.982 -10.066  13.706  1.00  0.00     0.068 C 
HETATM   23  C2  UNL     1      15.634 -10.392  10.025  1.00  0.00     0.024 A 
HETATM   24  C1  UNL     1      16.396 -10.931   8.852  1.00  0.00     0.068 C 
HETATM   25  N6  UNL     1      14.436  -9.838   9.837  1.00  0.00    -0.195 N 
ATOM     26  H6  UNL     1      14.058  -9.776   8.892  1.00  0.00     0.184 HD
ENDBRANCH  15  17
ENDBRANCH  12  15
ENDBRANCH   1  12
BRANCH   2  27
HETATM   27  N3  UNL     1      11.296  -9.288   7.341  1.00  0.00    -0.375 N 
HETATM   28  C9  UNL     1      11.074 -10.503   6.600  1.00  0.00     0.150 C 
HETATM   29  C10 UNL     1      12.616  -8.725   7.398  1.00  0.00     0.150 C 
ENDBRANCH   2  27
BRANCH   9  30
HETATM   30  C13 UNL     1       6.864  -6.640   9.587  1.00  0.00     0.023 A 
HETATM   31  C14 UNL     1       5.715  -7.266  10.222  1.00  0.00     0.010 A 
HETATM   32  C15 UNL     1       5.563  -6.610   8.848  1.00  0.00     0.010 A 
ENDBRANCH   9  30
TORSDOF 5
ENDMDL
MODEL 2
REMARK VINA RESULT: -7.579945257      3.348      7.255
REMARK  5 active torsions:
REMARK  status: ('A' for Active; 'I' for Inactive)
REMARK    1  A    between atoms: C6_8  and  N2_9 
REMARK    2  A    between atoms: N2_9  and  S1_11 
REMARK    3  A    between atoms: S1_11  and  C7_14 
REMARK    4  A    between atoms: C8_15  and  N3_16 
REMARK    5  A    between atoms: C12_25  and  C13_26 
ROOT
HETATM    1  C7  UNL     1      12.534 -12.236   6.158  1.00  0.00     0.130 A 
HETATM    2  C8  UNL     1      13.747 -12.847   6.164  1.00  0.00     0.128 A 
HETATM    3  N4  UNL     1      14.208 -13.438   5.025  1.00  0.00    -0.327 N 
ATOM      4  H4  UNL     1      15.121 -13.893   5.038  1.00  0.00     0.169 HD
HETATM    5  C11 UNL     1      13.506 -13.438   3.901  1.00  0.00     0.107 A 
HETATM    6  N5  UNL     1      13.927 -13.986   2.831  1.00  0.00    -0.385 N 
ATOM      7  H51 UNL     1      13.387 -13.986   1.966  1.00  0.00     0.157 HD
ATOM      8  H52 UNL     1      14.841 -14.437   2.865  1.00  0.00     0.157 HD
HETATM    9  C12 UNL     1      12.231 -12.809   3.854  1.00  0.00    -0.003 A 
HETATM   10  C16 UNL     1      11.756 -12.206   4.986  1.00  0.00    -0.025 A 
HETATM   11  C17 UNL     1      10.519 -11.401   5.089  1.00  0.00     0.050 C 
ENDROOT
BRANCH   1  12
HETATM   12  S1  UNL     1      11.896 -11.536   7.602  1.00  0.00     0.280 S 
HETATM   13  O1  UNL     1      13.004 -10.681   8.230  1.00  0.00    -0.200 OA
HETATM   14  O2  UNL     1      11.631 -12.571   8.685  1.00  0.00    -0.200 OA
BRANCH  12  15
HETATM   15  N2  UNL     1      10.580 -10.527   7.349  1.00  0.00    -0.112 N 
ATOM     16  H2  UNL     1      10.156 -10.599   6.424  1.00  0.00     0.197 HD
BRANCH  15  17
HETATM   17  C6  UNL     1      10.024  -9.683   8.132  1.00  0.00     0.692 A 
HETATM   18  N1  UNL     1       9.044  -8.852   7.754  1.00  0.00    -0.195 N 
HETATM   19  C4  UNL     1       8.471  -7.992   8.622  1.00  0.00     0.024 A 
ATOM     20  H1  UNL     1       8.723  -8.870   6.786  1.00  0.00     0.184 HD
HETATM   21  C3  UNL     1       8.869  -7.932   9.934  1.00  0.00     0.050 A 
HETATM   22  C5  UNL     1       7.397  -7.083   8.139  1.00  0.00     0.068 C 
HETATM   23  C2  UNL     1       9.875  -8.790  10.314  1.00  0.00     0.024 A 
HETATM   24  C1  UNL     1      10.336  -8.780  11.740  1.00  0.00     0.068 C 
HETATM   25  N6  UNL     1      10.432  -9.632   9.444  1.00  0.00    -0.195 N 
ATOM     26  H6  UNL     1      11.178 -10.253   9.759  1.00  0.00     0.184 HD
ENDBRANCH  15  17
ENDBRANCH  12  15
ENDBRANCH   1  12
BRANCH   2  27
HETATM   27  N3  UNL     1      14.575 -12.906   7.294  1.00  0.00    -0.375 N 
HETATM   28  C9  UNL     1      14.402 -13.969   8.250  1.00  0.00     0.150 C 
HETATM   29  C10 UNL     1      15.608 -11.931   7.499  1.00  0.00     0.150 C 
ENDBRANCH   2  27
BRANCH   9  30
HETATM   30  C13 UNL     1      11.504 -12.847   2.574  1.00  0.00     0.023 A 
HETATM   31  C14 UNL     1      10.055 -12.837   2.441  1.00  0.00     0.010 A 
HETATM   32  C15 UNL     1      10.849 -14.084   2.045  1.00  0.00     0.010 A 
ENDBRANCH   9  30
TORSDOF 5
ENDMDL
MODEL 3
REMARK VINA RESULT: -7.521517168      3.361      7.125
REMARK  5 active torsions:
REMARK  status: ('A' for Active; 'I' for Inactive)
REMARK    1  A    between atoms: C6_8  and  N2_9 
REMARK    2  A    between atoms: N2_9  and  S1_11 
REMARK    3  A    between atoms: S1_11  and  C7_14 
REMARK    4  A    between atoms: C8_15  and  N3_16 
REMARK    5  A    between atoms: C12_25  and  C13_26 
ROOT
HETATM    1  C7  UNL     1      12.624 -12.280   6.194  1.00  0.00     0.130 A 
HETATM    2  C8  UNL     1      13.843 -12.877   6.164  1.00  0.00     0.128 A 
HETATM    3  N4  UNL     1      14.290 -13.436   5.003  1.00  0.00    -0.327 N 
ATOM      4  H4  UNL     1      15.208 -13.882   4.990  1.00  0.00     0.169 HD
HETATM    5  C11 UNL     1      13.568 -13.419   3.892  1.00  0.00     0.107 A 
HETATM    6  N5  UNL     1      13.975 -13.938   2.803  1.00  0.00    -0.385 N 
ATOM      7  H51 UNL     1      13.419 -13.925   1.948  1.00  0.00     0.157 HD
ATOM      8  H52 UNL     1      14.894 -14.380   2.810  1.00  0.00     0.157 HD
HETATM    9  C12 UNL     1      12.285 -12.804   3.883  1.00  0.00    -0.003 A 
HETATM   10  C16 UNL     1      11.824 -12.233   5.037  1.00  0.00    -0.025 A 
HETATM   11  C17 UNL     1      10.580 -11.445   5.181  1.00  0.00     0.050 C 
ENDROOT
BRANCH   1  12
HETATM   12  S1  UNL     1      12.005 -11.621   7.664  1.00  0.00     0.280 S 
HETATM   13  O1  UNL     1      13.137 -10.827   8.328  1.00  0.00    -0.200 OA
HETATM   14  O2  UNL     1      11.706 -12.690   8.704  1.00  0.00    -0.200 OA
BRANCH  12  15
HETATM   15  N2  UNL     1      10.721 -10.562   7.452  1.00  0.00    -0.112 N 
ATOM     16  H2  UNL     1      10.320 -10.557   6.514  1.00  0.00     0.197 HD
BRANCH  15  17
HETATM   17  C6  UNL     1      10.166  -9.761   8.280  1.00  0.00     0.692 A 
HETATM   18  N1  UNL     1      10.509  -9.671   9.572  1.00  0.00    -0.195 N 
HETATM   19  C4  UNL     1       9.910  -8.793  10.404  1.00  0.00     0.024 A 
ATOM     20  H1  UNL     1      11.240 -10.281   9.935  1.00  0.00     0.184 HD
HETATM   21  C3  UNL     1       8.921  -7.951   9.960  1.00  0.00     0.050 A 
HETATM   22  C5  UNL     1      10.323  -8.751  11.831  1.00  0.00     0.068 C 
HETATM   23  C2  UNL     1       8.577  -8.049   8.631  1.00  0.00     0.024 A 
HETATM   24  C1  UNL     1       7.515  -7.139   8.089  1.00  0.00     0.068 C 
HETATM   25  N6  UNL     1       9.176  -8.922   7.823  1.00  0.00    -0.195 N 
ATOM     26  H6  UNL     1       8.894  -8.970   6.844  1.00  0.00     0.184 HD
ENDBRANCH  15  17
ENDBRANCH  12  15
ENDBRANCH   1  12
BRANCH   2  27
HETATM   27  N3  UNL     1      14.692 -12.952   7.277  1.00  0.00    -0.375 N 
HETATM   28  C9  UNL     1      14.543 -14.034   8.215  1.00  0.00     0.150 C 
HETATM   29  C10 UNL     1      15.724 -11.974   7.480  1.00  0.00     0.150 C 
ENDBRANCH   2  27
BRANCH   9  30
HETATM   30  C13 UNL     1      11.535 -12.822   2.616  1.00  0.00     0.023 A 
HETATM   31  C14 UNL     1      10.085 -12.865   2.510  1.00  0.00     0.010 A 
HETATM   32  C15 UNL     1      10.919 -14.062   2.051  1.00  0.00     0.010 A 
ENDBRANCH   9  30
TORSDOF 5
ENDMDL
MODEL 4
REMARK VINA RESULT: -7.502346062      3.701      6.747
REMARK  5 active torsions:
REMARK  status: ('A' for Active; 'I' for Inactive)
REMARK    1  A    between atoms: C6_8  and  N2_9 
REMARK    2  A    between atoms: N2_9  and  S1_11 
REMARK    3  A    between atoms: S1_11  and  C7_14 
REMARK    4  A    between atoms: C8_15  and  N3_16 
REMARK    5  A    between atoms: C12_25  and  C13_26 
ROOT
HETATM    1  C7  UNL     1      12.520 -12.385   5.722  1.00  0.00     0.130 A 
HETATM    2  C8  UNL     1      13.738 -12.984   5.746  1.00  0.00     0.128 A 
HETATM    3  N4  UNL     1      14.214 -13.588   4.619  1.00  0.00    -0.327 N 
ATOM      4  H4  UNL     1      15.130 -14.035   4.646  1.00  0.00     0.169 HD
HETATM    5  C11 UNL     1      13.520 -13.611   3.490  1.00  0.00     0.107 A 
HETATM    6  N5  UNL     1      13.954 -14.171   2.432  1.00  0.00    -0.385 N 
ATOM      7  H51 UNL     1      13.421 -14.189   1.563  1.00  0.00     0.157 HD
ATOM      8  H52 UNL     1      14.872 -14.613   2.480  1.00  0.00     0.157 HD
HETATM    9  C12 UNL     1      12.240 -12.994   3.424  1.00  0.00    -0.003 A 
HETATM   10  C16 UNL     1      11.751 -12.380   4.544  1.00  0.00    -0.025 A 
HETATM   11  C17 UNL     1      10.505 -11.585   4.626  1.00  0.00     0.050 C 
ENDROOT
BRANCH   1  12
HETATM   12  S1  UNL     1      11.865 -11.670   7.150  1.00  0.00     0.280 S 
HETATM   13  O1  UNL     1      11.861 -12.743   8.246  1.00  0.00    -0.200 OA
HETATM   14  O2  UNL     1      10.386 -11.341   7.013  1.00  0.00    -0.200 OA
BRANCH  12  15
HETATM   15  N2  UNL     1      12.754 -10.374   7.736  1.00  0.00    -0.112 N 
ATOM     16  H2  UNL     1      13.567 -10.121   7.172  1.00  0.00     0.197 HD
BRANCH  15  17
HETATM   17  C6  UNL     1      12.575  -9.652   8.776  1.00  0.00     0.692 A 
HETATM   18  N1  UNL     1      13.463  -8.751   9.218  1.00  0.00    -0.195 N 
HETATM   19  C4  UNL     1      13.221  -7.995  10.309  1.00  0.00     0.024 A 
ATOM     20  H1  UNL     1      14.344  -8.634   8.717  1.00  0.00     0.184 HD
HETATM   21  C3  UNL     1      12.050  -8.115  11.014  1.00  0.00     0.050 A 
HETATM   22  C5  UNL     1      14.252  -7.023  10.759  1.00  0.00     0.068 C 
HETATM   23  C2  UNL     1      11.143  -9.042  10.553  1.00  0.00     0.024 A 
HETATM   24  C1  UNL     1       9.839  -9.202  11.275  1.00  0.00     0.068 C 
HETATM   25  N6  UNL     1      11.398  -9.782   9.475  1.00  0.00    -0.195 N 
ATOM     26  H6  UNL     1      10.704 -10.462   9.162  1.00  0.00     0.184 HD
ENDBRANCH  15  17
ENDBRANCH  12  15
ENDBRANCH   1  12
BRANCH   2  27
HETATM   27  N3  UNL     1      14.558 -13.019   6.883  1.00  0.00    -0.375 N 
HETATM   28  C9  UNL     1      14.480 -14.139   7.784  1.00  0.00     0.150 C 
HETATM   29  C10 UNL     1      15.491 -11.960   7.148  1.00  0.00     0.150 C 
ENDBRANCH   2  27
BRANCH   9  30
HETATM   30  C13 UNL     1      11.523 -13.059   2.140  1.00  0.00     0.023 A 
HETATM   31  C14 UNL     1      10.086 -12.893   1.982  1.00  0.00     0.010 A 
HETATM   32  C15 UNL     1      10.732 -14.252   1.707  1.00  0.00     0.010 A 
ENDBRANCH   9  30
TORSDOF 5
ENDMDL
MODEL 5
REMARK VINA RESULT: -7.372168645      3.683      6.760
REMARK  5 active torsions:
REMARK  status: ('A' for Active; 'I' for Inactive)
REMARK    1  A    between atoms: C6_8  and  N2_9 
REMARK    2  A    between atoms: N2_9  and  S1_11 
REMARK    3  A    between atoms: S1_11  and  C7_14 
REMARK    4  A    between atoms: C8_15  and  N3_16 
REMARK    5  A    between atoms: C12_25  and  C13_26 
ROOT
HETATM    1  C7  UNL     1      12.518 -12.345   5.742  1.00  0.00     0.130 A 
HETATM    2  C8  UNL     1      13.740 -12.926   5.848  1.00  0.00     0.128 A 
HETATM    3  N4  UNL     1      14.285 -13.549   4.764  1.00  0.00    -0.327 N 
ATOM      4  H4  UNL     1      15.204 -13.983   4.852  1.00  0.00     0.169 HD
HETATM    5  C11 UNL     1      13.655 -13.608   3.599  1.00  0.00     0.107 A 
HETATM    6  N5  UNL     1      14.154 -14.187   2.580  1.00  0.00    -0.385 N 
ATOM      7  H51 UNL     1      13.670 -14.232   1.684  1.00  0.00     0.157 HD
ATOM      8  H52 UNL     1      15.073 -14.615   2.689  1.00  0.00     0.157 HD
HETATM    9  C12 UNL     1      12.373 -13.011   3.448  1.00  0.00    -0.003 A 
HETATM   10  C16 UNL     1      11.815 -12.377   4.524  1.00  0.00    -0.025 A 
HETATM   11  C17 UNL     1      10.557 -11.597   4.518  1.00  0.00     0.050 C 
ENDROOT
BRANCH   1  12
HETATM   12  S1  UNL     1      11.776 -11.605   7.114  1.00  0.00     0.280 S 
HETATM   13  O1  UNL     1      11.754 -12.643   8.244  1.00  0.00    -0.200 OA
HETATM   14  O2  UNL     1      10.296 -11.328   6.899  1.00  0.00    -0.200 OA
BRANCH  12  15
HETATM   15  N2  UNL     1      12.597 -10.263   7.696  1.00  0.00    -0.112 N 
ATOM     16  H2  UNL     1      13.393  -9.968   7.130  1.00  0.00     0.197 HD
BRANCH  15  17
HETATM   17  C6  UNL     1      12.384  -9.551   8.737  1.00  0.00     0.692 A 
HETATM   18  N1  UNL     1      11.246  -9.589   9.443  1.00  0.00    -0.195 N 
HETATM   19  C4  UNL     1      11.074  -8.835  10.549  1.00  0.00     0.024 A 
ATOM     20  H1  UNL     1      10.492 -10.203   9.137  1.00  0.00     0.184 HD
HETATM   21  C3  UNL     1      12.061  -7.995  11.000  1.00  0.00     0.050 A 
HETATM   22  C5  UNL     1       9.783  -8.910  11.282  1.00  0.00     0.068 C 
HETATM   23  C2  UNL     1      13.226  -7.963  10.269  1.00  0.00     0.024 A 
HETATM   24  C1  UNL     1      14.344  -7.076  10.727  1.00  0.00     0.068 C 
HETATM   25  N6  UNL     1      13.380  -8.712   9.178  1.00  0.00    -0.195 N 
ATOM     26  H6  UNL     1      14.257  -8.662   8.658  1.00  0.00     0.184 HD
ENDBRANCH  15  17
ENDBRANCH  12  15
ENDBRANCH   1  12
BRANCH   2  27
HETATM   27  N3  UNL     1      14.496 -12.923   7.028  1.00  0.00    -0.375 N 
HETATM   28  C9  UNL     1      14.396 -14.032   7.942  1.00  0.00     0.150 C 
HETATM   29  C10 UNL     1      15.386 -11.837   7.327  1.00  0.00     0.150 C 
ENDBRANCH   2  27
BRANCH   9  30
HETATM   30  C13 UNL     1      11.729 -13.115   2.128  1.00  0.00     0.023 A 
HETATM   31  C14 UNL     1      10.324 -12.842   1.865  1.00  0.00     0.010 A 
HETATM   32  C15 UNL     1      10.863 -14.268   1.732  1.00  0.00     0.010 A 
ENDBRANCH   9  30
TORSDOF 5
ENDMDL
