MODEL 1
REMARK VINA RESULT: -6.883273888      0.000      0.000
REMARK  7 active torsions:
REMARK  status: ('A' for Active; 'I' for Inactive)
REMARK    1  A    between atoms: C2_2  and  C3_3 
REMARK       I    between atoms: C3_3  and  N1_5 
REMARK    2  A    between atoms: N1_5  and  C4_7 
REMARK    3  A    between atoms: C13_18  and  O2_19 
REMARK    4  A    between atoms: N3_23  and  C16_24 
REMARK    5  A    between atoms: C16_24  and  C17_25 
REMARK    6  A    between atoms: C17_25  and  C18_26 
REMARK    7  A    between atoms: C18_26  and  N4_27 
ROOT
HETATM    1  C4  UNL     1       8.448  -7.255   8.081  1.00  0.00     0.098 A 
HETATM    2  S1  UNL     1       7.438  -6.791   6.784  1.00  0.00    -0.075 SA
HETATM    3  C5  UNL     1       6.003  -6.510   7.649  1.00  0.00    -0.007 A 
HETATM    4  C6  UNL     1       6.351  -6.786   8.936  1.00  0.00    -0.021 A 
HETATM    5  C7  UNL     1       7.630  -7.178   9.170  1.00  0.00     0.085 A 
HETATM    6  C8  UNL     1       8.158  -7.513  10.516  1.00  0.00     0.103 C 
HETATM    7  N2  UNL     1       8.558  -7.761  11.576  1.00  0.00    -0.191 NA
HETATM    8  C9  UNL     1       5.201  -6.601   9.923  1.00  0.00     0.041 C 
HETATM    9  C10 UNL     1       4.071  -7.434   9.360  1.00  0.00     0.005 C 
HETATM   10  C11 UNL     1       3.596  -6.910   8.028  1.00  0.00     0.005 C 
HETATM   11  C12 UNL     1       4.594  -6.069   7.317  1.00  0.00     0.047 C 
ENDROOT
BRANCH   1  12
HETATM   12  N1  UNL     1       9.843  -7.642   8.051  1.00  0.00    -0.318 N 
HETATM   13  C3  UNL     1      10.201  -9.016   8.072  1.00  0.00     0.262 C 
HETATM   14  O1  UNL     1       9.244  -9.834   8.114  1.00  0.00    -0.270 OA
ATOM     15  H1  UNL     1      10.569  -6.926   8.016  1.00  0.00     0.169 HD
BRANCH  13  16
HETATM   16  C2  UNL     1      11.627  -9.408   8.042  1.00  0.00     0.236 C 
HETATM   17  C1  UNL     1      12.354  -8.894   6.853  1.00  0.00     0.061 C 
HETATM   18  C13 UNL     1      12.265  -8.963   9.354  1.00  0.00     0.103 C 
HETATM   19  C14 UNL     1      13.619  -9.581   9.193  1.00  0.00     0.069 C 
HETATM   20  C20 UNL     1      11.447  -9.762  10.310  1.00  0.00     0.069 C 
HETATM   21  C15 UNL     1      13.279 -10.864   8.417  1.00  0.00     0.242 C 
HETATM   22  N3  UNL     1      11.826 -10.838   8.232  1.00  0.00    -0.046 N 
HETATM   23  C19 UNL     1      11.287 -11.078   9.533  1.00  0.00     0.242 C 
BRANCH  18  24
HETATM   24  O2  UNL     1      12.255  -7.619   9.540  1.00  0.00    -0.387 OA
ATOM     25  H2  UNL     1      11.391  -7.262   9.710  1.00  0.00     0.210 HD
ENDBRANCH  18  24
BRANCH  22  26
HETATM   26  C16 UNL     1      11.387 -11.619   7.160  1.00  0.00     0.241 C 
BRANCH  26  27
HETATM   27  C17 UNL     1      12.346 -12.540   6.517  1.00  0.00     0.055 C 
BRANCH  27  28
HETATM   28  C18 UNL     1      12.220 -12.742   5.036  1.00  0.00     0.231 C 
BRANCH  28  29
HETATM   29  N4  UNL     1      11.880 -11.517   4.325  1.00  0.00    -0.079 N 
ATOM     30  H43 UNL     1      11.324 -11.718   3.494  1.00  0.00     0.274 HD
ATOM     31  H42 UNL     1      11.200 -10.967   4.850  1.00  0.00     0.274 HD
ATOM     32  H41 UNL     1      12.699 -10.956   4.090  1.00  0.00     0.274 HD
ENDBRANCH  28  29
ENDBRANCH  27  28
ENDBRANCH  26  27
ENDBRANCH  22  26
ENDBRANCH  13  16
ENDBRANCH   1  12
TORSDOF 7
ENDMDL
MODEL 2
REMARK VINA RESULT: -6.653622068      3.209      5.056
REMARK  7 active torsions:
REMARK  status: ('A' for Active; 'I' for Inactive)
REMARK    1  A    between atoms: C2_2  and  C3_3 
REMARK       I    between atoms: C3_3  and  N1_5 
REMARK    2  A    between atoms: N1_5  and  C4_7 
REMARK    3  A    between atoms: C13_18  and  O2_19 
REMARK    4  A    between atoms: N3_23  and  C16_24 
REMARK    5  A    between atoms: C16_24  and  C17_25 
REMARK    6  A    between atoms: C17_25  and  C18_26 
REMARK    7  A    between atoms: C18_26  and  N4_27 
ROOT
HETATM    1  C4  UNL     1      12.349 -10.261   8.259  1.00  0.00     0.098 A 
HETATM    2  S1  UNL     1      10.849 -10.074   7.466  1.00  0.00    -0.075 SA
HETATM    3  C5  UNL     1       9.996  -9.265   8.693  1.00  0.00    -0.007 A 
HETATM    4  C6  UNL     1      10.910  -9.161   9.697  1.00  0.00    -0.021 A 
HETATM    5  C7  UNL     1      12.145  -9.681   9.478  1.00  0.00     0.085 A 
HETATM    6  C8  UNL     1      13.245  -9.646  10.474  1.00  0.00     0.103 C 
HETATM    7  N2  UNL     1      14.097  -9.599  11.259  1.00  0.00    -0.191 NA
HETATM    8  C9  UNL     1      10.365  -8.455  10.936  1.00  0.00     0.041 C 
HETATM    9  C10 UNL     1       9.098  -9.204  11.282  1.00  0.00     0.005 C 
HETATM   10  C11 UNL     1       8.053  -9.071  10.203  1.00  0.00     0.005 C 
HETATM   11  C12 UNL     1       8.601  -8.708   8.870  1.00  0.00     0.047 C 
ENDROOT
BRANCH   1  12
HETATM   12  N1  UNL     1      13.562 -10.884   7.773  1.00  0.00    -0.318 N 
HETATM   13  C3  UNL     1      13.682 -12.300   7.768  1.00  0.00     0.262 C 
HETATM   14  O1  UNL     1      12.688 -12.938   8.202  1.00  0.00    -0.270 OA
ATOM     15  H1  UNL     1      14.331 -10.306   7.433  1.00  0.00     0.169 HD
BRANCH  13  16
HETATM   16  C2  UNL     1      14.923 -12.934   7.270  1.00  0.00     0.236 C 
HETATM   17  C1  UNL     1      16.064 -11.989   7.161  1.00  0.00     0.061 C 
HETATM   18  C13 UNL     1      15.236 -14.126   8.169  1.00  0.00     0.103 C 
HETATM   19  C14 UNL     1      16.396 -14.704   7.418  1.00  0.00     0.069 C 
HETATM   20  C20 UNL     1      14.013 -14.943   7.931  1.00  0.00     0.069 C 
HETATM   21  C15 UNL     1      16.007 -14.386   5.965  1.00  0.00     0.242 C 
HETATM   22  N3  UNL     1      14.719 -13.693   6.045  1.00  0.00    -0.046 N 
HETATM   23  C19 UNL     1      13.784 -14.702   6.431  1.00  0.00     0.242 C 
BRANCH  18  24
HETATM   24  O2  UNL     1      15.485 -13.788   9.459  1.00  0.00    -0.387 OA
ATOM     25  H2  UNL     1      15.863 -12.923   9.563  1.00  0.00     0.210 HD
ENDBRANCH  18  24
BRANCH  22  26
HETATM   26  C16 UNL     1      14.443 -12.902   4.927  1.00  0.00     0.241 C 
BRANCH  26  27
HETATM   27  C17 UNL     1      13.593 -13.461   3.857  1.00  0.00     0.055 C 
BRANCH  27  28
HETATM   28  C18 UNL     1      12.433 -12.631   3.394  1.00  0.00     0.231 C 
BRANCH  28  29
HETATM   29  N4  UNL     1      12.009 -11.650   4.384  1.00  0.00    -0.079 N 
ATOM     30  H43 UNL     1      11.415 -10.936   3.961  1.00  0.00     0.274 HD
ATOM     31  H42 UNL     1      11.340 -12.057   5.037  1.00  0.00     0.274 HD
ATOM     32  H41 UNL     1      12.792 -11.226   4.880  1.00  0.00     0.274 HD
ENDBRANCH  28  29
ENDBRANCH  27  28
ENDBRANCH  26  27
ENDBRANCH  22  26
ENDBRANCH  13  16
ENDBRANCH   1  12
TORSDOF 7
ENDMDL
MODEL 3
REMARK VINA RESULT: -6.641541432      3.623      5.919
REMARK  7 active torsions:
REMARK  status: ('A' for Active; 'I' for Inactive)
REMARK    1  A    between atoms: C2_2  and  C3_3 
REMARK       I    between atoms: C3_3  and  N1_5 
REMARK    2  A    between atoms: N1_5  and  C4_7 
REMARK    3  A    between atoms: C13_18  and  O2_19 
REMARK    4  A    between atoms: N3_23  and  C16_24 
REMARK    5  A    between atoms: C16_24  and  C17_25 
REMARK    6  A    between atoms: C17_25  and  C18_26 
REMARK    7  A    between atoms: C18_26  and  N4_27 
ROOT
HETATM    1  C4  UNL     1      12.380 -10.787   7.843  1.00  0.00     0.098 A 
HETATM    2  S1  UNL     1      10.750 -10.429   7.480  1.00  0.00    -0.075 SA
HETATM    3  C5  UNL     1      10.410  -9.383   8.775  1.00  0.00    -0.007 A 
HETATM    4  C6  UNL     1      11.584  -9.338   9.462  1.00  0.00    -0.021 A 
HETATM    5  C7  UNL     1      12.621 -10.072   8.980  1.00  0.00     0.085 A 
HETATM    6  C8  UNL     1      13.961 -10.127   9.617  1.00  0.00     0.103 C 
HETATM    7  N2  UNL     1      15.005 -10.149  10.121  1.00  0.00    -0.191 NA
HETATM    8  C9  UNL     1      11.526  -8.442  10.696  1.00  0.00     0.041 C 
HETATM    9  C10 UNL     1      10.331  -8.939  11.478  1.00  0.00     0.005 C 
HETATM   10  C11 UNL     1       9.041  -8.735  10.724  1.00  0.00     0.005 C 
HETATM   11  C12 UNL     1       9.214  -8.590   9.255  1.00  0.00     0.047 C 
ENDROOT
BRANCH   1  12
HETATM   12  N1  UNL     1      13.303 -11.643   7.128  1.00  0.00    -0.318 N 
HETATM   13  C3  UNL     1      13.353 -13.033   7.416  1.00  0.00     0.262 C 
HETATM   14  O1  UNL     1      12.562 -13.440   8.306  1.00  0.00    -0.270 OA
ATOM     15  H1  UNL     1      13.917 -11.247   6.416  1.00  0.00     0.169 HD
BRANCH  13  16
HETATM   16  C2  UNL     1      14.298 -13.905   6.683  1.00  0.00     0.236 C 
HETATM   17  C1  UNL     1      13.691 -14.565   5.499  1.00  0.00     0.061 C 
HETATM   18  C13 UNL     1      15.524 -13.072   6.323  1.00  0.00     0.103 C 
HETATM   19  C14 UNL     1      16.395 -14.149   5.752  1.00  0.00     0.069 C 
HETATM   20  C20 UNL     1      15.988 -12.709   7.691  1.00  0.00     0.069 C 
HETATM   21  C15 UNL     1      15.995 -15.355   6.617  1.00  0.00     0.242 C 
HETATM   22  N3  UNL     1      14.984 -14.852   7.550  1.00  0.00    -0.046 N 
HETATM   23  C19 UNL     1      15.705 -14.013   8.454  1.00  0.00     0.242 C 
BRANCH  18  24
HETATM   24  O2  UNL     1      15.257 -12.035   5.490  1.00  0.00    -0.387 OA
ATOM     25  H2  UNL     1      14.353 -11.742   5.520  1.00  0.00     0.210 HD
ENDBRANCH  18  24
BRANCH  22  26
HETATM   26  C16 UNL     1      14.155 -15.852   8.065  1.00  0.00     0.241 C 
BRANCH  26  27
HETATM   27  C17 UNL     1      14.570 -16.549   9.299  1.00  0.00     0.055 C 
BRANCH  27  28
HETATM   28  C18 UNL     1      13.632 -16.499  10.467  1.00  0.00     0.231 C 
BRANCH  28  29
HETATM   29  N4  UNL     1      12.278 -16.118  10.089  1.00  0.00    -0.079 N 
ATOM     30  H43 UNL     1      11.812 -15.622  10.849  1.00  0.00     0.274 HD
ATOM     31  H42 UNL     1      12.290 -15.376   9.390  1.00  0.00     0.274 HD
ATOM     32  H41 UNL     1      11.718 -16.909   9.772  1.00  0.00     0.274 HD
ENDBRANCH  28  29
ENDBRANCH  27  28
ENDBRANCH  26  27
ENDBRANCH  22  26
ENDBRANCH  13  16
ENDBRANCH   1  12
TORSDOF 7
ENDMDL
MODEL 4
REMARK VINA RESULT: -6.097864589      6.217     10.124
REMARK  7 active torsions:
REMARK  status: ('A' for Active; 'I' for Inactive)
REMARK    1  A    between atoms: C2_2  and  C3_3 
REMARK       I    between atoms: C3_3  and  N1_5 
REMARK    2  A    between atoms: N1_5  and  C4_7 
REMARK    3  A    between atoms: C13_18  and  O2_19 
REMARK    4  A    between atoms: N3_23  and  C16_24 
REMARK    5  A    between atoms: C16_24  and  C17_25 
REMARK    6  A    between atoms: C17_25  and  C18_26 
REMARK    7  A    between atoms: C18_26  and  N4_27 
ROOT
HETATM    1  C4  UNL     1       3.845  -5.531   6.112  1.00  0.00     0.098 A 
HETATM    2  S1  UNL     1       5.452  -6.087   5.951  1.00  0.00    -0.075 SA
HETATM    3  C5  UNL     1       5.639  -6.810   7.477  1.00  0.00    -0.007 A 
HETATM    4  C6  UNL     1       4.436  -6.598   8.077  1.00  0.00    -0.021 A 
HETATM    5  C7  UNL     1       3.490  -5.928   7.368  1.00  0.00     0.085 A 
HETATM    6  C8  UNL     1       2.133  -5.621   7.885  1.00  0.00     0.103 C 
HETATM    7  N2  UNL     1       1.073  -5.399   8.301  1.00  0.00    -0.191 NA
HETATM    8  C9  UNL     1       4.358  -7.170   9.490  1.00  0.00     0.041 C 
HETATM    9  C10 UNL     1       5.556  -6.589  10.208  1.00  0.00     0.005 C 
HETATM   10  C11 UNL     1       6.856  -7.066   9.610  1.00  0.00     0.005 C 
HETATM   11  C12 UNL     1       6.738  -7.549   8.209  1.00  0.00     0.047 C 
ENDROOT
BRANCH   1  12
HETATM   12  N1  UNL     1       3.034  -4.808   5.155  1.00  0.00    -0.318 N 
HETATM   13  C3  UNL     1       2.122  -5.508   4.321  1.00  0.00     0.262 C 
HETATM   14  O1  UNL     1       2.080  -6.757   4.478  1.00  0.00    -0.270 OA
ATOM     15  H1  UNL     1       3.118  -3.794   5.080  1.00  0.00     0.169 HD
BRANCH  13  16
HETATM   16  C2  UNL     1       1.295  -4.766   3.343  1.00  0.00     0.236 C 
HETATM   17  C1  UNL     1       0.021  -4.261   3.915  1.00  0.00     0.061 C 
HETATM   18  C13 UNL     1       2.153  -3.652   2.752  1.00  0.00     0.103 C 
HETATM   19  C14 UNL     1       1.210  -3.145   1.704  1.00  0.00     0.069 C 
HETATM   20  C20 UNL     1       3.225  -4.473   2.123  1.00  0.00     0.069 C 
HETATM   21  C15 UNL     1       0.496  -4.440   1.284  1.00  0.00     0.242 C 
HETATM   22  N3  UNL     1       1.089  -5.500   2.103  1.00  0.00    -0.046 N 
HETATM   23  C19 UNL     1       2.412  -5.663   1.590  1.00  0.00     0.242 C 
BRANCH  18  24
HETATM   24  O2  UNL     1       2.562  -2.734   3.662  1.00  0.00    -0.387 OA
ATOM     25  H2  UNL     1       2.380  -1.836   3.410  1.00  0.00     0.210 HD
ENDBRANCH  18  24
BRANCH  22  26
HETATM   26  C16 UNL     1       0.269  -6.623   2.238  1.00  0.00     0.241 C 
BRANCH  26  27
HETATM   27  C17 UNL     1       0.255  -7.623   1.152  1.00  0.00     0.055 C 
BRANCH  27  28
HETATM   28  C18 UNL     1       0.681  -9.020   1.496  1.00  0.00     0.231 C 
BRANCH  28  29
HETATM   29  N4  UNL     1       1.214  -9.132   2.847  1.00  0.00    -0.079 N 
ATOM     30  H43 UNL     1       1.930  -8.425   3.017  1.00  0.00     0.274 HD
ATOM     31  H42 UNL     1       0.523  -8.837   3.537  1.00  0.00     0.274 HD
ATOM     32  H41 UNL     1       1.565 -10.065   3.057  1.00  0.00     0.274 HD
ENDBRANCH  28  29
ENDBRANCH  27  28
ENDBRANCH  26  27
ENDBRANCH  22  26
ENDBRANCH  13  16
ENDBRANCH   1  12
TORSDOF 7
ENDMDL
MODEL 5
REMARK VINA RESULT: -6.087177471      5.111      9.187
REMARK  7 active torsions:
REMARK  status: ('A' for Active; 'I' for Inactive)
REMARK    1  A    between atoms: C2_2  and  C3_3 
REMARK       I    between atoms: C3_3  and  N1_5 
REMARK    2  A    between atoms: N1_5  and  C4_7 
REMARK    3  A    between atoms: C13_18  and  O2_19 
REMARK    4  A    between atoms: N3_23  and  C16_24 
REMARK    5  A    between atoms: C16_24  and  C17_25 
REMARK    6  A    between atoms: C17_25  and  C18_26 
REMARK    7  A    between atoms: C18_26  and  N4_27 
ROOT
HETATM    1  C4  UNL     1       4.949  -6.062   6.992  1.00  0.00     0.098 A 
HETATM    2  S1  UNL     1       6.585  -6.171   6.514  1.00  0.00    -0.075 SA
HETATM    3  C5  UNL     1       7.174  -7.124   7.791  1.00  0.00    -0.007 A 
HETATM    4  C6  UNL     1       6.072  -7.335   8.562  1.00  0.00    -0.021 A 
HETATM    5  C7  UNL     1       4.902  -6.781   8.151  1.00  0.00     0.085 A 
HETATM    6  C8  UNL     1       3.619  -6.920   8.883  1.00  0.00     0.103 C 
HETATM    7  N2  UNL     1       2.622  -7.049   9.462  1.00  0.00    -0.191 NA
HETATM    8  C9  UNL     1       6.356  -8.185   9.797  1.00  0.00     0.041 C 
HETATM    9  C10 UNL     1       7.511  -7.493  10.486  1.00  0.00     0.005 C 
HETATM   10  C11 UNL     1       8.761  -7.511   9.642  1.00  0.00     0.005 C 
HETATM   11  C12 UNL     1       8.510  -7.712   8.190  1.00  0.00     0.047 C 
ENDROOT
BRANCH   1  12
HETATM   12  N1  UNL     1       3.855  -5.374   6.337  1.00  0.00    -0.318 N 
HETATM   13  C3  UNL     1       2.905  -6.108   5.579  1.00  0.00     0.262 C 
HETATM   14  O1  UNL     1       3.085  -7.353   5.527  1.00  0.00    -0.270 OA
ATOM     15  H1  UNL     1       3.768  -4.361   6.421  1.00  0.00     0.169 HD
BRANCH  13  16
HETATM   16  C2  UNL     1       1.789  -5.402   4.911  1.00  0.00     0.236 C 
HETATM   17  C1  UNL     1       0.535  -5.398   5.707  1.00  0.00     0.061 C 
HETATM   18  C13 UNL     1       2.264  -3.996   4.561  1.00  0.00     0.103 C 
HETATM   19  C14 UNL     1       1.081  -3.525   3.773  1.00  0.00     0.069 C 
HETATM   20  C20 UNL     1       3.388  -4.336   3.644  1.00  0.00     0.069 C 
HETATM   21  C15 UNL     1       0.630  -4.826   3.091  1.00  0.00     0.242 C 
HETATM   22  N3  UNL     1       1.570  -5.854   3.545  1.00  0.00    -0.046 N 
HETATM   23  C19 UNL     1       2.801  -5.539   2.890  1.00  0.00     0.242 C 
BRANCH  18  24
HETATM   24  O2  UNL     1       2.585  -3.242   5.642  1.00  0.00    -0.387 OA
ATOM     25  H2  UNL     1       3.350  -2.694   5.514  1.00  0.00     0.210 HD
ENDBRANCH  18  24
BRANCH  22  26
HETATM   26  C16 UNL     1       1.063  -7.152   3.450  1.00  0.00     0.241 C 
BRANCH  26  27
HETATM   27  C17 UNL     1       1.672  -8.081   2.477  1.00  0.00     0.055 C 
BRANCH  27  28
HETATM   28  C18 UNL     1       1.911  -9.492   2.927  1.00  0.00     0.231 C 
BRANCH  28  29
HETATM   29  N4  UNL     1       1.484  -9.727   4.300  1.00  0.00    -0.079 N 
ATOM     30  H43 UNL     1       2.275  -9.990   4.889  1.00  0.00     0.274 HD
ATOM     31  H42 UNL     1       1.222  -8.853   4.755  1.00  0.00     0.274 HD
ATOM     32  H41 UNL     1       0.734 -10.414   4.368  1.00  0.00     0.274 HD
ENDBRANCH  28  29
ENDBRANCH  27  28
ENDBRANCH  26  27
ENDBRANCH  22  26
ENDBRANCH  13  16
ENDBRANCH   1  12
TORSDOF 7
ENDMDL
