MODEL 1
REMARK VINA RESULT: -7.643073354      0.000      0.000
REMARK  7 active torsions:
REMARK  status: ('A' for Active; 'I' for Inactive)
REMARK    1  A    between atoms: C2_2  and  N1_3 
REMARK    2  A    between atoms: N2_6  and  C5_7 
REMARK    3  A    between atoms: C5_7  and  C6_8 
REMARK    4  A    between atoms: C12_14  and  O1_15 
REMARK    5  A    between atoms: C16_20  and  C17_21 
REMARK    6  A    between atoms: C17_21  and  O2_22 
REMARK    7  A    between atoms: C18_24  and  O3_25 
ROOT
HETATM    1  C6  UNL     1       1.845  -6.398   5.815  1.00  0.00    -0.062 C 
HETATM    2  C7  UNL     1       2.106  -7.543   5.195  1.00  0.00    -0.021 C 
HETATM    3  C8  UNL     1       1.566  -7.510   3.775  1.00  0.00     0.033 C 
HETATM    4  C9  UNL     1       1.729  -6.028   3.544  1.00  0.00     0.002 C 
HETATM    5  C10 UNL     1       1.088  -5.566   4.839  1.00  0.00     0.023 C 
HETATM    6  C11 UNL     1       1.301  -4.104   4.910  1.00  0.00     0.042 C 
HETATM    7  C12 UNL     1       0.432  -3.524   3.810  1.00  0.00     0.127 C 
HETATM    8  C13 UNL     1       0.727  -4.026   2.459  1.00  0.00    -0.013 C 
HETATM    9  C14 UNL     1       1.789  -3.114   1.842  1.00  0.00     0.018 C 
HETATM   10  C15 UNL     1      -0.520  -3.829   1.591  1.00  0.00     0.021 C 
HETATM   11  C16 UNL     1      -0.283  -4.393   0.204  1.00  0.00     0.039 C 
HETATM   12  C18 UNL     1      -0.121  -5.877   0.284  1.00  0.00     0.124 C 
HETATM   13  C19 UNL     1      -0.015  -6.291   1.744  1.00  0.00     0.038 C 
HETATM   14  C20 UNL     1       1.127  -5.467   2.334  1.00  0.00     0.003 C 
ENDROOT
BRANCH   1  15
HETATM   15  C5  UNL     1       2.182  -5.988   7.206  1.00  0.00     0.151 C 
BRANCH  15  16
HETATM   16  N2  UNL     1       3.481  -6.378   7.596  1.00  0.00    -0.406 N 
HETATM   17  C4  UNL     1       3.658  -6.968   8.866  1.00  0.00     0.137 C 
HETATM   18  C3  UNL     1       5.078  -6.648   9.361  1.00  0.00     0.141 C 
HETATM   19  N1  UNL     1       6.010  -7.057   8.388  1.00  0.00    -0.391 N 
HETATM   20  C22 UNL     1       5.770  -6.723   7.038  1.00  0.00     0.141 C 
HETATM   21  C21 UNL     1       4.588  -5.747   6.981  1.00  0.00     0.137 C 
BRANCH  19  22
HETATM   22  C2  UNL     1       7.350  -7.208   8.787  1.00  0.00     0.054 C 
HETATM   23  C1  UNL     1       7.445  -7.742  10.189  1.00  0.00     0.054 C 
ENDBRANCH  19  22
ENDBRANCH  15  16
ENDBRANCH   1  15
BRANCH   7  24
HETATM   24  O1  UNL     1       0.604  -2.132   3.819  1.00  0.00    -0.395 OA
ATOM     25  H1  UNL     1       0.724  -1.861   4.722  1.00  0.00     0.210 HD
ENDBRANCH   7  24
BRANCH  12  26
HETATM   26  O3  UNL     1      -1.169  -6.586  -0.276  1.00  0.00    -0.395 OA
ATOM     27  H3  UNL     1      -1.364  -7.402   0.170  1.00  0.00     0.210 HD
ENDBRANCH  12  26
BRANCH  11  28
HETATM   28  C17 UNL     1      -1.334  -3.940  -0.754  1.00  0.00     0.171 C 
BRANCH  28  29
HETATM   29  O2  UNL     1      -1.151  -4.279  -2.065  1.00  0.00    -0.400 OA
ATOM     30  H2  UNL     1      -1.937  -4.407  -2.584  1.00  0.00     0.209 HD
ENDBRANCH  28  29
ENDBRANCH  11  28
TORSDOF 7
ENDMDL
MODEL 2
REMARK VINA RESULT: -7.176293079      2.022      2.988
REMARK  7 active torsions:
REMARK  status: ('A' for Active; 'I' for Inactive)
REMARK    1  A    between atoms: C2_2  and  N1_3 
REMARK    2  A    between atoms: N2_6  and  C5_7 
REMARK    3  A    between atoms: C5_7  and  C6_8 
REMARK    4  A    between atoms: C12_14  and  O1_15 
REMARK    5  A    between atoms: C16_20  and  C17_21 
REMARK    6  A    between atoms: C17_21  and  O2_22 
REMARK    7  A    between atoms: C18_24  and  O3_25 
ROOT
HETATM    1  C6  UNL     1       2.131  -5.109   5.721  1.00  0.00    -0.062 C 
HETATM    2  C7  UNL     1       2.215  -3.805   5.481  1.00  0.00    -0.021 C 
HETATM    3  C8  UNL     1       2.282  -3.547   3.985  1.00  0.00     0.033 C 
HETATM    4  C9  UNL     1       1.459  -4.733   3.548  1.00  0.00     0.002 C 
HETATM    5  C10 UNL     1       2.175  -5.774   4.389  1.00  0.00     0.023 C 
HETATM    6  C11 UNL     1       1.398  -7.026   4.249  1.00  0.00     0.042 C 
HETATM    7  C12 UNL     1       1.610  -7.464   2.812  1.00  0.00     0.127 C 
HETATM    8  C13 UNL     1       1.196  -6.481   1.799  1.00  0.00    -0.013 C 
HETATM    9  C14 UNL     1      -0.273  -6.744   1.464  1.00  0.00     0.018 C 
HETATM   10  C15 UNL     1       1.959  -6.778   0.503  1.00  0.00     0.021 C 
HETATM   11  C16 UNL     1       1.612  -5.748  -0.553  1.00  0.00     0.039 C 
HETATM   12  C18 UNL     1       2.113  -4.404  -0.131  1.00  0.00     0.124 C 
HETATM   13  C19 UNL     1       2.591  -4.479   1.311  1.00  0.00     0.038 C 
HETATM   14  C20 UNL     1       1.417  -5.032   2.117  1.00  0.00     0.003 C 
ENDROOT
BRANCH   1  15
HETATM   15  C5  UNL     1       2.047  -5.817   7.027  1.00  0.00     0.151 C 
BRANCH  15  16
HETATM   16  N2  UNL     1       3.298  -6.283   7.483  1.00  0.00    -0.406 N 
HETATM   17  C4  UNL     1       3.376  -6.867   8.766  1.00  0.00     0.137 C 
HETATM   18  C3  UNL     1       4.789  -6.630   9.326  1.00  0.00     0.141 C 
HETATM   19  N1  UNL     1       5.738  -7.109   8.403  1.00  0.00    -0.391 N 
HETATM   20  C22 UNL     1       5.585  -6.778   7.040  1.00  0.00     0.141 C 
HETATM   21  C21 UNL     1       4.471  -5.730   6.917  1.00  0.00     0.137 C 
BRANCH  19  22
HETATM   22  C2  UNL     1       7.046  -7.339   8.868  1.00  0.00     0.054 C 
HETATM   23  C1  UNL     1       7.046  -7.741  10.317  1.00  0.00     0.054 C 
ENDBRANCH  19  22
ENDBRANCH  15  16
ENDBRANCH   1  15
BRANCH   7  24
HETATM   24  O1  UNL     1       0.882  -8.646   2.614  1.00  0.00    -0.395 OA
ATOM     25  H1  UNL     1       1.473  -9.377   2.751  1.00  0.00     0.210 HD
ENDBRANCH   7  24
BRANCH  12  26
HETATM   26  O3  UNL     1       3.165  -3.932  -0.895  1.00  0.00    -0.395 OA
ATOM     27  H3  UNL     1       3.765  -3.369  -0.420  1.00  0.00     0.210 HD
ENDBRANCH  12  26
BRANCH  11  28
HETATM   28  C17 UNL     1       2.073  -6.179  -1.906  1.00  0.00     0.171 C 
BRANCH  28  29
HETATM   29  O2  UNL     1       3.366  -6.610  -2.001  1.00  0.00    -0.400 OA
ATOM     30  H2  UNL     1       3.791  -6.495  -2.843  1.00  0.00     0.209 HD
ENDBRANCH  28  29
ENDBRANCH  11  28
TORSDOF 7
ENDMDL
MODEL 3
REMARK VINA RESULT: -7.036489520      7.150     10.475
REMARK  7 active torsions:
REMARK  status: ('A' for Active; 'I' for Inactive)
REMARK    1  A    between atoms: C2_2  and  N1_3 
REMARK    2  A    between atoms: N2_6  and  C5_7 
REMARK    3  A    between atoms: C5_7  and  C6_8 
REMARK    4  A    between atoms: C12_14  and  O1_15 
REMARK    5  A    between atoms: C16_20  and  C17_21 
REMARK    6  A    between atoms: C17_21  and  O2_22 
REMARK    7  A    between atoms: C18_24  and  O3_25 
ROOT
HETATM    1  C6  UNL     1      11.155  -9.750   7.632  1.00  0.00    -0.062 C 
HETATM    2  C7  UNL     1      11.337  -8.832   6.689  1.00  0.00    -0.021 C 
HETATM    3  C8  UNL     1      10.129  -7.914   6.607  1.00  0.00     0.033 C 
HETATM    4  C9  UNL     1       9.732  -7.989   8.060  1.00  0.00     0.002 C 
HETATM    5  C10 UNL     1       9.799  -9.499   8.193  1.00  0.00     0.023 C 
HETATM    6  C11 UNL     1       9.611  -9.797   9.629  1.00  0.00     0.042 C 
HETATM    7  C12 UNL     1       8.166  -9.438   9.923  1.00  0.00     0.127 C 
HETATM    8  C13 UNL     1       7.806  -8.042   9.633  1.00  0.00    -0.013 C 
HETATM    9  C14 UNL     1       8.069  -7.218  10.894  1.00  0.00     0.018 C 
HETATM   10  C15 UNL     1       6.290  -7.972   9.421  1.00  0.00     0.021 C 
HETATM   11  C16 UNL     1       5.880  -6.560   9.055  1.00  0.00     0.039 C 
HETATM   12  C18 UNL     1       6.453  -6.198   7.722  1.00  0.00     0.124 C 
HETATM   13  C19 UNL     1       7.441  -7.273   7.294  1.00  0.00     0.038 C 
HETATM   14  C20 UNL     1       8.447  -7.401   8.436  1.00  0.00     0.003 C 
ENDROOT
BRANCH   1  15
HETATM   15  C5  UNL     1      12.066 -10.848   8.058  1.00  0.00     0.151 C 
BRANCH  15  16
HETATM   16  N2  UNL     1      13.111 -10.403   8.895  1.00  0.00    -0.406 N 
HETATM   17  C4  UNL     1      14.416 -10.887   8.663  1.00  0.00     0.137 C 
HETATM   18  C3  UNL     1      15.181 -10.893   9.998  1.00  0.00     0.141 C 
HETATM   19  N1  UNL     1      15.123  -9.607  10.569  1.00  0.00    -0.391 N 
HETATM   20  C22 UNL     1      13.881  -8.938  10.607  1.00  0.00     0.141 C 
HETATM   21  C21 UNL     1      12.785  -9.925  10.187  1.00  0.00     0.137 C 
BRANCH  19  22
HETATM   22  C2  UNL     1      16.056  -9.295  11.575  1.00  0.00     0.054 C 
HETATM   23  C1  UNL     1      15.571  -9.743  12.926  1.00  0.00     0.054 C 
ENDBRANCH  19  22
ENDBRANCH  15  16
ENDBRANCH   1  15
BRANCH   7  24
HETATM   24  O1  UNL     1       7.931  -9.689  11.283  1.00  0.00    -0.395 OA
ATOM     25  H1  UNL     1       8.138  -8.896  11.763  1.00  0.00     0.210 HD
ENDBRANCH   7  24
BRANCH  12  26
HETATM   26  O3  UNL     1       5.509  -6.075   6.719  1.00  0.00    -0.395 OA
ATOM     27  H3  UNL     1       5.239  -5.180   6.551  1.00  0.00     0.210 HD
ENDBRANCH  12  26
BRANCH  11  28
HETATM   28  C17 UNL     1       4.401  -6.378   9.157  1.00  0.00     0.171 C 
BRANCH  28  29
HETATM   29  O2  UNL     1       3.629  -7.254   8.447  1.00  0.00    -0.400 OA
ATOM     30  H2  UNL     1       3.809  -8.178   8.576  1.00  0.00     0.209 HD
ENDBRANCH  28  29
ENDBRANCH  11  28
TORSDOF 7
ENDMDL
MODEL 4
REMARK VINA RESULT: -7.025557563      1.567      1.944
REMARK  7 active torsions:
REMARK  status: ('A' for Active; 'I' for Inactive)
REMARK    1  A    between atoms: C2_2  and  N1_3 
REMARK    2  A    between atoms: N2_6  and  C5_7 
REMARK    3  A    between atoms: C5_7  and  C6_8 
REMARK    4  A    between atoms: C12_14  and  O1_15 
REMARK    5  A    between atoms: C16_20  and  C17_21 
REMARK    6  A    between atoms: C17_21  and  O2_22 
REMARK    7  A    between atoms: C18_24  and  O3_25 
ROOT
HETATM    1  C6  UNL     1       1.876  -7.004   5.195  1.00  0.00    -0.062 C 
HETATM    2  C7  UNL     1       2.404  -8.191   4.920  1.00  0.00    -0.021 C 
HETATM    3  C8  UNL     1       1.964  -8.660   3.543  1.00  0.00     0.033 C 
HETATM    4  C9  UNL     1       1.838  -7.296   2.909  1.00  0.00     0.002 C 
HETATM    5  C10 UNL     1       1.032  -6.649   4.020  1.00  0.00     0.023 C 
HETATM    6  C11 UNL     1       0.939  -5.212   3.682  1.00  0.00     0.042 C 
HETATM    7  C12 UNL     1       0.045  -5.150   2.458  1.00  0.00     0.127 C 
HETATM    8  C13 UNL     1       0.525  -5.924   1.302  1.00  0.00    -0.013 C 
HETATM    9  C14 UNL     1       1.419  -5.009   0.463  1.00  0.00     0.018 C 
HETATM   10  C15 UNL     1      -0.676  -6.240   0.405  1.00  0.00     0.021 C 
HETATM   11  C16 UNL     1      -0.237  -7.094  -0.768  1.00  0.00     0.039 C 
HETATM   12  C18 UNL     1       0.216  -8.432  -0.277  1.00  0.00     0.124 C 
HETATM   13  C19 UNL     1       0.307  -8.403   1.241  1.00  0.00     0.038 C 
HETATM   14  C20 UNL     1       1.217  -7.226   1.587  1.00  0.00     0.003 C 
ENDROOT
BRANCH   1  15
HETATM   15  C5  UNL     1       2.030  -6.171   6.419  1.00  0.00     0.151 C 
BRANCH  15  16
HETATM   16  N2  UNL     1       3.235  -6.422   7.109  1.00  0.00    -0.406 N 
HETATM   17  C4  UNL     1       3.169  -6.899   8.435  1.00  0.00     0.137 C 
HETATM   18  C3  UNL     1       4.424  -6.426   9.188  1.00  0.00     0.141 C 
HETATM   19  N1  UNL     1       5.569  -6.828   8.475  1.00  0.00    -0.391 N 
HETATM   20  C22 UNL     1       5.608  -6.616   7.080  1.00  0.00     0.141 C 
HETATM   21  C21 UNL     1       4.406  -5.748   6.687  1.00  0.00     0.137 C 
BRANCH  19  22
HETATM   22  C2  UNL     1       6.798  -6.837   9.161  1.00  0.00     0.054 C 
HETATM   23  C1  UNL     1       7.906  -7.358   8.288  1.00  0.00     0.054 C 
ENDBRANCH  19  22
ENDBRANCH  15  16
ENDBRANCH   1  15
BRANCH   7  24
HETATM   24  O1  UNL     1      -0.070  -3.805   2.080  1.00  0.00    -0.395 OA
ATOM     25  H1  UNL     1      -0.435  -3.780   1.203  1.00  0.00     0.210 HD
ENDBRANCH   7  24
BRANCH  12  26
HETATM   26  O3  UNL     1      -0.626  -9.473  -0.625  1.00  0.00    -0.395 OA
ATOM     27  H3  UNL     1      -0.967  -9.958   0.117  1.00  0.00     0.210 HD
ENDBRANCH  12  26
BRANCH  11  28
HETATM   28  C17 UNL     1      -1.293  -7.153  -1.823  1.00  0.00     0.171 C 
BRANCH  28  29
HETATM   29  O2  UNL     1      -0.940  -7.737  -3.007  1.00  0.00    -0.400 OA
ATOM     30  H2  UNL     1      -1.566  -7.665  -3.718  1.00  0.00     0.209 HD
ENDBRANCH  28  29
ENDBRANCH  11  28
TORSDOF 7
ENDMDL
MODEL 5
REMARK VINA RESULT: -7.013162989      2.802      4.149
REMARK  7 active torsions:
REMARK  status: ('A' for Active; 'I' for Inactive)
REMARK    1  A    between atoms: C2_2  and  N1_3 
REMARK    2  A    between atoms: N2_6  and  C5_7 
REMARK    3  A    between atoms: C5_7  and  C6_8 
REMARK    4  A    between atoms: C12_14  and  O1_15 
REMARK    5  A    between atoms: C16_20  and  C17_21 
REMARK    6  A    between atoms: C17_21  and  O2_22 
REMARK    7  A    between atoms: C18_24  and  O3_25 
ROOT
HETATM    1  C6  UNL     1       1.505  -5.953   5.343  1.00  0.00    -0.062 C 
HETATM    2  C7  UNL     1       0.875  -5.086   4.559  1.00  0.00    -0.021 C 
HETATM    3  C8  UNL     1       1.005  -5.499   3.103  1.00  0.00     0.033 C 
HETATM    4  C9  UNL     1       1.068  -6.989   3.332  1.00  0.00     0.002 C 
HETATM    5  C10 UNL     1       2.112  -6.964   4.433  1.00  0.00     0.023 C 
HETATM    6  C11 UNL     1       2.205  -8.347   4.949  1.00  0.00     0.042 C 
HETATM    7  C12 UNL     1       2.836  -9.146   3.824  1.00  0.00     0.127 C 
HETATM    8  C13 UNL     1       2.097  -9.116   2.553  1.00  0.00    -0.013 C 
HETATM    9  C14 UNL     1       1.099 -10.276   2.564  1.00  0.00     0.018 C 
HETATM   10  C15 UNL     1       3.075  -9.443   1.421  1.00  0.00     0.021 C 
HETATM   11  C16 UNL     1       2.369  -9.360   0.082  1.00  0.00     0.039 C 
HETATM   12  C18 UNL     1       1.959  -7.947  -0.184  1.00  0.00     0.124 C 
HETATM   13  C19 UNL     1       2.176  -7.117   1.072  1.00  0.00     0.038 C 
HETATM   14  C20 UNL     1       1.413  -7.831   2.187  1.00  0.00     0.003 C 
ENDROOT
BRANCH   1  15
HETATM   15  C5  UNL     1       1.641  -5.947   6.826  1.00  0.00     0.151 C 
BRANCH  15  16
HETATM   16  N2  UNL     1       2.950  -6.250   7.259  1.00  0.00    -0.406 N 
HETATM   17  C4  UNL     1       3.121  -6.863   8.519  1.00  0.00     0.137 C 
HETATM   18  C3  UNL     1       4.492  -6.452   9.082  1.00  0.00     0.141 C 
HETATM   19  N1  UNL     1       5.489  -6.760   8.137  1.00  0.00    -0.391 N 
HETATM   20  C22 UNL     1       5.279  -6.406   6.788  1.00  0.00     0.141 C 
HETATM   21  C21 UNL     1       4.029  -5.519   6.709  1.00  0.00     0.137 C 
BRANCH  19  22
HETATM   22  C2  UNL     1       6.821  -6.822   8.588  1.00  0.00     0.054 C 
HETATM   23  C1  UNL     1       6.912  -7.500   9.928  1.00  0.00     0.054 C 
ENDBRANCH  19  22
ENDBRANCH  15  16
ENDBRANCH   1  15
BRANCH   7  24
HETATM   24  O1  UNL     1       2.939 -10.478   4.252  1.00  0.00    -0.395 OA
ATOM     25  H1  UNL     1       3.561 -10.505   4.970  1.00  0.00     0.210 HD
ENDBRANCH   7  24
BRANCH  12  26
HETATM   26  O3  UNL     1       2.661  -7.342  -1.211  1.00  0.00    -0.395 OA
ATOM     27  H3  UNL     1       2.769  -6.404  -1.104  1.00  0.00     0.210 HD
ENDBRANCH  12  26
BRANCH  11  28
HETATM   28  C17 UNL     1       3.187  -9.977  -1.004  1.00  0.00     0.171 C 
BRANCH  28  29
HETATM   29  O2  UNL     1       4.507  -9.627  -1.047  1.00  0.00    -0.400 OA
ATOM     30  H2  UNL     1       4.711  -8.791  -1.449  1.00  0.00     0.209 HD
ENDBRANCH  28  29
ENDBRANCH  11  28
TORSDOF 7
ENDMDL
