MODEL 1
REMARK VINA RESULT: -6.133681435      0.000      0.000
REMARK  10 active torsions:
REMARK  status: ('A' for Active; 'I' for Inactive)
REMARK    1  A    between atoms: C2_9  and  S1_10 
REMARK    2  A    between atoms: S1_10  and  C3_11 
REMARK    3  A    between atoms: C3_11  and  C4_12 
REMARK       I    between atoms: C4_12  and  N5_14 
REMARK    4  A    between atoms: N5_14  and  N6_16 
REMARK    5  A    between atoms: N6_16  and  C5_18 
REMARK    6  A    between atoms: C5_18  and  N7_20 
REMARK    7  A    between atoms: N7_20  and  C6_22 
REMARK    8  A    between atoms: C6_22  and  C7_23 
REMARK    9  A    between atoms: C7_23  and  C8_24 
REMARK   10  A    between atoms: C8_24  and  C9_25 
ROOT
HETATM    1  C4  UNL     1       8.679  -4.232  -1.469  1.00  0.00     0.245 C 
HETATM    2  O1  UNL     1       9.365  -4.758  -2.378  1.00  0.00    -0.271 OA
HETATM    3  N5  UNL     1       8.391  -2.870  -1.460  1.00  0.00    -0.267 N 
ATOM      4  H5  UNL     1       7.829  -2.491  -0.698  1.00  0.00     0.190 HD
ENDROOT
BRANCH   3   5
HETATM    5  N6  UNL     1       8.848  -1.998  -2.465  1.00  0.00    -0.274 N 
ATOM      6  H6  UNL     1       8.872  -2.301  -3.438  1.00  0.00     0.189 HD
BRANCH   5   7
HETATM    7  C5  UNL     1       9.281  -0.677  -2.107  1.00  0.00     0.186 C 
HETATM    8  S2  UNL     1      10.263  -0.556  -0.798  1.00  0.00    -0.040 SA
BRANCH   7   9
HETATM    9  N7  UNL     1       8.906   0.461  -2.793  1.00  0.00    -0.366 N 
ATOM     10  H7  UNL     1       9.179   0.580  -3.769  1.00  0.00     0.161 HD
BRANCH   9  11
HETATM   11  C6  UNL     1       8.110   1.505  -2.119  1.00  0.00     0.122 C 
BRANCH  11  12
HETATM   12  C7  UNL     1       6.958   1.861  -3.074  1.00  0.00     0.020 C 
BRANCH  12  13
HETATM   13  C8  UNL     1       7.012   0.991  -4.270  1.00  0.00     0.006 C 
BRANCH  13  14
HETATM   14  C9  UNL     1       5.700   0.267  -4.523  1.00  0.00    -0.014 C 
HETATM   15  C10 UNL     1       5.537  -0.881  -3.574  1.00  0.00     0.005 C 
HETATM   16  C11 UNL     1       6.069  -1.796  -4.652  1.00  0.00     0.001 C 
HETATM   17  C12 UNL     1       5.755  -0.724  -5.665  1.00  0.00     0.005 C 
ENDBRANCH  13  14
ENDBRANCH  12  13
ENDBRANCH  11  12
ENDBRANCH   9  11
ENDBRANCH   7   9
ENDBRANCH   5   7
ENDBRANCH   3   5
BRANCH   1  18
HETATM   18  C3  UNL     1       8.153  -5.096  -0.345  1.00  0.00     0.186 C 
BRANCH  18  19
HETATM   19  S1  UNL     1       7.911  -4.218   1.143  1.00  0.00    -0.082 SA
BRANCH  19  20
HETATM   20  C2  UNL     1       6.281  -3.868   1.701  1.00  0.00     0.178 A 
HETATM   21  N1  UNL     1       5.783  -3.317   2.809  1.00  0.00    -0.259 N 
HETATM   22  C1  UNL     1       6.535  -2.871   3.958  1.00  0.00     0.181 C 
HETATM   23  N2  UNL     1       4.440  -3.278   2.695  1.00  0.00    -0.224 N 
HETATM   24  N3  UNL     1       4.091  -3.794   1.547  1.00  0.00    -0.226 N 
ATOM     25  H2  UNL     1       3.799  -2.905   3.394  1.00  0.00     0.210 HD
HETATM   26  N4  UNL     1       5.183  -4.156   0.932  1.00  0.00    -0.263 N 
ATOM     27  H3  UNL     1       3.139  -3.896   1.196  1.00  0.00     0.210 HD
ATOM     28  H4  UNL     1       5.216  -4.592   0.010  1.00  0.00     0.190 HD
ENDBRANCH  19  20
ENDBRANCH  18  19
ENDBRANCH   1  18
TORSDOF 10
ENDMDL
MODEL 2
REMARK VINA RESULT: -6.019166909      2.585      3.807
REMARK  10 active torsions:
REMARK  status: ('A' for Active; 'I' for Inactive)
REMARK    1  A    between atoms: C2_9  and  S1_10 
REMARK    2  A    between atoms: S1_10  and  C3_11 
REMARK    3  A    between atoms: C3_11  and  C4_12 
REMARK       I    between atoms: C4_12  and  N5_14 
REMARK    4  A    between atoms: N5_14  and  N6_16 
REMARK    5  A    between atoms: N6_16  and  C5_18 
REMARK    6  A    between atoms: C5_18  and  N7_20 
REMARK    7  A    between atoms: N7_20  and  C6_22 
REMARK    8  A    between atoms: C6_22  and  C7_23 
REMARK    9  A    between atoms: C7_23  and  C8_24 
REMARK   10  A    between atoms: C8_24  and  C9_25 
ROOT
HETATM    1  C4  UNL     1       6.773  -1.199   0.727  1.00  0.00     0.245 C 
HETATM    2  O1  UNL     1       5.954  -0.570   0.014  1.00  0.00    -0.271 OA
HETATM    3  N5  UNL     1       7.921  -0.596   1.232  1.00  0.00    -0.267 N 
ATOM      4  H5  UNL     1       8.555  -1.151   1.808  1.00  0.00     0.190 HD
ENDROOT
BRANCH   3   5
HETATM    5  N6  UNL     1       8.239   0.751   0.978  1.00  0.00    -0.274 N 
ATOM      6  H6  UNL     1       7.831   1.492   1.547  1.00  0.00     0.189 HD
BRANCH   5   7
HETATM    7  C5  UNL     1       9.142   1.071  -0.089  1.00  0.00     0.186 C 
HETATM    8  S2  UNL     1      10.729   0.750   0.170  1.00  0.00    -0.040 SA
BRANCH   7   9
HETATM    9  N7  UNL     1       8.741   1.633  -1.285  1.00  0.00    -0.366 N 
ATOM     10  H7  UNL     1       8.710   2.647  -1.387  1.00  0.00     0.161 HD
BRANCH   9  11
HETATM   11  C6  UNL     1       8.355   0.768  -2.418  1.00  0.00     0.122 C 
BRANCH  11  12
HETATM   12  C7  UNL     1       6.925   1.175  -2.811  1.00  0.00     0.020 C 
BRANCH  12  13
HETATM   13  C8  UNL     1       6.754   1.055  -4.276  1.00  0.00     0.006 C 
BRANCH  13  14
HETATM   14  C9  UNL     1       5.570   0.181  -4.655  1.00  0.00    -0.014 C 
HETATM   15  C10 UNL     1       5.410  -0.946  -3.681  1.00  0.00     0.005 C 
HETATM   16  C11 UNL     1       6.171  -1.831  -4.642  1.00  0.00     0.001 C 
HETATM   17  C12 UNL     1       5.876  -0.834  -5.735  1.00  0.00     0.005 C 
ENDBRANCH  13  14
ENDBRANCH  12  13
ENDBRANCH  11  12
ENDBRANCH   9  11
ENDBRANCH   7   9
ENDBRANCH   5   7
ENDBRANCH   3   5
BRANCH   1  18
HETATM   18  C3  UNL     1       6.513  -2.655   1.044  1.00  0.00     0.186 C 
BRANCH  18  19
HETATM   19  S1  UNL     1       7.275  -3.750  -0.079  1.00  0.00    -0.082 SA
BRANCH  19  20
HETATM   20  C2  UNL     1       8.650  -3.215  -1.033  1.00  0.00     0.178 A 
HETATM   21  N1  UNL     1       9.933  -2.976  -0.753  1.00  0.00    -0.259 N 
HETATM   22  C1  UNL     1      10.557  -3.066   0.545  1.00  0.00     0.181 C 
HETATM   23  N2  UNL     1      10.551  -2.599  -1.890  1.00  0.00    -0.224 N 
HETATM   24  N3  UNL     1       9.685  -2.590  -2.868  1.00  0.00    -0.226 N 
ATOM     25  H2  UNL     1      11.538  -2.357  -1.973  1.00  0.00     0.210 HD
HETATM   26  N4  UNL     1       8.534  -2.958  -2.375  1.00  0.00    -0.263 N 
ATOM     27  H3  UNL     1       9.874  -2.342  -3.839  1.00  0.00     0.210 HD
ATOM     28  H4  UNL     1       7.671  -3.043  -2.912  1.00  0.00     0.190 HD
ENDBRANCH  19  20
ENDBRANCH  18  19
ENDBRANCH   1  18
TORSDOF 10
ENDMDL
MODEL 3
REMARK VINA RESULT: -6.007598646      2.808      4.866
REMARK  10 active torsions:
REMARK  status: ('A' for Active; 'I' for Inactive)
REMARK    1  A    between atoms: C2_9  and  S1_10 
REMARK    2  A    between atoms: S1_10  and  C3_11 
REMARK    3  A    between atoms: C3_11  and  C4_12 
REMARK       I    between atoms: C4_12  and  N5_14 
REMARK    4  A    between atoms: N5_14  and  N6_16 
REMARK    5  A    between atoms: N6_16  and  C5_18 
REMARK    6  A    between atoms: C5_18  and  N7_20 
REMARK    7  A    between atoms: N7_20  and  C6_22 
REMARK    8  A    between atoms: C6_22  and  C7_23 
REMARK    9  A    between atoms: C7_23  and  C8_24 
REMARK   10  A    between atoms: C8_24  and  C9_25 
ROOT
HETATM    1  C4  UNL     1       9.473   1.219  -0.438  1.00  0.00     0.245 C 
HETATM    2  O1  UNL     1       8.526   1.910  -0.887  1.00  0.00    -0.271 OA
HETATM    3  N5  UNL     1       9.427   0.648   0.830  1.00  0.00    -0.267 N 
ATOM      4  H5  UNL     1      10.222   0.094   1.149  1.00  0.00     0.190 HD
ENDROOT
BRANCH   3   5
HETATM    5  N6  UNL     1       8.323   0.806   1.688  1.00  0.00    -0.274 N 
ATOM      6  H6  UNL     1       8.049   1.735   2.007  1.00  0.00     0.189 HD
BRANCH   5   7
HETATM    7  C5  UNL     1       7.587  -0.351   2.109  1.00  0.00     0.186 C 
HETATM    8  S2  UNL     1       8.155  -1.143   3.428  1.00  0.00    -0.040 SA
BRANCH   7   9
HETATM    9  N7  UNL     1       6.460  -0.816   1.460  1.00  0.00    -0.366 N 
ATOM     10  H7  UNL     1       5.545  -0.725   1.901  1.00  0.00     0.161 HD
BRANCH   9  11
HETATM   11  C6  UNL     1       6.576  -1.445   0.130  1.00  0.00     0.122 C 
BRANCH  11  12
HETATM   12  C7  UNL     1       5.937  -0.468  -0.872  1.00  0.00     0.020 C 
BRANCH  12  13
HETATM   13  C8  UNL     1       5.419  -1.215  -2.040  1.00  0.00     0.006 C 
BRANCH  13  14
HETATM   14  C9  UNL     1       6.364  -1.169  -3.228  1.00  0.00    -0.014 C 
HETATM   15  C10 UNL     1       6.691   0.248  -3.590  1.00  0.00     0.005 C 
HETATM   16  C11 UNL     1       5.614   0.184  -4.649  1.00  0.00     0.001 C 
HETATM   17  C12 UNL     1       5.676  -1.321  -4.567  1.00  0.00     0.005 C 
ENDBRANCH  13  14
ENDBRANCH  12  13
ENDBRANCH  11  12
ENDBRANCH   9  11
ENDBRANCH   7   9
ENDBRANCH   5   7
ENDBRANCH   3   5
BRANCH   1  18
HETATM   18  C3  UNL     1      10.702   1.004  -1.292  1.00  0.00     0.186 C 
BRANCH  18  19
HETATM   19  S1  UNL     1      11.369  -0.601  -1.146  1.00  0.00    -0.082 SA
BRANCH  19  20
HETATM   20  C2  UNL     1      10.350  -2.005  -1.429  1.00  0.00     0.178 A 
HETATM   21  N1  UNL     1       9.854  -2.961  -0.641  1.00  0.00    -0.259 N 
HETATM   22  C1  UNL     1      10.096  -3.117   0.773  1.00  0.00     0.181 C 
HETATM   23  N2  UNL     1       9.109  -3.790  -1.400  1.00  0.00    -0.224 N 
HETATM   24  N3  UNL     1       9.133  -3.378  -2.638  1.00  0.00    -0.226 N 
ATOM     25  H2  UNL     1       8.607  -4.609  -1.060  1.00  0.00     0.210 HD
HETATM   26  N4  UNL     1       9.874  -2.304  -2.680  1.00  0.00    -0.263 N 
ATOM     27  H3  UNL     1       8.660  -3.814  -3.429  1.00  0.00     0.210 HD
ATOM     28  H4  UNL     1      10.072  -1.764  -3.523  1.00  0.00     0.190 HD
ENDBRANCH  19  20
ENDBRANCH  18  19
ENDBRANCH   1  18
TORSDOF 10
ENDMDL
MODEL 4
REMARK VINA RESULT: -5.918887924      4.749      6.112
REMARK  10 active torsions:
REMARK  status: ('A' for Active; 'I' for Inactive)
REMARK    1  A    between atoms: C2_9  and  S1_10 
REMARK    2  A    between atoms: S1_10  and  C3_11 
REMARK    3  A    between atoms: C3_11  and  C4_12 
REMARK       I    between atoms: C4_12  and  N5_14 
REMARK    4  A    between atoms: N5_14  and  N6_16 
REMARK    5  A    between atoms: N6_16  and  C5_18 
REMARK    6  A    between atoms: C5_18  and  N7_20 
REMARK    7  A    between atoms: N7_20  and  C6_22 
REMARK    8  A    between atoms: C6_22  and  C7_23 
REMARK    9  A    between atoms: C7_23  and  C8_24 
REMARK   10  A    between atoms: C8_24  and  C9_25 
ROOT
HETATM    1  C4  UNL     1      11.420   1.734   0.725  1.00  0.00     0.245 C 
HETATM    2  O1  UNL     1      11.921   0.666   1.152  1.00  0.00    -0.271 OA
HETATM    3  N5  UNL     1      10.893   1.835  -0.560  1.00  0.00    -0.267 N 
ATOM      4  H5  UNL     1      10.496   2.725  -0.860  1.00  0.00     0.190 HD
ENDROOT
BRANCH   3   5
HETATM    5  N6  UNL     1      10.889   0.752  -1.459  1.00  0.00    -0.274 N 
ATOM      6  H6  UNL     1      11.761   0.423  -1.872  1.00  0.00     0.189 HD
BRANCH   5   7
HETATM    7  C5  UNL     1       9.646   0.116  -1.789  1.00  0.00     0.186 C 
HETATM    8  S2  UNL     1       9.187  -1.137  -0.835  1.00  0.00    -0.040 SA
BRANCH   7   9
HETATM    9  N7  UNL     1       8.851   0.499  -2.851  1.00  0.00    -0.366 N 
ATOM     10  H7  UNL     1       8.759  -0.111  -3.663  1.00  0.00     0.161 HD
BRANCH   9  11
HETATM   11  C6  UNL     1       8.136   1.789  -2.815  1.00  0.00     0.122 C 
BRANCH  11  12
HETATM   12  C7  UNL     1       6.645   1.467  -3.016  1.00  0.00     0.020 C 
BRANCH  12  13
HETATM   13  C8  UNL     1       6.447   0.812  -4.329  1.00  0.00     0.006 C 
BRANCH  13  14
HETATM   14  C9  UNL     1       5.497  -0.371  -4.251  1.00  0.00    -0.014 C 
HETATM   15  C10 UNL     1       5.719  -1.148  -2.989  1.00  0.00     0.005 C 
HETATM   16  C11 UNL     1       6.591  -2.100  -3.775  1.00  0.00     0.001 C 
HETATM   17  C12 UNL     1       5.954  -1.579  -5.040  1.00  0.00     0.005 C 
ENDBRANCH  13  14
ENDBRANCH  12  13
ENDBRANCH  11  12
ENDBRANCH   9  11
ENDBRANCH   7   9
ENDBRANCH   5   7
ENDBRANCH   3   5
BRANCH   1  18
HETATM   18  C3  UNL     1      11.389   2.949   1.623  1.00  0.00     0.186 C 
BRANCH  18  19
HETATM   19  S1  UNL     1       9.913   3.867   1.490  1.00  0.00    -0.082 SA
BRANCH  19  20
HETATM   20  C2  UNL     1       9.075   4.400   2.940  1.00  0.00     0.178 A 
HETATM   21  N1  UNL     1       8.928   5.583   3.541  1.00  0.00    -0.259 N 
HETATM   22  C1  UNL     1       9.521   6.832   3.130  1.00  0.00     0.181 C 
HETATM   23  N2  UNL     1       8.154   5.409   4.631  1.00  0.00    -0.224 N 
HETATM   24  N3  UNL     1       7.820   4.151   4.726  1.00  0.00    -0.226 N 
ATOM     25  H2  UNL     1       7.874   6.145   5.279  1.00  0.00     0.210 HD
HETATM   26  N4  UNL     1       8.363   3.524   3.719  1.00  0.00    -0.263 N 
ATOM     27  H3  UNL     1       7.242   3.733   5.455  1.00  0.00     0.210 HD
ATOM     28  H4  UNL     1       8.272   2.525   3.536  1.00  0.00     0.190 HD
ENDBRANCH  19  20
ENDBRANCH  18  19
ENDBRANCH   1  18
TORSDOF 10
ENDMDL
MODEL 5
REMARK VINA RESULT: -5.898524084      4.560      6.104
REMARK  10 active torsions:
REMARK  status: ('A' for Active; 'I' for Inactive)
REMARK    1  A    between atoms: C2_9  and  S1_10 
REMARK    2  A    between atoms: S1_10  and  C3_11 
REMARK    3  A    between atoms: C3_11  and  C4_12 
REMARK       I    between atoms: C4_12  and  N5_14 
REMARK    4  A    between atoms: N5_14  and  N6_16 
REMARK    5  A    between atoms: N6_16  and  C5_18 
REMARK    6  A    between atoms: C5_18  and  N7_20 
REMARK    7  A    between atoms: N7_20  and  C6_22 
REMARK    8  A    between atoms: C6_22  and  C7_23 
REMARK    9  A    between atoms: C7_23  and  C8_24 
REMARK   10  A    between atoms: C8_24  and  C9_25 
ROOT
HETATM    1  C4  UNL     1      11.034   1.350   0.108  1.00  0.00     0.245 C 
HETATM    2  O1  UNL     1      12.162   1.416  -0.437  1.00  0.00    -0.271 OA
HETATM    3  N5  UNL     1       9.981   0.643  -0.467  1.00  0.00    -0.267 N 
ATOM      4  H5  UNL     1       9.084   0.619   0.017  1.00  0.00     0.190 HD
ENDROOT
BRANCH   3   5
HETATM    5  N6  UNL     1      10.112  -0.039  -1.690  1.00  0.00    -0.274 N 
ATOM      6  H6  UNL     1      10.215   0.481  -2.561  1.00  0.00     0.189 HD
BRANCH   5   7
HETATM    7  C5  UNL     1      10.098  -1.474  -1.701  1.00  0.00     0.186 C 
HETATM    8  S2  UNL     1      10.797  -2.225  -0.420  1.00  0.00    -0.040 SA
BRANCH   7   9
HETATM    9  N7  UNL     1       9.546  -2.224  -2.720  1.00  0.00    -0.366 N 
ATOM     10  H7  UNL     1       9.908  -2.136  -3.670  1.00  0.00     0.161 HD
BRANCH   9  11
HETATM   11  C6  UNL     1       8.434  -3.153  -2.440  1.00  0.00     0.122 C 
BRANCH  11  12
HETATM   12  C7  UNL     1       7.186  -2.283  -2.212  1.00  0.00     0.020 C 
BRANCH  12  13
HETATM   13  C8  UNL     1       6.712  -1.736  -3.503  1.00  0.00     0.006 C 
BRANCH  13  14
HETATM   14  C9  UNL     1       5.890  -0.470  -3.333  1.00  0.00    -0.014 C 
HETATM   15  C10 UNL     1       5.886   0.334  -4.598  1.00  0.00     0.005 C 
HETATM   16  C11 UNL     1       7.006   1.171  -4.022  1.00  0.00     0.001 C 
HETATM   17  C12 UNL     1       6.634   0.659  -2.652  1.00  0.00     0.005 C 
ENDBRANCH  13  14
ENDBRANCH  12  13
ENDBRANCH  11  12
ENDBRANCH   9  11
ENDBRANCH   7   9
ENDBRANCH   5   7
ENDBRANCH   3   5
BRANCH   1  18
HETATM   18  C3  UNL     1      10.804   2.060   1.423  1.00  0.00     0.186 C 
BRANCH  18  19
HETATM   19  S1  UNL     1       9.619   3.335   1.318  1.00  0.00    -0.082 SA
BRANCH  19  20
HETATM   20  C2  UNL     1       8.954   4.040   2.785  1.00  0.00     0.178 A 
HETATM   21  N1  UNL     1       8.847   5.288   3.244  1.00  0.00    -0.259 N 
HETATM   22  C1  UNL     1       9.343   6.482   2.603  1.00  0.00     0.181 C 
HETATM   23  N2  UNL     1       8.223   5.247   4.438  1.00  0.00    -0.224 N 
HETATM   24  N3  UNL     1       7.944   4.007   4.735  1.00  0.00    -0.226 N 
ATOM     25  H2  UNL     1       8.004   6.057   5.018  1.00  0.00     0.210 HD
HETATM   26  N4  UNL     1       8.375   3.262   3.754  1.00  0.00    -0.263 N 
ATOM     27  H3  UNL     1       7.475   3.679   5.580  1.00  0.00     0.210 HD
ATOM     28  H4  UNL     1       8.293   2.246   3.714  1.00  0.00     0.190 HD
ENDBRANCH  19  20
ENDBRANCH  18  19
ENDBRANCH   1  18
TORSDOF 10
ENDMDL
