MODEL 1
REMARK VINA RESULT: -5.705493620      0.000      0.000
REMARK  11 active torsions:
REMARK  status: ('A' for Active; 'I' for Inactive)
REMARK    1  A    between atoms: C3_4  and  O1_5 
REMARK    2  A    between atoms: C4_7  and  C5_8 
REMARK    3  A    between atoms: C5_8  and  C6_9 
REMARK    4  A    between atoms: C6_9  and  S1_10 
REMARK    5  A    between atoms: S1_10  and  C7_12 
REMARK    6  A    between atoms: C7_12  and  C8_13 
REMARK    7  A    between atoms: C8_13  and  S2_14 
REMARK    8  A    between atoms: S2_14  and  C9_15 
REMARK    9  A    between atoms: C11_18  and  O3_19 
REMARK   10  A    between atoms: C12_21  and  C13_22 
REMARK   11  A    between atoms: C13_22  and  O4_23 
ROOT
HETATM    1  C7  UNL     1       6.972  -3.842   1.259  1.00  0.00     0.118 C 
ENDROOT
BRANCH   1   2
HETATM    2  S1  UNL     1       5.645  -3.250   0.273  1.00  0.00     0.015 S 
HETATM    3  O2  UNL     1       4.141  -3.431   0.923  1.00  0.00    -0.258 OA
BRANCH   2   4
HETATM    4  C6  UNL     1       5.973  -1.647  -0.353  1.00  0.00     0.111 C 
BRANCH   4   5
HETATM    5  C5  UNL     1       5.230  -1.319  -1.608  1.00  0.00     0.051 C 
BRANCH   5   6
HETATM    6  C4  UNL     1       6.173  -0.874  -2.677  1.00  0.00     0.253 C 
HETATM    7  N1  UNL     1       6.122   0.538  -2.922  1.00  0.00     0.094 N 
HETATM    8  C1  UNL     1       7.226   1.326  -2.400  1.00  0.00     0.310 C 
HETATM    9  C2  UNL     1       6.204   0.281  -4.340  1.00  0.00     0.306 C 
HETATM   10  C3  UNL     1       5.641  -1.095  -4.097  1.00  0.00     0.179 C 
BRANCH  10  11
HETATM   11  O1  UNL     1       6.269  -2.130  -4.778  1.00  0.00    -0.392 OA
ATOM     12  H1  UNL     1       5.725  -2.607  -5.394  1.00  0.00     0.210 HD
ENDBRANCH  10  11
ENDBRANCH   5   6
ENDBRANCH   4   5
ENDBRANCH   2   4
ENDBRANCH   1   2
BRANCH   1  13
HETATM   13  C8  UNL     1       7.676  -2.763   2.013  1.00  0.00     0.086 C 
BRANCH  13  14
HETATM   14  S2  UNL     1       9.373  -2.474   1.579  1.00  0.00    -0.162 SA
BRANCH  14  15
HETATM   15  C9  UNL     1       9.629  -1.484   0.090  1.00  0.00     0.066 C 
HETATM   16  C10 UNL     1      10.794  -0.600   0.250  1.00  0.00     0.092 C 
HETATM   17  S3  UNL     1      12.030  -1.299  -0.920  1.00  0.00    -0.136 SA
HETATM   18  C11 UNL     1      11.159  -2.902  -1.194  1.00  0.00     0.186 C 
HETATM   19  C12 UNL     1       9.756  -2.414  -1.058  1.00  0.00     0.062 C 
BRANCH  18  20
HETATM   20  O3  UNL     1      11.492  -3.307  -2.464  1.00  0.00    -0.385 OA
ATOM     21  H3  UNL     1      10.842  -2.926  -3.043  1.00  0.00     0.211 HD
ENDBRANCH  18  20
BRANCH  19  22
HETATM   22  C13 UNL     1       9.193  -1.863  -2.348  1.00  0.00     0.173 C 
BRANCH  22  23
HETATM   23  O4  UNL     1       8.673  -2.821  -3.182  1.00  0.00    -0.400 OA
ATOM     24  H4  UNL     1       8.858  -2.672  -4.102  1.00  0.00     0.209 HD
ENDBRANCH  22  23
ENDBRANCH  19  22
ENDBRANCH  14  15
ENDBRANCH  13  14
ENDBRANCH   1  13
TORSDOF 11
ENDMDL
MODEL 2
REMARK VINA RESULT: -5.625234991      2.742      4.373
REMARK  11 active torsions:
REMARK  status: ('A' for Active; 'I' for Inactive)
REMARK    1  A    between atoms: C3_4  and  O1_5 
REMARK    2  A    between atoms: C4_7  and  C5_8 
REMARK    3  A    between atoms: C5_8  and  C6_9 
REMARK    4  A    between atoms: C6_9  and  S1_10 
REMARK    5  A    between atoms: S1_10  and  C7_12 
REMARK    6  A    between atoms: C7_12  and  C8_13 
REMARK    7  A    between atoms: C8_13  and  S2_14 
REMARK    8  A    between atoms: S2_14  and  C9_15 
REMARK    9  A    between atoms: C11_18  and  O3_19 
REMARK   10  A    between atoms: C12_21  and  C13_22 
REMARK   11  A    between atoms: C13_22  and  O4_23 
ROOT
HETATM    1  C7  UNL     1       8.685  -1.910   0.174  1.00  0.00     0.118 C 
ENDROOT
BRANCH   1   2
HETATM    2  S1  UNL     1       6.986  -1.721  -0.228  1.00  0.00     0.015 S 
HETATM    3  O2  UNL     1       6.276  -0.337   0.318  1.00  0.00    -0.258 OA
BRANCH   2   4
HETATM    4  C6  UNL     1       6.680  -2.069  -1.917  1.00  0.00     0.111 C 
BRANCH   4   5
HETATM    5  C5  UNL     1       5.792  -1.077  -2.594  1.00  0.00     0.051 C 
BRANCH   5   6
HETATM    6  C4  UNL     1       6.577  -0.220  -3.531  1.00  0.00     0.253 C 
HETATM    7  N1  UNL     1       6.733   1.128  -3.067  1.00  0.00     0.094 N 
HETATM    8  C1  UNL     1       8.038   1.483  -2.536  1.00  0.00     0.310 C 
HETATM    9  C2  UNL     1       6.496   1.604  -4.409  1.00  0.00     0.306 C 
HETATM   10  C3  UNL     1       5.754   0.327  -4.703  1.00  0.00     0.179 C 
BRANCH  10  11
HETATM   11  O1  UNL     1       6.046  -0.271  -5.923  1.00  0.00    -0.392 OA
ATOM     12  H1  UNL     1       5.966  -1.217  -5.946  1.00  0.00     0.210 HD
ENDBRANCH  10  11
ENDBRANCH   5   6
ENDBRANCH   4   5
ENDBRANCH   2   4
ENDBRANCH   1   2
BRANCH   1  13
HETATM   13  C8  UNL     1       9.057  -3.313   0.522  1.00  0.00     0.086 C 
BRANCH  13  14
HETATM   14  S2  UNL     1       7.876  -4.230   1.477  1.00  0.00    -0.162 SA
BRANCH  14  15
HETATM   15  C9  UNL     1       8.001  -6.027   1.338  1.00  0.00     0.066 C 
HETATM   16  C10 UNL     1       7.412  -6.680   2.517  1.00  0.00     0.092 C 
HETATM   17  S3  UNL     1       5.904  -7.495   1.850  1.00  0.00    -0.136 SA
HETATM   18  C11 UNL     1       5.885  -6.591   0.242  1.00  0.00     0.186 C 
HETATM   19  C12 UNL     1       7.358  -6.431   0.064  1.00  0.00     0.062 C 
BRANCH  18  20
HETATM   20  O3  UNL     1       5.299  -7.439  -0.667  1.00  0.00    -0.385 OA
ATOM     21  H3  UNL     1       4.592  -7.875  -0.205  1.00  0.00     0.211 HD
ENDBRANCH  18  20
BRANCH  19  22
HETATM   22  C13 UNL     1       8.009  -7.626  -0.590  1.00  0.00     0.173 C 
BRANCH  22  23
HETATM   23  O4  UNL     1       8.134  -7.516  -1.953  1.00  0.00    -0.400 OA
ATOM     24  H4  UNL     1       7.676  -8.193  -2.437  1.00  0.00     0.209 HD
ENDBRANCH  22  23
ENDBRANCH  19  22
ENDBRANCH  14  15
ENDBRANCH  13  14
ENDBRANCH   1  13
TORSDOF 11
ENDMDL
MODEL 3
REMARK VINA RESULT: -5.452586547      2.730      4.738
REMARK  11 active torsions:
REMARK  status: ('A' for Active; 'I' for Inactive)
REMARK    1  A    between atoms: C3_4  and  O1_5 
REMARK    2  A    between atoms: C4_7  and  C5_8 
REMARK    3  A    between atoms: C5_8  and  C6_9 
REMARK    4  A    between atoms: C6_9  and  S1_10 
REMARK    5  A    between atoms: S1_10  and  C7_12 
REMARK    6  A    between atoms: C7_12  and  C8_13 
REMARK    7  A    between atoms: C8_13  and  S2_14 
REMARK    8  A    between atoms: S2_14  and  C9_15 
REMARK    9  A    between atoms: C11_18  and  O3_19 
REMARK   10  A    between atoms: C12_21  and  C13_22 
REMARK   11  A    between atoms: C13_22  and  O4_23 
ROOT
HETATM    1  C7  UNL     1       8.251  -1.801  -0.287  1.00  0.00     0.118 C 
ENDROOT
BRANCH   1   2
HETATM    2  S1  UNL     1       6.549  -1.495   0.018  1.00  0.00     0.015 S 
HETATM    3  O2  UNL     1       6.168  -1.079   1.567  1.00  0.00    -0.258 OA
BRANCH   2   4
HETATM    4  C6  UNL     1       5.853  -0.448  -1.201  1.00  0.00     0.111 C 
BRANCH   4   5
HETATM    5  C5  UNL     1       5.784  -1.060  -2.563  1.00  0.00     0.051 C 
BRANCH   5   6
HETATM    6  C4  UNL     1       6.576  -0.258  -3.542  1.00  0.00     0.253 C 
HETATM    7  N1  UNL     1       6.796   1.094  -3.117  1.00  0.00     0.094 N 
HETATM    8  C1  UNL     1       8.128   1.411  -2.629  1.00  0.00     0.310 C 
HETATM    9  C2  UNL     1       6.542   1.545  -4.465  1.00  0.00     0.306 C 
HETATM   10  C3  UNL     1       5.744   0.291  -4.707  1.00  0.00     0.179 C 
BRANCH  10  11
HETATM   11  O1  UNL     1       5.981  -0.349  -5.917  1.00  0.00    -0.392 OA
ATOM     12  H1  UNL     1       6.348  -1.223  -5.856  1.00  0.00     0.210 HD
ENDBRANCH  10  11
ENDBRANCH   5   6
ENDBRANCH   4   5
ENDBRANCH   2   4
ENDBRANCH   1   2
BRANCH   1  13
HETATM   13  C8  UNL     1       8.529  -3.195  -0.743  1.00  0.00     0.086 C 
BRANCH  13  14
HETATM   14  S2  UNL     1       8.156  -4.492   0.410  1.00  0.00    -0.162 SA
BRANCH  14  15
HETATM   15  C9  UNL     1       6.423  -5.000   0.463  1.00  0.00     0.066 C 
HETATM   16  C10 UNL     1       6.298  -6.441   0.192  1.00  0.00     0.092 C 
HETATM   17  S3  UNL     1       5.763  -7.138   1.808  1.00  0.00    -0.136 SA
HETATM   18  C11 UNL     1       6.164  -5.644   2.812  1.00  0.00     0.186 C 
HETATM   19  C12 UNL     1       5.873  -4.604   1.782  1.00  0.00     0.062 C 
BRANCH  18  20
HETATM   20  O3  UNL     1       5.287  -5.647   3.870  1.00  0.00    -0.385 OA
ATOM     21  H3  UNL     1       5.688  -6.183   4.544  1.00  0.00     0.211 HD
ENDBRANCH  18  20
BRANCH  19  22
HETATM   22  C13 UNL     1       4.416  -4.208   1.735  1.00  0.00     0.173 C 
BRANCH  22  23
HETATM   23  O4  UNL     1       4.073  -3.239   2.644  1.00  0.00    -0.400 OA
ATOM     24  H4  UNL     1       3.279  -3.430   3.130  1.00  0.00     0.209 HD
ENDBRANCH  22  23
ENDBRANCH  19  22
ENDBRANCH  14  15
ENDBRANCH  13  14
ENDBRANCH   1  13
TORSDOF 11
ENDMDL
MODEL 4
REMARK VINA RESULT: -5.435916095      3.128      4.092
REMARK  11 active torsions:
REMARK  status: ('A' for Active; 'I' for Inactive)
REMARK    1  A    between atoms: C3_4  and  O1_5 
REMARK    2  A    between atoms: C4_7  and  C5_8 
REMARK    3  A    between atoms: C5_8  and  C6_9 
REMARK    4  A    between atoms: C6_9  and  S1_10 
REMARK    5  A    between atoms: S1_10  and  C7_12 
REMARK    6  A    between atoms: C7_12  and  C8_13 
REMARK    7  A    between atoms: C8_13  and  S2_14 
REMARK    8  A    between atoms: S2_14  and  C9_15 
REMARK    9  A    between atoms: C11_18  and  O3_19 
REMARK   10  A    between atoms: C12_21  and  C13_22 
REMARK   11  A    between atoms: C13_22  and  O4_23 
ROOT
HETATM    1  C7  UNL     1       9.729  -1.445  -0.827  1.00  0.00     0.118 C 
ENDROOT
BRANCH   1   2
HETATM    2  S1  UNL     1       8.806  -2.551  -1.831  1.00  0.00     0.015 S 
HETATM    3  O2  UNL     1       9.493  -4.029  -2.078  1.00  0.00    -0.258 OA
BRANCH   2   4
HETATM    4  C6  UNL     1       7.124  -2.609  -1.347  1.00  0.00     0.111 C 
BRANCH   4   5
HETATM    5  C5  UNL     1       6.355  -1.366  -1.658  1.00  0.00     0.051 C 
BRANCH   5   6
HETATM    6  C4  UNL     1       6.745  -0.826  -2.994  1.00  0.00     0.253 C 
HETATM    7  N1  UNL     1       6.389   0.552  -3.172  1.00  0.00     0.094 N 
HETATM    8  C1  UNL     1       7.471   1.517  -3.089  1.00  0.00     0.310 C 
HETATM    9  C2  UNL     1       5.970   0.255  -4.522  1.00  0.00     0.306 C 
HETATM   10  C3  UNL     1       5.760  -1.179  -4.114  1.00  0.00     0.179 C 
BRANCH  10  11
HETATM   11  O1  UNL     1       6.238  -2.134  -5.004  1.00  0.00    -0.392 OA
ATOM     12  H1  UNL     1       6.667  -2.884  -4.610  1.00  0.00     0.210 HD
ENDBRANCH  10  11
ENDBRANCH   5   6
ENDBRANCH   4   5
ENDBRANCH   2   4
ENDBRANCH   1   2
BRANCH   1  13
HETATM   13  C8  UNL     1       9.704  -1.801   0.623  1.00  0.00     0.086 C 
BRANCH  13  14
HETATM   14  S2  UNL     1       8.764  -0.731   1.683  1.00  0.00    -0.162 SA
BRANCH  14  15
HETATM   15  C9  UNL     1       9.613   0.777   2.202  1.00  0.00     0.066 C 
HETATM   16  C10 UNL     1      11.052   0.687   1.910  1.00  0.00     0.092 C 
HETATM   17  S3  UNL     1      11.297   1.919   0.566  1.00  0.00    -0.136 SA
HETATM   18  C11 UNL     1       9.510   2.134   0.166  1.00  0.00     0.186 C 
HETATM   19  C12 UNL     1       8.953   1.924   1.534  1.00  0.00     0.062 C 
BRANCH  18  20
HETATM   20  O3  UNL     1       9.374   3.418  -0.304  1.00  0.00    -0.385 OA
ATOM     21  H3  UNL     1       8.672   3.393  -0.944  1.00  0.00     0.211 HD
ENDBRANCH  18  20
BRANCH  19  22
HETATM   22  C13 UNL     1       8.939   3.184   2.368  1.00  0.00     0.173 C 
BRANCH  22  23
HETATM   23  O4  UNL     1       8.003   3.177   3.372  1.00  0.00    -0.400 OA
ATOM     24  H4  UNL     1       8.284   2.724   4.158  1.00  0.00     0.209 HD
ENDBRANCH  22  23
ENDBRANCH  19  22
ENDBRANCH  14  15
ENDBRANCH  13  14
ENDBRANCH   1  13
TORSDOF 11
ENDMDL
MODEL 5
REMARK VINA RESULT: -5.409726535      2.114      2.766
REMARK  11 active torsions:
REMARK  status: ('A' for Active; 'I' for Inactive)
REMARK    1  A    between atoms: C3_4  and  O1_5 
REMARK    2  A    between atoms: C4_7  and  C5_8 
REMARK    3  A    between atoms: C5_8  and  C6_9 
REMARK    4  A    between atoms: C6_9  and  S1_10 
REMARK    5  A    between atoms: S1_10  and  C7_12 
REMARK    6  A    between atoms: C7_12  and  C8_13 
REMARK    7  A    between atoms: C8_13  and  S2_14 
REMARK    8  A    between atoms: S2_14  and  C9_15 
REMARK    9  A    between atoms: C11_18  and  O3_19 
REMARK   10  A    between atoms: C12_21  and  C13_22 
REMARK   11  A    between atoms: C13_22  and  O4_23 
ROOT
HETATM    1  C7  UNL     1       7.902  -1.989   0.506  1.00  0.00     0.118 C 
ENDROOT
BRANCH   1   2
HETATM    2  S1  UNL     1       6.354  -2.249  -0.280  1.00  0.00     0.015 S 
HETATM    3  O2  UNL     1       5.166  -2.873   0.679  1.00  0.00    -0.258 OA
BRANCH   2   4
HETATM    4  C6  UNL     1       5.864  -0.853  -1.218  1.00  0.00     0.111 C 
BRANCH   4   5
HETATM    5  C5  UNL     1       5.582  -1.152  -2.654  1.00  0.00     0.051 C 
BRANCH   5   6
HETATM    6  C4  UNL     1       6.469  -0.346  -3.545  1.00  0.00     0.253 C 
HETATM    7  N1  UNL     1       6.709   0.979  -3.053  1.00  0.00     0.094 N 
HETATM    8  C1  UNL     1       8.015   1.224  -2.464  1.00  0.00     0.310 C 
HETATM    9  C2  UNL     1       6.566   1.489  -4.396  1.00  0.00     0.306 C 
HETATM   10  C3  UNL     1       5.740   0.278  -4.740  1.00  0.00     0.179 C 
BRANCH  10  11
HETATM   11  O1  UNL     1       6.035  -0.325  -5.957  1.00  0.00    -0.392 OA
ATOM     12  H1  UNL     1       5.945  -1.271  -5.979  1.00  0.00     0.210 HD
ENDBRANCH  10  11
ENDBRANCH   5   6
ENDBRANCH   4   5
ENDBRANCH   2   4
ENDBRANCH   1   2
BRANCH   1  13
HETATM   13  C8  UNL     1       7.868  -0.911   1.538  1.00  0.00     0.086 C 
BRANCH  13  14
HETATM   14  S2  UNL     1       8.852   0.529   1.210  1.00  0.00    -0.162 SA
BRANCH  14  15
HETATM   15  C9  UNL     1      10.583   0.409   1.712  1.00  0.00     0.066 C 
HETATM   16  C10 UNL     1      10.811  -0.814   2.496  1.00  0.00     0.092 C 
HETATM   17  S3  UNL     1      11.850  -1.851   1.388  1.00  0.00    -0.136 SA
HETATM   18  C11 UNL     1      11.553  -0.865  -0.142  1.00  0.00     0.186 C 
HETATM   19  C12 UNL     1      11.418   0.481   0.488  1.00  0.00     0.062 C 
BRANCH  18  20
HETATM   20  O3  UNL     1      12.678  -1.012  -0.917  1.00  0.00    -0.385 OA
ATOM     21  H3  UNL     1      12.790  -0.188  -1.379  1.00  0.00     0.211 HD
ENDBRANCH  18  20
BRANCH  19  22
HETATM   22  C13 UNL     1      12.745   1.171   0.701  1.00  0.00     0.173 C 
BRANCH  22  23
HETATM   23  O4  UNL     1      13.322   1.636  -0.455  1.00  0.00    -0.400 OA
ATOM     24  H4  UNL     1      13.197   2.566  -0.601  1.00  0.00     0.209 HD
ENDBRANCH  22  23
ENDBRANCH  19  22
ENDBRANCH  14  15
ENDBRANCH  13  14
ENDBRANCH   1  13
TORSDOF 11
ENDMDL
