MODEL 1
REMARK VINA RESULT: -7.448162662      0.000      0.000
REMARK  9 active torsions:
REMARK  status: ('A' for Active; 'I' for Inactive)
REMARK    1  A    between atoms: C2_2  and  C3_3 
REMARK    2  A    between atoms: C3_3  and  C4_4 
REMARK    3  A    between atoms: C4_4  and  C5_5 
REMARK    4  A    between atoms: C5_5  and  C6_6 
REMARK    5  A    between atoms: C7_7  and  C8_8 
REMARK    6  A    between atoms: C8_8  and  O1_10 
REMARK    7  A    between atoms: C8_8  and  C10_12 
REMARK    8  A    between atoms: C22_24  and  O2_25 
REMARK    9  A    between atoms: C23_27  and  O3_28 
ROOT
HETATM    1  C10 UNL     1      14.130  -3.288  13.088  1.00  0.00     0.037 C 
HETATM    2  C11 UNL     1      13.044  -3.009  12.044  1.00  0.00     0.010 C 
HETATM    3  C12 UNL     1      12.327  -4.341  11.856  1.00  0.00     0.010 C 
HETATM    4  C13 UNL     1      12.220  -4.795  13.252  1.00  0.00    -0.036 C 
HETATM    5  C14 UNL     1      10.909  -4.204  13.803  1.00  0.00     0.016 C 
HETATM    6  C15 UNL     1      13.439  -4.187  13.965  1.00  0.00     0.002 C 
HETATM    7  C16 UNL     1      14.094  -5.295  14.679  1.00  0.00     0.011 C 
HETATM    8  C17 UNL     1      12.871  -6.189  14.942  1.00  0.00    -0.001 C 
HETATM    9  C18 UNL     1      12.210  -6.235  13.558  1.00  0.00    -0.001 C 
HETATM   10  C19 UNL     1      12.823  -7.188  12.639  1.00  0.00     0.006 C 
HETATM   11  C20 UNL     1      13.694  -8.257  13.228  1.00  0.00     0.008 C 
HETATM   12  C21 UNL     1      13.460  -8.610  14.638  1.00  0.00     0.025 C 
HETATM   13  C22 UNL     1      12.446  -9.756  14.709  1.00  0.00     0.151 C 
HETATM   14  C23 UNL     1      12.325 -10.278  16.112  1.00  0.00     0.147 C 
HETATM   15  C24 UNL     1      12.051  -9.164  17.075  1.00  0.00     0.035 C 
HETATM   16  C25 UNL     1      11.899  -7.849  16.384  1.00  0.00     0.012 C 
HETATM   17  C26 UNL     1      13.143  -7.484  15.556  1.00  0.00    -0.034 C 
HETATM   18  C27 UNL     1      14.247  -7.282  16.608  1.00  0.00     0.016 C 
ENDROOT
BRANCH   1  19
HETATM   19  C8  UNL     1      15.401  -3.581  12.420  1.00  0.00     0.121 C 
HETATM   20  C9  UNL     1      16.578  -3.225  13.314  1.00  0.00     0.061 C 
BRANCH  19  21
HETATM   21  C7  UNL     1      15.538  -2.705  11.227  1.00  0.00    -0.068 C 
HETATM   22  C6  UNL     1      15.669  -1.993  10.263  1.00  0.00    -0.103 C 
BRANCH  22  23
HETATM   23  C5  UNL     1      15.846  -1.135   9.061  1.00  0.00     0.094 C 
BRANCH  23  24
HETATM   24  C4  UNL     1      16.994  -0.193   9.245  1.00  0.00     0.012 C 
BRANCH  24  25
HETATM   25  C3  UNL     1      18.305  -0.913   9.185  1.00  0.00     0.000 C 
BRANCH  25  26
HETATM   26  C2  UNL     1      19.078  -0.679  10.455  1.00  0.00    -0.005 C 
HETATM   27  C1  UNL     1      19.379  -2.078  11.032  1.00  0.00     0.005 C 
ENDBRANCH  25  26
ENDBRANCH  24  25
ENDBRANCH  23  24
ENDBRANCH  22  23
ENDBRANCH  19  21
BRANCH  19  28
HETATM   28  O1  UNL     1      15.646  -4.844  11.987  1.00  0.00    -0.378 OA
ATOM     29  H1  UNL     1      15.616  -5.396  12.760  1.00  0.00     0.211 HD
ENDBRANCH  19  28
ENDBRANCH   1  19
BRANCH  13  30
HETATM   30  O2  UNL     1      11.253  -9.467  14.102  1.00  0.00    -0.393 OA
ATOM     31  H2  UNL     1      10.507  -9.889  14.513  1.00  0.00     0.210 HD
ENDBRANCH  13  30
BRANCH  14  32
HETATM   32  O3  UNL     1      13.460 -11.021  16.459  1.00  0.00    -0.393 OA
ATOM     33  H3  UNL     1      13.576 -11.031  17.403  1.00  0.00     0.210 HD
ENDBRANCH  14  32
TORSDOF 9
ENDMDL
MODEL 2
REMARK VINA RESULT: -7.425037601      1.622      2.772
REMARK  9 active torsions:
REMARK  status: ('A' for Active; 'I' for Inactive)
REMARK    1  A    between atoms: C2_2  and  C3_3 
REMARK    2  A    between atoms: C3_3  and  C4_4 
REMARK    3  A    between atoms: C4_4  and  C5_5 
REMARK    4  A    between atoms: C5_5  and  C6_6 
REMARK    5  A    between atoms: C7_7  and  C8_8 
REMARK    6  A    between atoms: C8_8  and  O1_10 
REMARK    7  A    between atoms: C8_8  and  C10_12 
REMARK    8  A    between atoms: C22_24  and  O2_25 
REMARK    9  A    between atoms: C23_27  and  O3_28 
ROOT
HETATM    1  C10 UNL     1      16.833  -4.028  13.112  1.00  0.00     0.037 C 
HETATM    2  C11 UNL     1      15.978  -2.759  13.029  1.00  0.00     0.010 C 
HETATM    3  C12 UNL     1      14.550  -3.229  13.283  1.00  0.00     0.010 C 
HETATM    4  C13 UNL     1      14.765  -4.169  14.396  1.00  0.00    -0.036 C 
HETATM    5  C14 UNL     1      14.687  -3.337  15.690  1.00  0.00     0.016 C 
HETATM    6  C15 UNL     1      16.183  -4.724  14.183  1.00  0.00     0.002 C 
HETATM    7  C16 UNL     1      16.066  -6.189  14.253  1.00  0.00     0.011 C 
HETATM    8  C17 UNL     1      14.860  -6.307  15.199  1.00  0.00    -0.001 C 
HETATM    9  C18 UNL     1      13.866  -5.323  14.567  1.00  0.00    -0.001 C 
HETATM   10  C19 UNL     1      13.139  -5.867  13.425  1.00  0.00     0.006 C 
HETATM   11  C20 UNL     1      13.118  -7.357  13.262  1.00  0.00     0.008 C 
HETATM   12  C21 UNL     1      13.339  -8.166  14.472  1.00  0.00     0.025 C 
HETATM   13  C22 UNL     1      11.988  -8.476  15.125  1.00  0.00     0.151 C 
HETATM   14  C23 UNL     1      12.149  -9.459  16.248  1.00  0.00     0.147 C 
HETATM   15  C24 UNL     1      13.200  -9.001  17.212  1.00  0.00     0.035 C 
HETATM   16  C25 UNL     1      13.754  -7.664  16.847  1.00  0.00     0.012 C 
HETATM   17  C26 UNL     1      14.355  -7.655  15.431  1.00  0.00    -0.034 C 
HETATM   18  C27 UNL     1      15.565  -8.599  15.531  1.00  0.00     0.016 C 
ENDROOT
BRANCH   1  19
HETATM   19  C8  UNL     1      17.050  -4.573  11.770  1.00  0.00     0.121 C 
HETATM   20  C9  UNL     1      18.512  -4.932  11.558  1.00  0.00     0.061 C 
BRANCH  19  21
HETATM   21  C7  UNL     1      16.758  -3.519  10.762  1.00  0.00    -0.068 C 
HETATM   22  C6  UNL     1      16.505  -2.660   9.955  1.00  0.00    -0.103 C 
BRANCH  22  23
HETATM   23  C5  UNL     1      16.197  -1.581   8.979  1.00  0.00     0.094 C 
BRANCH  23  24
HETATM   24  C4  UNL     1      15.290  -0.558   9.586  1.00  0.00     0.012 C 
BRANCH  24  25
HETATM   25  C3  UNL     1      14.025  -1.180  10.088  1.00  0.00     0.000 C 
BRANCH  25  26
HETATM   26  C2  UNL     1      13.038  -0.107  10.463  1.00  0.00    -0.005 C 
HETATM   27  C1  UNL     1      12.320  -0.615  11.731  1.00  0.00     0.005 C 
ENDBRANCH  25  26
ENDBRANCH  24  25
ENDBRANCH  23  24
ENDBRANCH  22  23
ENDBRANCH  19  21
BRANCH  19  28
HETATM   28  O1  UNL     1      16.349  -5.669  11.378  1.00  0.00    -0.378 OA
ATOM     29  H1  UNL     1      16.870  -6.419  11.640  1.00  0.00     0.211 HD
ENDBRANCH  19  28
ENDBRANCH   1  19
BRANCH  13  30
HETATM   30  O2  UNL     1      11.268  -7.356  15.444  1.00  0.00    -0.393 OA
ATOM     31  H2  UNL     1      11.482  -7.000  16.298  1.00  0.00     0.210 HD
ENDBRANCH  13  30
BRANCH  14  32
HETATM   32  O3  UNL     1      12.405 -10.741  15.746  1.00  0.00    -0.393 OA
ATOM     33  H3  UNL     1      13.066 -11.179  16.270  1.00  0.00     0.210 HD
ENDBRANCH  14  32
TORSDOF 9
ENDMDL
MODEL 3
REMARK VINA RESULT: -7.281559216      1.493      2.504
REMARK  9 active torsions:
REMARK  status: ('A' for Active; 'I' for Inactive)
REMARK    1  A    between atoms: C2_2  and  C3_3 
REMARK    2  A    between atoms: C3_3  and  C4_4 
REMARK    3  A    between atoms: C4_4  and  C5_5 
REMARK    4  A    between atoms: C5_5  and  C6_6 
REMARK    5  A    between atoms: C7_7  and  C8_8 
REMARK    6  A    between atoms: C8_8  and  O1_10 
REMARK    7  A    between atoms: C8_8  and  C10_12 
REMARK    8  A    between atoms: C22_24  and  O2_25 
REMARK    9  A    between atoms: C23_27  and  O3_28 
ROOT
HETATM    1  C10 UNL     1      17.063  -3.887  12.936  1.00  0.00     0.037 C 
HETATM    2  C11 UNL     1      16.119  -2.721  12.625  1.00  0.00     0.010 C 
HETATM    3  C12 UNL     1      14.718  -3.283  12.832  1.00  0.00     0.010 C 
HETATM    4  C13 UNL     1      14.912  -4.055  14.071  1.00  0.00    -0.036 C 
HETATM    5  C14 UNL     1      14.658  -3.080  15.236  1.00  0.00     0.016 C 
HETATM    6  C15 UNL     1      16.383  -4.501  14.038  1.00  0.00     0.002 C 
HETATM    7  C16 UNL     1      16.379  -5.951  14.289  1.00  0.00     0.011 C 
HETATM    8  C17 UNL     1      15.110  -6.060  15.151  1.00  0.00    -0.001 C 
HETATM    9  C18 UNL     1      14.098  -5.255  14.324  1.00  0.00    -0.001 C 
HETATM   10  C19 UNL     1      13.516  -6.000  13.212  1.00  0.00     0.006 C 
HETATM   11  C20 UNL     1      13.629  -7.495  13.243  1.00  0.00     0.008 C 
HETATM   12  C21 UNL     1      13.811  -8.125  14.561  1.00  0.00     0.025 C 
HETATM   13  C22 UNL     1      12.439  -8.473  15.147  1.00  0.00     0.151 C 
HETATM   14  C23 UNL     1      12.582  -9.291  16.398  1.00  0.00     0.147 C 
HETATM   15  C24 UNL     1      13.507  -8.624  17.369  1.00  0.00     0.035 C 
HETATM   16  C25 UNL     1      13.981  -7.298  16.874  1.00  0.00     0.012 C 
HETATM   17  C26 UNL     1      14.697  -7.410  15.518  1.00  0.00    -0.034 C 
HETATM   18  C27 UNL     1      15.966  -8.220  15.829  1.00  0.00     0.016 C 
ENDROOT
BRANCH   1  19
HETATM   19  C8  UNL     1      17.436  -4.572  11.696  1.00  0.00     0.121 C 
HETATM   20  C9  UNL     1      18.391  -5.721  11.975  1.00  0.00     0.061 C 
BRANCH  19  21
HETATM   21  C7  UNL     1      18.199  -3.633  10.831  1.00  0.00    -0.068 C 
HETATM   22  C6  UNL     1      18.822  -2.862  10.146  1.00  0.00    -0.103 C 
BRANCH  22  23
HETATM   23  C5  UNL     1      19.614  -1.917   9.312  1.00  0.00     0.094 C 
BRANCH  23  24
HETATM   24  C4  UNL     1      18.713  -0.986   8.564  1.00  0.00     0.012 C 
BRANCH  24  25
HETATM   25  C3  UNL     1      17.871  -0.174   9.497  1.00  0.00     0.000 C 
BRANCH  25  26
HETATM   26  C2  UNL     1      16.494   0.011   8.919  1.00  0.00    -0.005 C 
HETATM   27  C1  UNL     1      15.700  -1.255   9.302  1.00  0.00     0.005 C 
ENDBRANCH  25  26
ENDBRANCH  24  25
ENDBRANCH  23  24
ENDBRANCH  22  23
ENDBRANCH  19  21
BRANCH  19  28
HETATM   28  O1  UNL     1      16.461  -5.096  10.909  1.00  0.00    -0.378 OA
ATOM     29  H1  UNL     1      16.458  -6.030  11.086  1.00  0.00     0.211 HD
ENDBRANCH  19  28
ENDBRANCH   1  19
BRANCH  13  30
HETATM   30  O2  UNL     1      11.606  -7.392  15.264  1.00  0.00    -0.393 OA
ATOM     31  H2  UNL     1      11.307  -7.239  16.152  1.00  0.00     0.210 HD
ENDBRANCH  13  30
BRANCH  14  32
HETATM   32  O3  UNL     1      12.982 -10.597  16.087  1.00  0.00    -0.393 OA
ATOM     33  H3  UNL     1      13.615 -10.912  16.722  1.00  0.00     0.210 HD
ENDBRANCH  14  32
TORSDOF 9
ENDMDL
MODEL 4
REMARK VINA RESULT: -7.271642513      1.926      4.270
REMARK  9 active torsions:
REMARK  status: ('A' for Active; 'I' for Inactive)
REMARK    1  A    between atoms: C2_2  and  C3_3 
REMARK    2  A    between atoms: C3_3  and  C4_4 
REMARK    3  A    between atoms: C4_4  and  C5_5 
REMARK    4  A    between atoms: C5_5  and  C6_6 
REMARK    5  A    between atoms: C7_7  and  C8_8 
REMARK    6  A    between atoms: C8_8  and  O1_10 
REMARK    7  A    between atoms: C8_8  and  C10_12 
REMARK    8  A    between atoms: C22_24  and  O2_25 
REMARK    9  A    between atoms: C23_27  and  O3_28 
ROOT
HETATM    1  C10 UNL     1      17.087  -4.147  12.601  1.00  0.00     0.037 C 
HETATM    2  C11 UNL     1      17.111  -3.158  13.770  1.00  0.00     0.010 C 
HETATM    3  C12 UNL     1      15.842  -3.451  14.561  1.00  0.00     0.010 C 
HETATM    4  C13 UNL     1      15.846  -4.923  14.551  1.00  0.00    -0.036 C 
HETATM    5  C14 UNL     1      16.671  -5.365  15.775  1.00  0.00     0.016 C 
HETATM    6  C15 UNL     1      16.553  -5.313  13.242  1.00  0.00     0.002 C 
HETATM    7  C16 UNL     1      15.672  -6.282  12.571  1.00  0.00     0.011 C 
HETATM    8  C17 UNL     1      14.993  -6.907  13.801  1.00  0.00    -0.001 C 
HETATM    9  C18 UNL     1      14.574  -5.663  14.596  1.00  0.00    -0.001 C 
HETATM   10  C19 UNL     1      13.342  -5.041  14.119  1.00  0.00     0.006 C 
HETATM   11  C20 UNL     1      12.445  -5.864  13.244  1.00  0.00     0.008 C 
HETATM   12  C21 UNL     1      12.559  -7.327  13.354  1.00  0.00     0.025 C 
HETATM   13  C22 UNL     1      11.567  -7.832  14.407  1.00  0.00     0.151 C 
HETATM   14  C23 UNL     1      11.510  -9.332  14.413  1.00  0.00     0.147 C 
HETATM   15  C24 UNL     1      12.882  -9.918  14.541  1.00  0.00     0.035 C 
HETATM   16  C25 UNL     1      13.930  -8.867  14.701  1.00  0.00     0.012 C 
HETATM   17  C26 UNL     1      13.932  -7.871  13.529  1.00  0.00    -0.034 C 
HETATM   18  C27 UNL     1      14.366  -8.716  12.319  1.00  0.00     0.016 C 
ENDROOT
BRANCH   1  19
HETATM   19  C8  UNL     1      16.512  -3.506  11.416  1.00  0.00     0.121 C 
HETATM   20  C9  UNL     1      17.257  -2.226  11.075  1.00  0.00     0.061 C 
BRANCH  19  21
HETATM   21  C7  UNL     1      15.121  -3.078  11.720  1.00  0.00    -0.068 C 
HETATM   22  C6  UNL     1      13.994  -2.719  11.951  1.00  0.00    -0.103 C 
BRANCH  22  23
HETATM   23  C5  UNL     1      12.595  -2.285  12.212  1.00  0.00     0.094 C 
BRANCH  23  24
HETATM   24  C4  UNL     1      12.254  -1.074  11.402  1.00  0.00     0.012 C 
BRANCH  24  25
HETATM   25  C3  UNL     1      11.505  -0.066  12.216  1.00  0.00     0.000 C 
BRANCH  25  26
HETATM   26  C2  UNL     1      10.450  -0.753  13.042  1.00  0.00    -0.005 C 
HETATM   27  C1  UNL     1       9.445   0.345  13.444  1.00  0.00     0.005 C 
ENDBRANCH  25  26
ENDBRANCH  24  25
ENDBRANCH  23  24
ENDBRANCH  22  23
ENDBRANCH  19  21
BRANCH  19  28
HETATM   28  O1  UNL     1      16.444  -4.204  10.253  1.00  0.00    -0.378 OA
ATOM     29  H1  UNL     1      17.115  -4.874  10.310  1.00  0.00     0.211 HD
ENDBRANCH  19  28
ENDBRANCH   1  19
BRANCH  13  30
HETATM   30  O2  UNL     1      11.743  -7.261  15.639  1.00  0.00    -0.393 OA
ATOM     31  H2  UNL     1      12.358  -7.731  16.189  1.00  0.00     0.210 HD
ENDBRANCH  13  30
BRANCH  14  32
HETATM   32  O3  UNL     1      10.829  -9.803  13.284  1.00  0.00    -0.393 OA
ATOM     33  H3  UNL     1      11.434 -10.213  12.676  1.00  0.00     0.210 HD
ENDBRANCH  14  32
TORSDOF 9
ENDMDL
MODEL 5
REMARK VINA RESULT: -7.235848300      1.462      2.042
REMARK  9 active torsions:
REMARK  status: ('A' for Active; 'I' for Inactive)
REMARK    1  A    between atoms: C2_2  and  C3_3 
REMARK    2  A    between atoms: C3_3  and  C4_4 
REMARK    3  A    between atoms: C4_4  and  C5_5 
REMARK    4  A    between atoms: C5_5  and  C6_6 
REMARK    5  A    between atoms: C7_7  and  C8_8 
REMARK    6  A    between atoms: C8_8  and  O1_10 
REMARK    7  A    between atoms: C8_8  and  C10_12 
REMARK    8  A    between atoms: C22_24  and  O2_25 
REMARK    9  A    between atoms: C23_27  and  O3_28 
ROOT
HETATM    1  C10 UNL     1      16.767  -3.971  13.066  1.00  0.00     0.037 C 
HETATM    2  C11 UNL     1      15.893  -2.716  12.979  1.00  0.00     0.010 C 
HETATM    3  C12 UNL     1      14.474  -3.205  13.243  1.00  0.00     0.010 C 
HETATM    4  C13 UNL     1      14.707  -4.134  14.361  1.00  0.00    -0.036 C 
HETATM    5  C14 UNL     1      14.623  -3.295  15.650  1.00  0.00     0.016 C 
HETATM    6  C15 UNL     1      16.132  -4.670  14.145  1.00  0.00     0.002 C 
HETATM    7  C16 UNL     1      16.037  -6.136  14.225  1.00  0.00     0.011 C 
HETATM    8  C17 UNL     1      14.837  -6.265  15.178  1.00  0.00    -0.001 C 
HETATM    9  C18 UNL     1      13.826  -5.299  14.543  1.00  0.00    -0.001 C 
HETATM   10  C19 UNL     1      13.102  -5.861  13.408  1.00  0.00     0.006 C 
HETATM   11  C20 UNL     1      13.101  -7.353  13.255  1.00  0.00     0.008 C 
HETATM   12  C21 UNL     1      13.340  -8.151  14.469  1.00  0.00     0.025 C 
HETATM   13  C22 UNL     1      11.997  -8.476  15.130  1.00  0.00     0.151 C 
HETATM   14  C23 UNL     1      12.177  -9.449  16.259  1.00  0.00     0.147 C 
HETATM   15  C24 UNL     1      13.225  -8.970  17.215  1.00  0.00     0.035 C 
HETATM   16  C25 UNL     1      13.758  -7.627  16.839  1.00  0.00     0.012 C 
HETATM   17  C26 UNL     1      14.352  -7.619  15.420  1.00  0.00    -0.034 C 
HETATM   18  C27 UNL     1      15.576  -8.544  15.520  1.00  0.00     0.016 C 
ENDROOT
BRANCH   1  19
HETATM   19  C8  UNL     1      16.986  -4.522  11.727  1.00  0.00     0.121 C 
HETATM   20  C9  UNL     1      18.434  -4.946  11.543  1.00  0.00     0.061 C 
BRANCH  19  21
HETATM   21  C7  UNL     1      16.761  -3.453  10.717  1.00  0.00    -0.068 C 
HETATM   22  C6  UNL     1      16.580  -2.574   9.913  1.00  0.00    -0.103 C 
BRANCH  22  23
HETATM   23  C5  UNL     1      16.381  -1.478   8.927  1.00  0.00     0.094 C 
BRANCH  23  24
HETATM   24  C4  UNL     1      17.226  -0.293   9.271  1.00  0.00     0.012 C 
BRANCH  24  25
HETATM   25  C3  UNL     1      18.599  -0.708   9.701  1.00  0.00     0.000 C 
BRANCH  25  26
HETATM   26  C2  UNL     1      19.421  -1.089   8.499  1.00  0.00    -0.005 C 
HETATM   27  C1  UNL     1      20.235  -2.330   8.918  1.00  0.00     0.005 C 
ENDBRANCH  25  26
ENDBRANCH  24  25
ENDBRANCH  23  24
ENDBRANCH  22  23
ENDBRANCH  19  21
BRANCH  19  28
HETATM   28  O1  UNL     1      16.245  -5.584  11.318  1.00  0.00    -0.378 OA
ATOM     29  H1  UNL     1      15.382  -5.462  11.697  1.00  0.00     0.211 HD
ENDBRANCH  19  28
ENDBRANCH   1  19
BRANCH  13  30
HETATM   30  O2  UNL     1      11.261  -7.364  15.446  1.00  0.00    -0.393 OA
ATOM     31  H2  UNL     1      10.376  -7.564  15.726  1.00  0.00     0.210 HD
ENDBRANCH  13  30
BRANCH  14  32
HETATM   32  O3  UNL     1      12.448 -10.731  15.764  1.00  0.00    -0.393 OA
ATOM     33  H3  UNL     1      13.275 -11.052  16.106  1.00  0.00     0.210 HD
ENDBRANCH  14  32
TORSDOF 9
ENDMDL
