MODEL 1
REMARK VINA RESULT: -8.510114020      0.000      0.000
REMARK  6 active torsions:
REMARK  status: ('A' for Active; 'I' for Inactive)
REMARK    1  A    between atoms: C2_2  and  C3_3 
REMARK    2  A    between atoms: C6_6  and  O1_7 
REMARK    3  A    between atoms: C13_15  and  C14_16 
REMARK    4  A    between atoms: C21_23  and  C22_24 
REMARK    5  A    between atoms: C24_26  and  C25_27 
REMARK    6  A    between atoms: C26_30  and  O4_31 
ROOT
HETATM    1  C3  UNL     1      14.494  -6.368  13.905  1.00  0.00    -0.022 C 
HETATM    2  C4  UNL     1      13.297  -6.428  14.834  1.00  0.00     0.019 C 
HETATM    3  C5  UNL     1      15.666  -5.792  14.636  1.00  0.00     0.045 C 
HETATM    4  C6  UNL     1      16.623  -5.215  13.636  1.00  0.00     0.130 C 
HETATM    5  C7  UNL     1      16.113  -3.895  13.007  1.00  0.00     0.019 C 
HETATM    6  C8  UNL     1      16.576  -2.857  13.978  1.00  0.00     0.021 C 
HETATM    7  C9  UNL     1      16.832  -3.877  11.692  1.00  0.00     0.012 C 
HETATM    8  C10 UNL     1      18.275  -4.194  11.723  1.00  0.00     0.011 C 
HETATM    9  C11 UNL     1      19.107  -3.034  11.277  1.00  0.00    -0.009 C 
HETATM   10  C12 UNL     1      20.057  -3.372  10.167  1.00  0.00     0.011 C 
HETATM   11  C13 UNL     1      18.115  -1.958  11.006  1.00  0.00     0.029 C 
HETATM   12  C17 UNL     1      16.778  -2.653  10.847  1.00  0.00    -0.014 C 
HETATM   13  C18 UNL     1      16.550  -3.053   9.406  1.00  0.00     0.021 C 
HETATM   14  C19 UNL     1      15.672  -1.720  11.184  1.00  0.00    -0.020 C 
HETATM   15  C20 UNL     1      14.451  -1.959  11.621  1.00  0.00    -0.018 C 
HETATM   16  C21 UNL     1      13.912  -3.315  11.878  1.00  0.00     0.072 C 
HETATM   17  C26 UNL     1      14.646  -4.025  12.966  1.00  0.00     0.079 C 
HETATM   18  C27 UNL     1      14.230  -5.512  12.723  1.00  0.00     0.053 C 
ENDROOT
BRANCH  16  19
HETATM   19  C22 UNL     1      12.441  -3.097  12.181  1.00  0.00    -0.067 C 
HETATM   20  C23 UNL     1      11.430  -4.121  11.880  1.00  0.00     0.044 C 
HETATM   21  C24 UNL     1      12.078  -1.990  12.783  1.00  0.00     0.087 C 
BRANCH  21  22
HETATM   22  C25 UNL     1      10.724  -1.667  13.119  1.00  0.00     0.198 C 
HETATM   23  O2  UNL     1      10.328  -0.481  13.141  1.00  0.00    -0.644 OA
HETATM   24  O3  UNL     1       9.780  -2.668  13.440  1.00  0.00    -0.644 OA
ENDBRANCH  21  22
ENDBRANCH  16  19
BRANCH  17  25
HETATM   25  O4  UNL     1      14.057  -3.662  14.163  1.00  0.00    -0.388 OA
ATOM     26  H4  UNL     1      14.377  -4.182  14.891  1.00  0.00     0.210 HD
ENDBRANCH  17  25
BRANCH   4  27
HETATM   27  O1  UNL     1      16.855  -6.185  12.674  1.00  0.00    -0.395 OA
ATOM     28  H1  UNL     1      16.010  -6.503  12.381  1.00  0.00     0.210 HD
ENDBRANCH   4  27
BRANCH   1  29
HETATM   29  C2  UNL     1      14.764  -7.750  13.429  1.00  0.00    -0.027 C 
HETATM   30  C1  UNL     1      13.891  -8.450  12.717  1.00  0.00     0.007 C 
ENDBRANCH   1  29
BRANCH  11  31
HETATM   31  C14 UNL     1      18.448  -0.905  10.076  1.00  0.00    -0.088 C 
HETATM   32  C15 UNL     1      18.709   0.324  10.541  1.00  0.00     0.014 C 
HETATM   33  C16 UNL     1      18.566  -0.982   8.594  1.00  0.00     0.043 C 
ENDBRANCH  11  31
TORSDOF 6
ENDMDL
MODEL 2
REMARK VINA RESULT: -8.453549563      2.366      5.906
REMARK  6 active torsions:
REMARK  status: ('A' for Active; 'I' for Inactive)
REMARK    1  A    between atoms: C2_2  and  C3_3 
REMARK    2  A    between atoms: C6_6  and  O1_7 
REMARK    3  A    between atoms: C13_15  and  C14_16 
REMARK    4  A    between atoms: C21_23  and  C22_24 
REMARK    5  A    between atoms: C24_26  and  C25_27 
REMARK    6  A    between atoms: C26_30  and  O4_31 
ROOT
HETATM    1  C3  UNL     1      12.575  -2.384  11.945  1.00  0.00    -0.022 C 
HETATM    2  C4  UNL     1      12.569  -0.938  11.492  1.00  0.00     0.019 C 
HETATM    3  C5  UNL     1      12.588  -2.440  13.441  1.00  0.00     0.045 C 
HETATM    4  C6  UNL     1      13.155  -3.761  13.870  1.00  0.00     0.130 C 
HETATM    5  C7  UNL     1      14.685  -3.858  13.654  1.00  0.00     0.019 C 
HETATM    6  C8  UNL     1      15.242  -3.266  14.907  1.00  0.00     0.021 C 
HETATM    7  C9  UNL     1      14.888  -5.337  13.524  1.00  0.00     0.012 C 
HETATM    8  C10 UNL     1      14.209  -6.188  14.523  1.00  0.00     0.011 C 
HETATM    9  C11 UNL     1      15.186  -6.942  15.368  1.00  0.00    -0.009 C 
HETATM   10  C12 UNL     1      14.943  -8.422  15.387  1.00  0.00     0.011 C 
HETATM   11  C13 UNL     1      16.516  -6.488  14.876  1.00  0.00     0.029 C 
HETATM   12  C17 UNL     1      16.273  -5.885  13.508  1.00  0.00    -0.014 C 
HETATM   13  C18 UNL     1      16.376  -6.943  12.431  1.00  0.00     0.021 C 
HETATM   14  C19 UNL     1      17.326  -4.887  13.192  1.00  0.00    -0.020 C 
HETATM   15  C20 UNL     1      17.302  -3.836  12.396  1.00  0.00    -0.018 C 
HETATM   16  C21 UNL     1      16.121  -3.423  11.603  1.00  0.00     0.072 C 
HETATM   17  C26 UNL     1      14.963  -3.038  12.461  1.00  0.00     0.079 C 
HETATM   18  C27 UNL     1      13.771  -3.110  11.452  1.00  0.00     0.053 C 
ENDROOT
BRANCH  16  19
HETATM   19  C22 UNL     1      16.621  -2.296  10.719  1.00  0.00    -0.067 C 
HETATM   20  C23 UNL     1      15.727  -1.577   9.801  1.00  0.00     0.044 C 
HETATM   21  C24 UNL     1      17.873  -1.916  10.828  1.00  0.00     0.087 C 
BRANCH  21  22
HETATM   22  C25 UNL     1      18.464  -0.870  10.050  1.00  0.00     0.198 C 
HETATM   23  O2  UNL     1      18.618   0.278  10.520  1.00  0.00    -0.644 OA
HETATM   24  O3  UNL     1      18.896  -1.086   8.722  1.00  0.00    -0.644 OA
ENDBRANCH  21  22
ENDBRANCH  16  19
BRANCH  17  25
HETATM   25  O4  UNL     1      15.109  -1.699  12.773  1.00  0.00    -0.388 OA
ATOM     26  H4  UNL     1      14.433  -1.163  12.376  1.00  0.00     0.210 HD
ENDBRANCH  17  25
BRANCH   4  27
HETATM   27  O1  UNL     1      12.475  -4.750  13.178  1.00  0.00    -0.395 OA
ATOM     28  H1  UNL     1      13.124  -5.297  12.751  1.00  0.00     0.210 HD
ENDBRANCH   4  27
BRANCH   1  29
HETATM   29  C2  UNL     1      11.366  -3.040  11.379  1.00  0.00    -0.027 C 
HETATM   30  C1  UNL     1      11.291  -3.444  10.118  1.00  0.00     0.007 C 
ENDBRANCH   1  29
BRANCH  11  31
HETATM   31  C14 UNL     1      17.665  -7.346  15.046  1.00  0.00    -0.088 C 
HETATM   32  C15 UNL     1      18.254  -7.426  16.247  1.00  0.00     0.014 C 
HETATM   33  C16 UNL     1      18.327  -8.218  14.036  1.00  0.00     0.043 C 
ENDBRANCH  11  31
TORSDOF 6
ENDMDL
MODEL 3
REMARK VINA RESULT: -8.415588482      2.224      6.449
REMARK  6 active torsions:
REMARK  status: ('A' for Active; 'I' for Inactive)
REMARK    1  A    between atoms: C2_2  and  C3_3 
REMARK    2  A    between atoms: C6_6  and  O1_7 
REMARK    3  A    between atoms: C13_15  and  C14_16 
REMARK    4  A    between atoms: C21_23  and  C22_24 
REMARK    5  A    between atoms: C24_26  and  C25_27 
REMARK    6  A    between atoms: C26_30  and  O4_31 
ROOT
HETATM    1  C3  UNL     1      12.683  -2.181  11.487  1.00  0.00    -0.022 C 
HETATM    2  C4  UNL     1      13.108  -0.778  11.100  1.00  0.00     0.019 C 
HETATM    3  C5  UNL     1      12.253  -2.196  12.921  1.00  0.00     0.045 C 
HETATM    4  C6  UNL     1      12.385  -3.593  13.450  1.00  0.00     0.130 C 
HETATM    5  C7  UNL     1      13.858  -4.013  13.680  1.00  0.00     0.019 C 
HETATM    6  C8  UNL     1      14.141  -3.515  15.060  1.00  0.00     0.021 C 
HETATM    7  C9  UNL     1      13.778  -5.505  13.564  1.00  0.00     0.012 C 
HETATM    8  C10 UNL     1      12.679  -6.168  14.296  1.00  0.00     0.011 C 
HETATM    9  C11 UNL     1      13.193  -7.084  15.360  1.00  0.00    -0.009 C 
HETATM   10  C12 UNL     1      12.653  -8.480  15.258  1.00  0.00     0.011 C 
HETATM   11  C13 UNL     1      14.672  -6.932  15.288  1.00  0.00     0.029 C 
HETATM   12  C17 UNL     1      14.964  -6.329  13.928  1.00  0.00    -0.014 C 
HETATM   13  C18 UNL     1      15.151  -7.415  12.891  1.00  0.00     0.021 C 
HETATM   14  C19 UNL     1      16.247  -5.582  13.962  1.00  0.00    -0.020 C 
HETATM   15  C20 UNL     1      16.672  -4.572  13.229  1.00  0.00    -0.018 C 
HETATM   16  C21 UNL     1      15.881  -3.944  12.144  1.00  0.00     0.072 C 
HETATM   17  C26 UNL     1      14.631  -3.303  12.646  1.00  0.00     0.079 C 
HETATM   18  C27 UNL     1      13.793  -3.152  11.335  1.00  0.00     0.053 C 
ENDROOT
BRANCH  16  19
HETATM   19  C22 UNL     1      16.838  -2.971  11.480  1.00  0.00    -0.067 C 
HETATM   20  C23 UNL     1      18.138  -2.636  12.078  1.00  0.00     0.044 C 
HETATM   21  C24 UNL     1      16.517  -2.467  10.312  1.00  0.00     0.087 C 
BRANCH  21  22
HETATM   22  C25 UNL     1      17.331  -1.540   9.588  1.00  0.00     0.198 C 
HETATM   23  O2  UNL     1      16.991  -0.343   9.459  1.00  0.00    -0.644 OA
HETATM   24  O3  UNL     1      18.550  -1.931   8.989  1.00  0.00    -0.644 OA
ENDBRANCH  21  22
ENDBRANCH  16  19
BRANCH  17  25
HETATM   25  O4  UNL     1      14.957  -2.015  13.032  1.00  0.00    -0.388 OA
ATOM     26  H4  UNL     1      15.883  -1.834  12.928  1.00  0.00     0.210 HD
ENDBRANCH  17  25
BRANCH   4  27
HETATM   27  O1  UNL     1      11.745  -4.438  12.559  1.00  0.00    -0.395 OA
ATOM     28  H1  UNL     1      10.967  -4.772  12.990  1.00  0.00     0.210 HD
ENDBRANCH   4  27
BRANCH   1  29
HETATM   29  C2  UNL     1      11.581  -2.585  10.575  1.00  0.00    -0.027 C 
HETATM   30  C1  UNL     1      11.755  -2.769   9.274  1.00  0.00     0.007 C 
ENDBRANCH   1  29
BRANCH  11  31
HETATM   31  C14 UNL     1      15.519  -8.005  15.751  1.00  0.00    -0.088 C 
HETATM   32  C15 UNL     1      16.702  -7.714  16.309  1.00  0.00     0.014 C 
HETATM   33  C16 UNL     1      15.259  -9.471  15.715  1.00  0.00     0.043 C 
ENDBRANCH  11  31
TORSDOF 6
ENDMDL
MODEL 4
REMARK VINA RESULT: -8.132764654      2.133      6.568
REMARK  6 active torsions:
REMARK  status: ('A' for Active; 'I' for Inactive)
REMARK    1  A    between atoms: C2_2  and  C3_3 
REMARK    2  A    between atoms: C6_6  and  O1_7 
REMARK    3  A    between atoms: C13_15  and  C14_16 
REMARK    4  A    between atoms: C21_23  and  C22_24 
REMARK    5  A    between atoms: C24_26  and  C25_27 
REMARK    6  A    between atoms: C26_30  and  O4_31 
ROOT
HETATM    1  C3  UNL     1      13.102  -2.287  11.393  1.00  0.00    -0.022 C 
HETATM    2  C4  UNL     1      13.565  -0.964  10.814  1.00  0.00     0.019 C 
HETATM    3  C5  UNL     1      12.817  -2.122  12.853  1.00  0.00     0.045 C 
HETATM    4  C6  UNL     1      12.922  -3.462  13.520  1.00  0.00     0.130 C 
HETATM    5  C7  UNL     1      14.385  -3.953  13.657  1.00  0.00     0.019 C 
HETATM    6  C8  UNL     1      14.831  -3.332  14.941  1.00  0.00     0.021 C 
HETATM    7  C9  UNL     1      14.210  -5.440  13.716  1.00  0.00     0.012 C 
HETATM    8  C10 UNL     1      13.153  -5.947  14.616  1.00  0.00     0.011 C 
HETATM    9  C11 UNL     1      13.718  -6.779  15.723  1.00  0.00    -0.009 C 
HETATM   10  C12 UNL     1      13.093  -8.138  15.827  1.00  0.00     0.011 C 
HETATM   11  C13 UNL     1      15.189  -6.734  15.497  1.00  0.00     0.029 C 
HETATM   12  C17 UNL     1      15.377  -6.299  14.057  1.00  0.00    -0.014 C 
HETATM   13  C18 UNL     1      15.398  -7.498  13.135  1.00  0.00     0.021 C 
HETATM   14  C19 UNL     1      16.697  -5.639  13.889  1.00  0.00    -0.020 C 
HETATM   15  C20 UNL     1      17.103  -4.743  13.012  1.00  0.00    -0.018 C 
HETATM   16  C21 UNL     1      16.245  -4.181  11.942  1.00  0.00     0.072 C 
HETATM   17  C26 UNL     1      15.090  -3.409  12.483  1.00  0.00     0.079 C 
HETATM   18  C27 UNL     1      14.135  -3.341  11.247  1.00  0.00     0.053 C 
ENDROOT
BRANCH  16  19
HETATM   19  C22 UNL     1      17.185  -3.350  11.088  1.00  0.00    -0.067 C 
HETATM   20  C23 UNL     1      16.773  -2.816   9.782  1.00  0.00     0.044 C 
HETATM   21  C24 UNL     1      18.371  -3.052  11.561  1.00  0.00     0.087 C 
BRANCH  21  22
HETATM   22  C25 UNL     1      19.346  -2.279  10.853  1.00  0.00     0.198 C 
HETATM   23  O2  UNL     1      19.325  -1.029  10.878  1.00  0.00    -0.644 OA
HETATM   24  O3  UNL     1      20.371  -2.891  10.096  1.00  0.00    -0.644 OA
ENDBRANCH  21  22
ENDBRANCH  16  19
BRANCH  17  25
HETATM   25  O4  UNL     1      15.524  -2.112  12.691  1.00  0.00    -0.388 OA
ATOM     26  H4  UNL     1      14.804  -1.519  12.871  1.00  0.00     0.210 HD
ENDBRANCH  17  25
BRANCH   4  27
HETATM   27  O1  UNL     1      12.149  -4.351  12.791  1.00  0.00    -0.395 OA
ATOM     28  H1  UNL     1      12.582  -5.196  12.820  1.00  0.00     0.210 HD
ENDBRANCH   4  27
BRANCH   1  29
HETATM   29  C2  UNL     1      11.894  -2.710  10.638  1.00  0.00    -0.027 C 
HETATM   30  C1  UNL     1      11.788  -2.588   9.322  1.00  0.00     0.007 C 
ENDBRANCH   1  29
BRANCH  11  31
HETATM   31  C14 UNL     1      16.015  -7.806  15.996  1.00  0.00    -0.088 C 
HETATM   32  C15 UNL     1      17.046  -7.520  16.803  1.00  0.00     0.014 C 
HETATM   33  C16 UNL     1      15.884  -9.269  15.749  1.00  0.00     0.043 C 
ENDBRANCH  11  31
TORSDOF 6
ENDMDL
MODEL 5
REMARK VINA RESULT: -8.095927294      3.078      6.783
REMARK  6 active torsions:
REMARK  status: ('A' for Active; 'I' for Inactive)
REMARK    1  A    between atoms: C2_2  and  C3_3 
REMARK    2  A    between atoms: C6_6  and  O1_7 
REMARK    3  A    between atoms: C13_15  and  C14_16 
REMARK    4  A    between atoms: C21_23  and  C22_24 
REMARK    5  A    between atoms: C24_26  and  C25_27 
REMARK    6  A    between atoms: C26_30  and  O4_31 
ROOT
HETATM    1  C3  UNL     1      13.352  -9.220  16.723  1.00  0.00    -0.022 C 
HETATM    2  C4  UNL     1      14.195 -10.423  17.096  1.00  0.00     0.019 C 
HETATM    3  C5  UNL     1      12.825  -9.390  15.332  1.00  0.00     0.045 C 
HETATM    4  C6  UNL     1      12.503  -8.038  14.769  1.00  0.00     0.130 C 
HETATM    5  C7  UNL     1      13.768  -7.222  14.403  1.00  0.00     0.019 C 
HETATM    6  C8  UNL     1      14.073  -7.676  13.013  1.00  0.00     0.021 C 
HETATM    7  C9  UNL     1      13.268  -5.812  14.498  1.00  0.00     0.012 C 
HETATM    8  C10 UNL     1      11.969  -5.526  13.854  1.00  0.00     0.011 C 
HETATM    9  C11 UNL     1      12.109  -4.547  12.733  1.00  0.00    -0.009 C 
HETATM   10  C12 UNL     1      11.198  -3.362  12.856  1.00  0.00     0.011 C 
HETATM   11  C13 UNL     1      13.570  -4.264  12.678  1.00  0.00     0.029 C 
HETATM   12  C17 UNL     1      14.131  -4.698  14.017  1.00  0.00    -0.014 C 
HETATM   13  C18 UNL     1      14.075  -3.561  15.014  1.00  0.00     0.021 C 
HETATM   14  C19 UNL     1      15.568  -5.046  13.884  1.00  0.00    -0.020 C 
HETATM   15  C20 UNL     1      16.325  -5.859  14.595  1.00  0.00    -0.018 C 
HETATM   16  C21 UNL     1      15.838  -6.640  15.756  1.00  0.00     0.072 C 
HETATM   17  C26 UNL     1      14.793  -7.635  15.378  1.00  0.00     0.079 C 
HETATM   18  C27 UNL     1      14.140  -7.964  16.760  1.00  0.00     0.053 C 
ENDROOT
BRANCH  16  19
HETATM   19  C22 UNL     1      17.085  -7.268  16.351  1.00  0.00    -0.067 C 
HETATM   20  C23 UNL     1      17.160  -7.644  17.770  1.00  0.00     0.044 C 
HETATM   21  C24 UNL     1      18.097  -7.536  15.559  1.00  0.00     0.087 C 
BRANCH  21  22
HETATM   22  C25 UNL     1      19.326  -8.122  15.999  1.00  0.00     0.198 C 
HETATM   23  O2  UNL     1      19.540  -9.348  15.873  1.00  0.00    -0.644 OA
HETATM   24  O3  UNL     1      20.348  -7.348  16.593  1.00  0.00    -0.644 OA
ENDBRANCH  21  22
ENDBRANCH  16  19
BRANCH  17  25
HETATM   25  O4  UNL     1      15.446  -8.790  14.988  1.00  0.00    -0.388 OA
ATOM     26  H4  UNL     1      15.884  -8.688  14.152  1.00  0.00     0.210 HD
ENDBRANCH  17  25
BRANCH   4  27
HETATM   27  O1  UNL     1      11.717  -7.376  15.698  1.00  0.00    -0.395 OA
ATOM     28  H1  UNL     1      11.924  -6.451  15.639  1.00  0.00     0.210 HD
ENDBRANCH   4  27
BRANCH   1  29
HETATM   29  C2  UNL     1      12.255  -9.111  17.720  1.00  0.00    -0.027 C 
HETATM   30  C1  UNL     1      12.456  -8.724  18.972  1.00  0.00     0.007 C 
ENDBRANCH   1  29
BRANCH  11  31
HETATM   31  C14 UNL     1      14.030  -3.013  12.123  1.00  0.00    -0.088 C 
HETATM   32  C15 UNL     1      15.111  -3.004  11.331  1.00  0.00     0.014 C 
HETATM   33  C16 UNL     1      13.446  -1.654  12.293  1.00  0.00     0.043 C 
ENDBRANCH  11  31
TORSDOF 6
ENDMDL
