MODEL 1
REMARK VINA RESULT: -7.025265924      0.000      0.000
REMARK  6 active torsions:
REMARK  status: ('A' for Active; 'I' for Inactive)
REMARK    1  A    between atoms: C2_2  and  N1_4 
REMARK    2  A    between atoms: N1_4  and  C4_6 
REMARK    3  A    between atoms: C4_6  and  C6_8 
REMARK    4  A    between atoms: C12_14  and  O1_15 
REMARK    5  A    between atoms: C19_23  and  C20_24 
REMARK    6  A    between atoms: C20_24  and  O2_27 
ROOT
HETATM    1  C6  UNL     1      15.132  -7.876  17.310  1.00  0.00    -0.020 C 
HETATM    2  C7  UNL     1      14.268  -7.289  18.374  1.00  0.00     0.018 C 
HETATM    3  C8  UNL     1      14.915  -9.350  17.043  1.00  0.00     0.012 C 
HETATM    4  C9  UNL     1      14.731  -9.508  15.535  1.00  0.00     0.011 C 
HETATM    5  C10 UNL     1      14.105  -8.166  15.119  1.00  0.00    -0.030 C 
HETATM    6  C11 UNL     1      12.692  -8.308  15.682  1.00  0.00     0.042 C 
HETATM    7  C12 UNL     1      11.943  -9.416  14.952  1.00  0.00     0.118 C 
HETATM    8  C13 UNL     1      12.192  -9.402  13.460  1.00  0.00     0.032 C 
HETATM    9  C14 UNL     1      12.660  -7.977  13.170  1.00  0.00     0.008 C 
HETATM   10  C15 UNL     1      14.118  -7.914  13.682  1.00  0.00    -0.001 C 
HETATM   11  C16 UNL     1      14.843  -6.870  13.009  1.00  0.00    -0.001 C 
HETATM   12  C17 UNL     1      16.269  -7.318  12.650  1.00  0.00     0.006 C 
HETATM   13  C18 UNL     1      17.095  -6.061  12.649  1.00  0.00     0.009 C 
HETATM   14  C19 UNL     1      16.033  -4.988  12.516  1.00  0.00     0.028 C 
HETATM   15  C23 UNL     1      14.974  -5.478  13.444  1.00  0.00    -0.034 C 
HETATM   16  C24 UNL     1      13.708  -4.684  13.100  1.00  0.00     0.016 C 
HETATM   17  C25 UNL     1      15.314  -5.186  14.838  1.00  0.00     0.010 C 
HETATM   18  C26 UNL     1      14.430  -5.904  15.861  1.00  0.00     0.007 C 
HETATM   19  C27 UNL     1      14.986  -7.280  15.969  1.00  0.00     0.005 C 
ENDROOT
BRANCH   1  20
HETATM   20  C4  UNL     1      16.569  -7.815  17.885  1.00  0.00     0.081 C 
HETATM   21  C5  UNL     1      16.517  -6.804  19.008  1.00  0.00     0.032 C 
BRANCH  20  22
HETATM   22  N1  UNL     1      17.513  -7.503  16.924  1.00  0.00    -0.413 N 
ATOM     23  H1  UNL     1      17.399  -6.624  16.418  1.00  0.00     0.153 HD
BRANCH  22  24
HETATM   24  C2  UNL     1      18.610  -8.300  16.597  1.00  0.00     0.068 C 
HETATM   25  C1  UNL     1      19.968  -7.669  16.725  1.00  0.00     0.031 C 
HETATM   26  C3  UNL     1      18.525  -8.799  15.134  1.00  0.00     0.031 C 
ENDBRANCH  22  24
ENDBRANCH  20  22
ENDBRANCH   1  20
BRANCH   7  27
HETATM   27  O1  UNL     1      10.574  -9.081  15.096  1.00  0.00    -0.396 OA
ATOM     28  H1  UNL     1      10.119  -9.915  15.089  1.00  0.00     0.210 HD
ENDBRANCH   7  27
BRANCH  14  29
HETATM   29  C20 UNL     1      16.652  -3.685  12.680  1.00  0.00     0.055 C 
HETATM   30  C21 UNL     1      17.888  -3.680  11.758  1.00  0.00     0.045 C 
HETATM   31  C22 UNL     1      15.871  -2.472  12.320  1.00  0.00     0.045 C 
BRANCH  29  32
HETATM   32  O2  UNL     1      17.181  -3.456  13.972  1.00  0.00    -0.390 OA
ATOM     33  H2  UNL     1      18.027  -3.862  14.122  1.00  0.00     0.210 HD
ENDBRANCH  29  32
ENDBRANCH  14  29
TORSDOF 6
ENDMDL
MODEL 2
REMARK VINA RESULT: -6.879931900      1.183      1.659
REMARK  6 active torsions:
REMARK  status: ('A' for Active; 'I' for Inactive)
REMARK    1  A    between atoms: C2_2  and  N1_4 
REMARK    2  A    between atoms: N1_4  and  C4_6 
REMARK    3  A    between atoms: C4_6  and  C6_8 
REMARK    4  A    between atoms: C12_14  and  O1_15 
REMARK    5  A    between atoms: C19_23  and  C20_24 
REMARK    6  A    between atoms: C20_24  and  O2_27 
ROOT
HETATM    1  C6  UNL     1      16.829  -8.057  17.228  1.00  0.00    -0.020 C 
HETATM    2  C7  UNL     1      16.750  -7.384  18.555  1.00  0.00     0.018 C 
HETATM    3  C8  UNL     1      16.188  -9.426  17.160  1.00  0.00     0.012 C 
HETATM    4  C9  UNL     1      15.259  -9.426  15.947  1.00  0.00     0.011 C 
HETATM    5  C10 UNL     1      14.826  -7.953  15.843  1.00  0.00    -0.030 C 
HETATM    6  C11 UNL     1      13.878  -7.837  17.035  1.00  0.00     0.042 C 
HETATM    7  C12 UNL     1      12.643  -8.702  16.815  1.00  0.00     0.118 C 
HETATM    8  C13 UNL     1      12.125  -8.626  15.395  1.00  0.00     0.032 C 
HETATM    9  C14 UNL     1      12.695  -7.314  14.857  1.00  0.00     0.008 C 
HETATM   10  C15 UNL     1      14.188  -7.600  14.579  1.00  0.00    -0.001 C 
HETATM   11  C16 UNL     1      14.701  -6.684  13.596  1.00  0.00    -0.001 C 
HETATM   12  C17 UNL     1      15.629  -7.395  12.597  1.00  0.00     0.006 C 
HETATM   13  C18 UNL     1      16.603  -6.344  12.139  1.00  0.00     0.009 C 
HETATM   14  C19 UNL     1      15.881  -5.064  12.507  1.00  0.00     0.028 C 
HETATM   15  C23 UNL     1      15.333  -5.389  13.855  1.00  0.00    -0.034 C 
HETATM   16  C24 UNL     1      14.273  -4.322  14.151  1.00  0.00     0.016 C 
HETATM   17  C25 UNL     1      16.368  -5.284  14.887  1.00  0.00     0.010 C 
HETATM   18  C26 UNL     1      15.964  -5.875  16.240  1.00  0.00     0.007 C 
HETATM   19  C27 UNL     1      16.180  -7.342  16.111  1.00  0.00     0.005 C 
ENDROOT
BRANCH   1  20
HETATM   20  C4  UNL     1      18.335  -8.346  17.014  1.00  0.00     0.081 C 
HETATM   21  C5  UNL     1      18.920  -8.506  18.399  1.00  0.00     0.032 C 
BRANCH  20  22
HETATM   22  N1  UNL     1      18.966  -7.362  16.275  1.00  0.00    -0.413 N 
ATOM     23  H1  UNL     1      18.905  -6.402  16.617  1.00  0.00     0.153 HD
BRANCH  22  24
HETATM   24  C2  UNL     1      19.679  -7.584  15.098  1.00  0.00     0.068 C 
HETATM   25  C1  UNL     1      19.058  -8.517  14.095  1.00  0.00     0.031 C 
HETATM   26  C3  UNL     1      21.081  -8.171  15.391  1.00  0.00     0.031 C 
ENDBRANCH  22  24
ENDBRANCH  20  22
ENDBRANCH   1  20
BRANCH   7  27
HETATM   27  O1  UNL     1      11.634  -8.097  17.604  1.00  0.00    -0.396 OA
ATOM     28  H1  UNL     1      10.943  -8.748  17.652  1.00  0.00     0.210 HD
ENDBRANCH   7  27
BRANCH  14  29
HETATM   29  C20 UNL     1      16.772  -3.938  12.293  1.00  0.00     0.055 C 
HETATM   30  C21 UNL     1      17.900  -4.453  11.377  1.00  0.00     0.045 C 
HETATM   31  C22 UNL     1      16.236  -2.718  11.632  1.00  0.00     0.045 C 
BRANCH  29  32
HETATM   32  O2  UNL     1      17.443  -3.504  13.461  1.00  0.00    -0.390 OA
ATOM     33  H2  UNL     1      17.416  -4.127  14.177  1.00  0.00     0.210 HD
ENDBRANCH  29  32
ENDBRANCH  14  29
TORSDOF 6
ENDMDL
MODEL 3
REMARK VINA RESULT: -6.870289177      1.386      1.833
REMARK  6 active torsions:
REMARK  status: ('A' for Active; 'I' for Inactive)
REMARK    1  A    between atoms: C2_2  and  N1_4 
REMARK    2  A    between atoms: N1_4  and  C4_6 
REMARK    3  A    between atoms: C4_6  and  C6_8 
REMARK    4  A    between atoms: C12_14  and  O1_15 
REMARK    5  A    between atoms: C19_23  and  C20_24 
REMARK    6  A    between atoms: C20_24  and  O2_27 
ROOT
HETATM    1  C6  UNL     1      16.600  -7.596  17.272  1.00  0.00    -0.020 C 
HETATM    2  C7  UNL     1      16.311  -6.844  18.526  1.00  0.00     0.018 C 
HETATM    3  C8  UNL     1      16.136  -9.037  17.262  1.00  0.00     0.012 C 
HETATM    4  C9  UNL     1      15.339  -9.242  15.976  1.00  0.00     0.011 C 
HETATM    5  C10 UNL     1      14.746  -7.847  15.710  1.00  0.00    -0.030 C 
HETATM    6  C11 UNL     1      13.677  -7.765  16.799  1.00  0.00     0.042 C 
HETATM    7  C12 UNL     1      12.582  -8.792  16.542  1.00  0.00     0.118 C 
HETATM    8  C13 UNL     1      12.202  -8.886  15.080  1.00  0.00     0.032 C 
HETATM    9  C14 UNL     1      12.663  -7.555  14.487  1.00  0.00     0.008 C 
HETATM   10  C15 UNL     1      14.200  -7.670  14.369  1.00  0.00    -0.001 C 
HETATM   11  C16 UNL     1      14.695  -6.770  13.362  1.00  0.00    -0.001 C 
HETATM   12  C17 UNL     1      15.796  -7.429  12.513  1.00  0.00     0.006 C 
HETATM   13  C18 UNL     1      16.678  -6.300  12.057  1.00  0.00     0.009 C 
HETATM   14  C19 UNL     1      15.776  -5.098  12.250  1.00  0.00     0.028 C 
HETATM   15  C23 UNL     1      15.140  -5.390  13.566  1.00  0.00    -0.034 C 
HETATM   16  C24 UNL     1      13.937  -4.446  13.676  1.00  0.00     0.016 C 
HETATM   17  C25 UNL     1      16.047  -5.081  14.674  1.00  0.00     0.010 C 
HETATM   18  C26 UNL     1      15.585  -5.618  16.030  1.00  0.00     0.007 C 
HETATM   19  C27 UNL     1      15.985  -7.052  16.046  1.00  0.00     0.005 C 
ENDROOT
BRANCH   1  20
HETATM   20  C4  UNL     1      18.143  -7.707  17.219  1.00  0.00     0.081 C 
HETATM   21  C5  UNL     1      18.500  -7.736  15.750  1.00  0.00     0.032 C 
BRANCH  20  22
HETATM   22  N1  UNL     1      18.622  -8.806  17.910  1.00  0.00    -0.413 N 
ATOM     23  H1  UNL     1      18.302  -9.728  17.611  1.00  0.00     0.153 HD
BRANCH  22  24
HETATM   24  C2  UNL     1      19.509  -8.747  18.984  1.00  0.00     0.068 C 
HETATM   25  C1  UNL     1      20.676  -9.694  18.953  1.00  0.00     0.031 C 
HETATM   26  C3  UNL     1      18.788  -9.028  20.325  1.00  0.00     0.031 C 
ENDBRANCH  22  24
ENDBRANCH  20  22
ENDBRANCH   1  20
BRANCH   7  27
HETATM   27  O1  UNL     1      11.435  -8.265  17.183  1.00  0.00    -0.396 OA
ATOM     28  H1  UNL     1      10.884  -9.020  17.353  1.00  0.00     0.210 HD
ENDBRANCH   7  27
BRANCH  14  29
HETATM   29  C20 UNL     1      16.544  -3.886  12.023  1.00  0.00     0.055 C 
HETATM   30  C21 UNL     1      17.224  -4.062  10.650  1.00  0.00     0.045 C 
HETATM   31  C22 UNL     1      15.825  -2.586  11.958  1.00  0.00     0.045 C 
BRANCH  29  32
HETATM   32  O2  UNL     1      17.620  -3.708  12.924  1.00  0.00    -0.390 OA
ATOM     33  H2  UNL     1      17.685  -4.384  13.589  1.00  0.00     0.210 HD
ENDBRANCH  29  32
ENDBRANCH  14  29
TORSDOF 6
ENDMDL
MODEL 4
REMARK VINA RESULT: -6.729342561      1.036      1.364
REMARK  6 active torsions:
REMARK  status: ('A' for Active; 'I' for Inactive)
REMARK    1  A    between atoms: C2_2  and  N1_4 
REMARK    2  A    between atoms: N1_4  and  C4_6 
REMARK    3  A    between atoms: C4_6  and  C6_8 
REMARK    4  A    between atoms: C12_14  and  O1_15 
REMARK    5  A    between atoms: C19_23  and  C20_24 
REMARK    6  A    between atoms: C20_24  and  O2_27 
ROOT
HETATM    1  C6  UNL     1      15.347  -7.562  17.345  1.00  0.00    -0.020 C 
HETATM    2  C7  UNL     1      14.513  -6.934  18.409  1.00  0.00     0.018 C 
HETATM    3  C8  UNL     1      15.166  -9.055  17.181  1.00  0.00     0.012 C 
HETATM    4  C9  UNL     1      14.919  -9.316  15.696  1.00  0.00     0.011 C 
HETATM    5  C10 UNL     1      14.230  -8.022  15.228  1.00  0.00    -0.030 C 
HETATM    6  C11 UNL     1      12.850  -8.171  15.865  1.00  0.00     0.042 C 
HETATM    7  C12 UNL     1      12.105  -9.345  15.243  1.00  0.00     0.118 C 
HETATM    8  C13 UNL     1      12.284  -9.419  13.742  1.00  0.00     0.032 C 
HETATM    9  C14 UNL     1      12.692  -8.002  13.342  1.00  0.00     0.008 C 
HETATM   10  C15 UNL     1      14.169  -7.863  13.779  1.00  0.00    -0.001 C 
HETATM   11  C16 UNL     1      14.827  -6.842  13.008  1.00  0.00    -0.001 C 
HETATM   12  C17 UNL     1      16.249  -7.269  12.609  1.00  0.00     0.006 C 
HETATM   13  C18 UNL     1      17.032  -5.991  12.489  1.00  0.00     0.009 C 
HETATM   14  C19 UNL     1      15.930  -4.961  12.341  1.00  0.00     0.028 C 
HETATM   15  C23 UNL     1      14.932  -5.422  13.348  1.00  0.00    -0.034 C 
HETATM   16  C24 UNL     1      13.625  -4.690  13.016  1.00  0.00     0.016 C 
HETATM   17  C25 UNL     1      15.326  -5.031  14.703  1.00  0.00     0.010 C 
HETATM   18  C26 UNL     1      14.514  -5.708  15.810  1.00  0.00     0.007 C 
HETATM   19  C27 UNL     1      15.119  -7.058  15.977  1.00  0.00     0.005 C 
ENDROOT
BRANCH   1  20
HETATM   20  C4  UNL     1      16.805  -7.421  17.845  1.00  0.00     0.081 C 
HETATM   21  C5  UNL     1      17.632  -7.129  16.613  1.00  0.00     0.032 C 
BRANCH  20  22
HETATM   22  N1  UNL     1      17.243  -8.538  18.532  1.00  0.00    -0.413 N 
ATOM     23  H1  UNL     1      16.539  -9.215  18.830  1.00  0.00     0.153 HD
BRANCH  22  24
HETATM   24  C2  UNL     1      18.574  -8.809  18.847  1.00  0.00     0.068 C 
HETATM   25  C1  UNL     1      19.150 -10.090  18.312  1.00  0.00     0.031 C 
HETATM   26  C3  UNL     1      18.788  -8.871  20.379  1.00  0.00     0.031 C 
ENDBRANCH  22  24
ENDBRANCH  20  22
ENDBRANCH   1  20
BRANCH   7  27
HETATM   27  O1  UNL     1      10.734  -9.043  15.431  1.00  0.00    -0.396 OA
ATOM     28  H1  UNL     1      10.276  -9.841  15.195  1.00  0.00     0.210 HD
ENDBRANCH   7  27
BRANCH  14  29
HETATM   29  C20 UNL     1      16.513  -3.632  12.393  1.00  0.00     0.055 C 
HETATM   30  C21 UNL     1      17.300  -3.458  11.079  1.00  0.00     0.045 C 
HETATM   31  C22 UNL     1      15.605  -2.457  12.483  1.00  0.00     0.045 C 
BRANCH  29  32
HETATM   32  O2  UNL     1      17.487  -3.469  13.406  1.00  0.00    -0.390 OA
ATOM     33  H2  UNL     1      18.361  -3.292  13.078  1.00  0.00     0.210 HD
ENDBRANCH  29  32
ENDBRANCH  14  29
TORSDOF 6
ENDMDL
MODEL 5
REMARK VINA RESULT: -6.591839785      2.213      5.663
REMARK  6 active torsions:
REMARK  status: ('A' for Active; 'I' for Inactive)
REMARK    1  A    between atoms: C2_2  and  N1_4 
REMARK    2  A    between atoms: N1_4  and  C4_6 
REMARK    3  A    between atoms: C4_6  and  C6_8 
REMARK    4  A    between atoms: C12_14  and  O1_15 
REMARK    5  A    between atoms: C19_23  and  C20_24 
REMARK    6  A    between atoms: C20_24  and  O2_27 
ROOT
HETATM    1  C6  UNL     1      14.837  -6.828  13.723  1.00  0.00    -0.020 C 
HETATM    2  C7  UNL     1      15.431  -7.455  12.508  1.00  0.00     0.018 C 
HETATM    3  C8  UNL     1      13.357  -6.526  13.635  1.00  0.00     0.012 C 
HETATM    4  C9  UNL     1      12.705  -7.113  14.886  1.00  0.00     0.011 C 
HETATM    5  C10 UNL     1      13.611  -8.312  15.218  1.00  0.00    -0.030 C 
HETATM    6  C11 UNL     1      13.230  -9.290  14.108  1.00  0.00     0.042 C 
HETATM    7  C12 UNL     1      11.784  -9.740  14.274  1.00  0.00     0.118 C 
HETATM    8  C13 UNL     1      11.423 -10.017  15.717  1.00  0.00     0.032 C 
HETATM    9  C14 UNL     1      12.768 -10.264  16.400  1.00  0.00     0.008 C 
HETATM   10  C15 UNL     1      13.412  -8.867  16.552  1.00  0.00    -0.001 C 
HETATM   11  C16 UNL     1      14.372  -8.870  17.623  1.00  0.00    -0.001 C 
HETATM   12  C17 UNL     1      14.283  -7.584  18.460  1.00  0.00     0.006 C 
HETATM   13  C18 UNL     1      15.667  -7.365  19.005  1.00  0.00     0.009 C 
HETATM   14  C19 UNL     1      16.284  -8.741  18.860  1.00  0.00     0.028 C 
HETATM   15  C23 UNL     1      15.803  -9.160  17.512  1.00  0.00    -0.034 C 
HETATM   16  C24 UNL     1      16.042 -10.672  17.426  1.00  0.00     0.016 C 
HETATM   17  C25 UNL     1      16.587  -8.527  16.449  1.00  0.00     0.010 C 
HETATM   18  C26 UNL     1      15.981  -8.674  15.051  1.00  0.00     0.007 C 
HETATM   19  C27 UNL     1      14.931  -7.623  14.962  1.00  0.00     0.005 C 
ENDROOT
BRANCH   1  20
HETATM   20  C4  UNL     1      15.492  -5.428  13.810  1.00  0.00     0.081 C 
HETATM   21  C5  UNL     1      15.588  -5.113  15.286  1.00  0.00     0.032 C 
BRANCH  20  22
HETATM   22  N1  UNL     1      14.793  -4.468  13.101  1.00  0.00    -0.413 N 
ATOM     23  H1  UNL     1      13.774  -4.500  13.139  1.00  0.00     0.153 HD
BRANCH  22  24
HETATM   24  C2  UNL     1      15.379  -3.459  12.336  1.00  0.00     0.068 C 
HETATM   25  C1  UNL     1      14.451  -2.599  11.523  1.00  0.00     0.031 C 
HETATM   26  C3  UNL     1      16.396  -4.039  11.323  1.00  0.00     0.031 C 
ENDBRANCH  22  24
ENDBRANCH  20  22
ENDBRANCH   1  20
BRANCH   7  27
HETATM   27  O1  UNL     1      11.723 -11.002  13.635  1.00  0.00    -0.396 OA
ATOM     28  H1  UNL     1      10.878 -11.358  13.882  1.00  0.00     0.210 HD
ENDBRANCH   7  27
BRANCH  14  29
HETATM   29  C20 UNL     1      17.699  -8.664  19.178  1.00  0.00     0.055 C 
HETATM   30  C21 UNL     1      18.054  -9.995  19.870  1.00  0.00     0.045 C 
HETATM   31  C22 UNL     1      18.674  -8.509  18.066  1.00  0.00     0.045 C 
BRANCH  29  32
HETATM   32  O2  UNL     1      18.020  -7.676  20.138  1.00  0.00    -0.390 OA
ATOM     33  H2  UNL     1      18.266  -6.838  19.764  1.00  0.00     0.210 HD
ENDBRANCH  29  32
ENDBRANCH  14  29
TORSDOF 6
ENDMDL
