MODEL 1
REMARK VINA RESULT: -8.064048128      0.000      0.000
REMARK  8 active torsions:
REMARK  status: ('A' for Active; 'I' for Inactive)
REMARK    1  A    between atoms: C2_2  and  C4_4 
REMARK    2  A    between atoms: C4_4  and  C6_6 
REMARK    3  A    between atoms: C6_6  and  C7_7 
REMARK    4  A    between atoms: C7_7  and  C8_8 
REMARK    5  A    between atoms: C8_8  and  C10_10 
REMARK    6  A    between atoms: C16_16  and  O1_17 
REMARK    7  A    between atoms: C19_21  and  O2_22 
REMARK    8  A    between atoms: C20_24  and  O3_25 
ROOT
HETATM    1  C10 UNL     1      16.043  -3.861  11.748  1.00  0.00    -0.002 C 
HETATM    2  C11 UNL     1      17.259  -4.758  11.738  1.00  0.00     0.006 C 
HETATM    3  C12 UNL     1      16.896  -5.738  12.871  1.00  0.00     0.006 C 
HETATM    4  C13 UNL     1      16.438  -4.773  13.904  1.00  0.00    -0.002 C 
HETATM    5  C14 UNL     1      15.948  -5.336  15.194  1.00  0.00    -0.003 C 
HETATM    6  C15 UNL     1      16.915  -6.325  15.739  1.00  0.00     0.038 C 
HETATM    7  C16 UNL     1      16.518  -7.742  15.761  1.00  0.00     0.129 C 
HETATM    8  C17 UNL     1      15.067  -7.949  16.077  1.00  0.00     0.014 C 
HETATM    9  C18 UNL     1      14.676  -7.459  17.424  1.00  0.00     0.021 C 
HETATM   10  C19 UNL     1      14.581  -9.345  15.889  1.00  0.00     0.158 C 
HETATM   11  C20 UNL     1      13.086  -9.137  15.639  1.00  0.00     0.148 C 
HETATM   12  C21 UNL     1      12.934  -7.694  15.173  1.00  0.00     0.040 C 
HETATM   13  C22 UNL     1      14.321  -7.235  14.938  1.00  0.00     0.006 C 
HETATM   14  C23 UNL     1      14.517  -5.761  15.231  1.00  0.00    -0.005 C 
HETATM   15  C24 UNL     1      13.592  -4.981  14.389  1.00  0.00     0.006 C 
HETATM   16  C25 UNL     1      14.090  -4.516  13.080  1.00  0.00     0.010 C 
HETATM   17  C26 UNL     1      15.478  -3.916  13.153  1.00  0.00    -0.036 C 
HETATM   18  C27 UNL     1      15.355  -2.594  13.830  1.00  0.00     0.016 C 
ENDROOT
BRANCH   1  19
HETATM   19  C8  UNL     1      16.304  -2.494  11.253  1.00  0.00    -0.014 C 
HETATM   20  C9  UNL     1      17.723  -2.228  10.836  1.00  0.00     0.010 C 
BRANCH  19  21
HETATM   21  C7  UNL     1      15.477  -2.282   9.963  1.00  0.00     0.005 C 
BRANCH  21  22
HETATM   22  C6  UNL     1      14.297  -1.426  10.144  1.00  0.00     0.009 C 
BRANCH  22  23
HETATM   23  C4  UNL     1      13.093  -2.087  10.729  1.00  0.00     0.009 C 
HETATM   24  C5  UNL     1      12.105  -2.389   9.575  1.00  0.00     0.015 C 
BRANCH  23  25
HETATM   25  C2  UNL     1      12.404  -1.318  11.749  1.00  0.00    -0.089 C 
HETATM   26  C1  UNL     1      12.476   0.025  11.725  1.00  0.00     0.014 C 
HETATM   27  C3  UNL     1      11.563  -1.913  12.795  1.00  0.00     0.043 C 
ENDBRANCH  23  25
ENDBRANCH  22  23
ENDBRANCH  21  22
ENDBRANCH  19  21
ENDBRANCH   1  19
BRANCH   7  28
HETATM   28  O1  UNL     1      16.794  -8.459  14.600  1.00  0.00    -0.395 OA
ATOM     29  H1  UNL     1      16.177  -9.151  14.392  1.00  0.00     0.210 HD
ENDBRANCH   7  28
BRANCH  10  30
HETATM   30  O2  UNL     1      14.766 -10.048  17.093  1.00  0.00    -0.392 OA
ATOM     31  H2  UNL     1      14.343 -10.895  17.015  1.00  0.00     0.210 HD
ENDBRANCH  10  30
BRANCH  11  32
HETATM   32  O3  UNL     1      12.329  -9.368  16.760  1.00  0.00    -0.393 OA
ATOM     33  H3  UNL     1      11.398  -9.295  16.591  1.00  0.00     0.210 HD
ENDBRANCH  11  32
TORSDOF 8
ENDMDL
MODEL 2
REMARK VINA RESULT: -7.627792948      1.200      1.501
REMARK  8 active torsions:
REMARK  status: ('A' for Active; 'I' for Inactive)
REMARK    1  A    between atoms: C2_2  and  C4_4 
REMARK    2  A    between atoms: C4_4  and  C6_6 
REMARK    3  A    between atoms: C6_6  and  C7_7 
REMARK    4  A    between atoms: C7_7  and  C8_8 
REMARK    5  A    between atoms: C8_8  and  C10_10 
REMARK    6  A    between atoms: C16_16  and  O1_17 
REMARK    7  A    between atoms: C19_21  and  O2_22 
REMARK    8  A    between atoms: C20_24  and  O3_25 
ROOT
HETATM    1  C10 UNL     1      15.976  -4.726  12.580  1.00  0.00    -0.002 C 
HETATM    2  C11 UNL     1      17.121  -5.691  12.777  1.00  0.00     0.006 C 
HETATM    3  C12 UNL     1      16.485  -6.686  13.767  1.00  0.00     0.006 C 
HETATM    4  C13 UNL     1      15.873  -5.730  14.729  1.00  0.00    -0.002 C 
HETATM    5  C14 UNL     1      15.102  -6.307  15.865  1.00  0.00    -0.003 C 
HETATM    6  C15 UNL     1      15.884  -7.368  16.551  1.00  0.00     0.038 C 
HETATM    7  C16 UNL     1      15.420  -8.759  16.429  1.00  0.00     0.129 C 
HETATM    8  C17 UNL     1      13.927  -8.891  16.434  1.00  0.00     0.014 C 
HETATM    9  C18 UNL     1      13.293  -8.425  17.694  1.00  0.00     0.021 C 
HETATM   10  C19 UNL     1      13.420 -10.250  16.089  1.00  0.00     0.158 C 
HETATM   11  C20 UNL     1      12.021  -9.945  15.550  1.00  0.00     0.148 C 
HETATM   12  C21 UNL     1      12.041  -8.482  15.128  1.00  0.00     0.040 C 
HETATM   13  C22 UNL     1      13.468  -8.097  15.200  1.00  0.00     0.006 C 
HETATM   14  C23 UNL     1      13.674  -6.648  15.592  1.00  0.00    -0.005 C 
HETATM   15  C24 UNL     1      12.982  -5.788  14.616  1.00  0.00     0.006 C 
HETATM   16  C25 UNL     1      13.760  -5.309  13.457  1.00  0.00     0.010 C 
HETATM   17  C26 UNL     1      15.132  -4.794  13.837  1.00  0.00    -0.036 C 
HETATM   18  C27 UNL     1      14.941  -3.491  14.533  1.00  0.00     0.016 C 
ENDROOT
BRANCH   1  19
HETATM   19  C8  UNL     1      16.402  -3.360  12.209  1.00  0.00    -0.014 C 
HETATM   20  C9  UNL     1      17.829  -3.241  11.753  1.00  0.00     0.010 C 
BRANCH  19  21
HETATM   21  C7  UNL     1      15.567  -2.909  10.988  1.00  0.00     0.005 C 
BRANCH  21  22
HETATM   22  C6  UNL     1      14.588  -1.857  11.290  1.00  0.00     0.009 C 
BRANCH  22  23
HETATM   23  C4  UNL     1      13.231  -2.035  10.695  1.00  0.00     0.009 C 
HETATM   24  C5  UNL     1      12.772  -0.667  10.134  1.00  0.00     0.015 C 
BRANCH  23  25
HETATM   25  C2  UNL     1      12.219  -2.532  11.609  1.00  0.00    -0.089 C 
HETATM   26  C1  UNL     1      11.484  -3.604  11.262  1.00  0.00     0.014 C 
HETATM   27  C3  UNL     1      11.976  -1.971  12.944  1.00  0.00     0.043 C 
ENDBRANCH  23  25
ENDBRANCH  22  23
ENDBRANCH  21  22
ENDBRANCH  19  21
ENDBRANCH   1  19
BRANCH   7  28
HETATM   28  O1  UNL     1      15.892  -9.453  15.317  1.00  0.00    -0.395 OA
ATOM     29  H1  UNL     1      15.496  -9.212  14.488  1.00  0.00     0.210 HD
ENDBRANCH   7  28
BRANCH  10  30
HETATM   30  O2  UNL     1      13.318 -11.002  17.273  1.00  0.00    -0.392 OA
ATOM     31  H2  UNL     1      13.068 -11.889  17.045  1.00  0.00     0.210 HD
ENDBRANCH  10  30
BRANCH  11  32
HETATM   32  O3  UNL     1      11.039 -10.169  16.483  1.00  0.00    -0.393 OA
ATOM     33  H3  UNL     1      10.178 -10.252  16.091  1.00  0.00     0.210 HD
ENDBRANCH  11  32
TORSDOF 8
ENDMDL
MODEL 3
REMARK VINA RESULT: -7.566381633      1.657      3.809
REMARK  8 active torsions:
REMARK  status: ('A' for Active; 'I' for Inactive)
REMARK    1  A    between atoms: C2_2  and  C4_4 
REMARK    2  A    between atoms: C4_4  and  C6_6 
REMARK    3  A    between atoms: C6_6  and  C7_7 
REMARK    4  A    between atoms: C7_7  and  C8_8 
REMARK    5  A    between atoms: C8_8  and  C10_10 
REMARK    6  A    between atoms: C16_16  and  O1_17 
REMARK    7  A    between atoms: C19_21  and  O2_22 
REMARK    8  A    between atoms: C20_24  and  O3_25 
ROOT
HETATM    1  C10 UNL     1      13.639  -4.001  12.968  1.00  0.00    -0.002 C 
HETATM    2  C11 UNL     1      12.336  -4.695  13.292  1.00  0.00     0.006 C 
HETATM    3  C12 UNL     1      12.819  -5.734  14.323  1.00  0.00     0.006 C 
HETATM    4  C13 UNL     1      14.020  -6.253  13.617  1.00  0.00    -0.002 C 
HETATM    5  C14 UNL     1      14.827  -7.292  14.317  1.00  0.00    -0.003 C 
HETATM    6  C15 UNL     1      13.956  -8.386  14.820  1.00  0.00     0.038 C 
HETATM    7  C16 UNL     1      13.786  -8.521  16.276  1.00  0.00     0.129 C 
HETATM    8  C17 UNL     1      15.031  -8.218  17.053  1.00  0.00     0.014 C 
HETATM    9  C18 UNL     1      16.159  -9.138  16.750  1.00  0.00     0.021 C 
HETATM   10  C19 UNL     1      14.840  -8.126  18.528  1.00  0.00     0.158 C 
HETATM   11  C20 UNL     1      16.001  -7.222  18.948  1.00  0.00     0.148 C 
HETATM   12  C21 UNL     1      16.413  -6.456  17.698  1.00  0.00     0.040 C 
HETATM   13  C22 UNL     1      15.346  -6.751  16.716  1.00  0.00     0.006 C 
HETATM   14  C23 UNL     1      15.848  -6.796  15.287  1.00  0.00    -0.005 C 
HETATM   15  C24 UNL     1      16.471  -5.501  14.961  1.00  0.00     0.006 C 
HETATM   16  C25 UNL     1      15.614  -4.468  14.347  1.00  0.00     0.010 C 
HETATM   17  C26 UNL     1      14.741  -5.007  13.234  1.00  0.00    -0.036 C 
HETATM   18  C27 UNL     1      15.628  -5.283  12.069  1.00  0.00     0.016 C 
ENDROOT
BRANCH   1  19
HETATM   19  C8  UNL     1      13.677  -3.401  11.619  1.00  0.00    -0.014 C 
HETATM   20  C9  UNL     1      12.367  -2.854  11.128  1.00  0.00     0.010 C 
BRANCH  19  21
HETATM   21  C7  UNL     1      14.616  -2.173  11.663  1.00  0.00     0.005 C 
BRANCH  21  22
HETATM   22  C6  UNL     1      14.994  -1.662  10.338  1.00  0.00     0.009 C 
BRANCH  22  23
HETATM   23  C4  UNL     1      16.384  -1.971   9.890  1.00  0.00     0.009 C 
HETATM   24  C5  UNL     1      17.232  -2.290  11.146  1.00  0.00     0.015 C 
BRANCH  23  25
HETATM   25  C2  UNL     1      17.036  -0.915   9.138  1.00  0.00    -0.089 C 
HETATM   26  C1  UNL     1      16.318   0.147   8.732  1.00  0.00     0.014 C 
HETATM   27  C3  UNL     1      18.472  -0.893   8.834  1.00  0.00     0.043 C 
ENDBRANCH  23  25
ENDBRANCH  22  23
ENDBRANCH  21  22
ENDBRANCH  19  21
ENDBRANCH   1  19
BRANCH   7  28
HETATM   28  O1  UNL     1      12.758  -7.762  16.831  1.00  0.00    -0.395 OA
ATOM     29  H1  UNL     1      12.265  -7.231  16.217  1.00  0.00     0.210 HD
ENDBRANCH   7  28
BRANCH  10  30
HETATM   30  O2  UNL     1      15.013  -9.407  19.081  1.00  0.00    -0.392 OA
ATOM     31  H2  UNL     1      15.627  -9.342  19.803  1.00  0.00     0.210 HD
ENDBRANCH  10  30
BRANCH  11  32
HETATM   32  O3  UNL     1      17.061  -7.931  19.455  1.00  0.00    -0.393 OA
ATOM     33  H3  UNL     1      17.602  -7.410  20.035  1.00  0.00     0.210 HD
ENDBRANCH  11  32
TORSDOF 8
ENDMDL
MODEL 4
REMARK VINA RESULT: -7.552101420      2.165      4.779
REMARK  8 active torsions:
REMARK  status: ('A' for Active; 'I' for Inactive)
REMARK    1  A    between atoms: C2_2  and  C4_4 
REMARK    2  A    between atoms: C4_4  and  C6_6 
REMARK    3  A    between atoms: C6_6  and  C7_7 
REMARK    4  A    between atoms: C7_7  and  C8_8 
REMARK    5  A    between atoms: C8_8  and  C10_10 
REMARK    6  A    between atoms: C16_16  and  O1_17 
REMARK    7  A    between atoms: C19_21  and  O2_22 
REMARK    8  A    between atoms: C20_24  and  O3_25 
ROOT
HETATM    1  C10 UNL     1      15.984  -2.534  11.460  1.00  0.00    -0.002 C 
HETATM    2  C11 UNL     1      14.521  -2.425  11.820  1.00  0.00     0.006 C 
HETATM    3  C12 UNL     1      14.397  -3.568  12.847  1.00  0.00     0.006 C 
HETATM    4  C13 UNL     1      15.117  -4.644  12.117  1.00  0.00    -0.002 C 
HETATM    5  C14 UNL     1      15.260  -5.957  12.805  1.00  0.00    -0.003 C 
HETATM    6  C15 UNL     1      13.952  -6.419  13.338  1.00  0.00     0.038 C 
HETATM    7  C16 UNL     1      13.771  -6.451  14.799  1.00  0.00     0.129 C 
HETATM    8  C17 UNL     1      15.005  -6.867  15.542  1.00  0.00     0.014 C 
HETATM    9  C18 UNL     1      15.457  -8.245  15.220  1.00  0.00     0.021 C 
HETATM   10  C19 UNL     1      14.929  -6.695  17.021  1.00  0.00     0.158 C 
HETATM   11  C20 UNL     1      16.403  -6.556  17.406  1.00  0.00     0.148 C 
HETATM   12  C21 UNL     1      17.130  -6.121  16.140  1.00  0.00     0.040 C 
HETATM   13  C22 UNL     1      16.046  -5.794  15.187  1.00  0.00     0.006 C 
HETATM   14  C23 UNL     1      16.412  -6.091  13.746  1.00  0.00    -0.005 C 
HETATM   15  C24 UNL     1      17.622  -5.328  13.395  1.00  0.00     0.006 C 
HETATM   16  C25 UNL     1      17.436  -3.993  12.794  1.00  0.00     0.010 C 
HETATM   17  C26 UNL     1      16.383  -3.975  11.706  1.00  0.00    -0.036 C 
HETATM   18  C27 UNL     1      16.956  -4.676  10.523  1.00  0.00     0.016 C 
ENDROOT
BRANCH   1  19
HETATM   19  C8  UNL     1      16.304  -2.039  10.105  1.00  0.00    -0.014 C 
HETATM   20  C9  UNL     1      15.296  -1.090   9.519  1.00  0.00     0.010 C 
BRANCH  19  21
HETATM   21  C7  UNL     1      17.608  -1.212  10.188  1.00  0.00     0.005 C 
BRANCH  21  22
HETATM   22  C6  UNL     1      18.533  -1.442   9.070  1.00  0.00     0.009 C 
BRANCH  22  23
HETATM   23  C4  UNL     1      19.675  -2.363   9.343  1.00  0.00     0.009 C 
HETATM   24  C5  UNL     1      20.017  -2.267  10.850  1.00  0.00     0.015 C 
BRANCH  23  25
HETATM   25  C2  UNL     1      20.875  -2.099   8.571  1.00  0.00    -0.089 C 
HETATM   26  C1  UNL     1      21.832  -3.042   8.494  1.00  0.00     0.014 C 
HETATM   27  C3  UNL     1      21.099  -0.871   7.799  1.00  0.00     0.043 C 
ENDBRANCH  23  25
ENDBRANCH  22  23
ENDBRANCH  21  22
ENDBRANCH  19  21
ENDBRANCH   1  19
BRANCH   7  28
HETATM   28  O1  UNL     1      13.323  -5.264  15.372  1.00  0.00    -0.395 OA
ATOM     29  H1  UNL     1      12.380  -5.162  15.416  1.00  0.00     0.210 HD
ENDBRANCH   7  28
BRANCH  10  30
HETATM   30  O2  UNL     1      14.403  -7.874  17.580  1.00  0.00    -0.392 OA
ATOM     31  H2  UNL     1      15.123  -8.392  17.921  1.00  0.00     0.210 HD
ENDBRANCH  10  30
BRANCH  11  32
HETATM   32  O3  UNL     1      16.931  -7.725  17.893  1.00  0.00    -0.393 OA
ATOM     33  H3  UNL     1      16.279  -8.270  18.317  1.00  0.00     0.210 HD
ENDBRANCH  11  32
TORSDOF 8
ENDMDL
MODEL 5
REMARK VINA RESULT: -7.466258636      2.139      4.094
REMARK  8 active torsions:
REMARK  status: ('A' for Active; 'I' for Inactive)
REMARK    1  A    between atoms: C2_2  and  C4_4 
REMARK    2  A    between atoms: C4_4  and  C6_6 
REMARK    3  A    between atoms: C6_6  and  C7_7 
REMARK    4  A    between atoms: C7_7  and  C8_8 
REMARK    5  A    between atoms: C8_8  and  C10_10 
REMARK    6  A    between atoms: C16_16  and  O1_17 
REMARK    7  A    between atoms: C19_21  and  O2_22 
REMARK    8  A    between atoms: C20_24  and  O3_25 
ROOT
HETATM    1  C10 UNL     1      13.153  -4.328  13.252  1.00  0.00    -0.002 C 
HETATM    2  C11 UNL     1      13.362  -3.567  14.541  1.00  0.00     0.006 C 
HETATM    3  C12 UNL     1      14.384  -4.480  15.246  1.00  0.00     0.006 C 
HETATM    4  C13 UNL     1      13.743  -5.802  15.018  1.00  0.00    -0.002 C 
HETATM    5  C14 UNL     1      14.457  -7.004  15.532  1.00  0.00    -0.003 C 
HETATM    6  C15 UNL     1      14.859  -6.813  16.950  1.00  0.00     0.038 C 
HETATM    7  C16 UNL     1      16.294  -6.682  17.251  1.00  0.00     0.129 C 
HETATM    8  C17 UNL     1      17.164  -7.556  16.399  1.00  0.00     0.014 C 
HETATM    9  C18 UNL     1      16.905  -9.008  16.578  1.00  0.00     0.021 C 
HETATM   10  C19 UNL     1      18.625  -7.287  16.518  1.00  0.00     0.158 C 
HETATM   11  C20 UNL     1      19.156  -7.789  15.174  1.00  0.00     0.148 C 
HETATM   12  C21 UNL     1      17.966  -7.789  14.223  1.00  0.00     0.040 C 
HETATM   13  C22 UNL     1      16.904  -7.072  14.963  1.00  0.00     0.006 C 
HETATM   14  C23 UNL     1      15.511  -7.579  14.645  1.00  0.00    -0.005 C 
HETATM   15  C24 UNL     1      15.277  -7.447  13.196  1.00  0.00     0.006 C 
HETATM   16  C25 UNL     1      14.645  -6.201  12.719  1.00  0.00     0.010 C 
HETATM   17  C26 UNL     1      13.455  -5.782  13.556  1.00  0.00    -0.036 C 
HETATM   18  C27 UNL     1      12.344  -6.727  13.254  1.00  0.00     0.016 C 
ENDROOT
BRANCH   1  19
HETATM   19  C8  UNL     1      11.832  -4.100  12.631  1.00  0.00    -0.014 C 
HETATM   20  C9  UNL     1      10.699  -3.902  13.598  1.00  0.00     0.010 C 
BRANCH  19  21
HETATM   21  C7  UNL     1      11.896  -2.776  11.835  1.00  0.00     0.005 C 
BRANCH  21  22
HETATM   22  C6  UNL     1      12.958  -2.739  10.820  1.00  0.00     0.009 C 
BRANCH  22  23
HETATM   23  C4  UNL     1      14.003  -1.689  11.003  1.00  0.00     0.009 C 
HETATM   24  C5  UNL     1      13.573  -0.441  10.194  1.00  0.00     0.015 C 
BRANCH  23  25
HETATM   25  C2  UNL     1      15.340  -2.076  10.596  1.00  0.00    -0.089 C 
HETATM   26  C1  UNL     1      16.015  -2.987  11.321  1.00  0.00     0.014 C 
HETATM   27  C3  UNL     1      16.004  -1.578   9.385  1.00  0.00     0.043 C 
ENDBRANCH  23  25
ENDBRANCH  22  23
ENDBRANCH  21  22
ENDBRANCH  19  21
ENDBRANCH   1  19
BRANCH   7  28
HETATM   28  O1  UNL     1      16.806  -5.389  17.174  1.00  0.00    -0.395 OA
ATOM     29  H1  UNL     1      17.690  -5.320  16.832  1.00  0.00     0.210 HD
ENDBRANCH   7  28
BRANCH  10  30
HETATM   30  O2  UNL     1      19.141  -8.082  17.557  1.00  0.00    -0.392 OA
ATOM     31  H2  UNL     1      18.569  -8.830  17.677  1.00  0.00     0.210 HD
ENDBRANCH  10  30
BRANCH  11  32
HETATM   32  O3  UNL     1      19.708  -9.043  15.263  1.00  0.00    -0.393 OA
ATOM     33  H3  UNL     1      20.643  -9.041  15.095  1.00  0.00     0.210 HD
ENDBRANCH  11  32
TORSDOF 8
ENDMDL
