MODEL 1
REMARK VINA RESULT: -4.754077502      0.000      0.000
REMARK  11 active torsions:
REMARK  status: ('A' for Active; 'I' for Inactive)
REMARK    1  A    between atoms: C2_2  and  O2_4 
REMARK    2  A    between atoms: O2_4  and  C3_5 
REMARK    3  A    between atoms: C3_5  and  C4_6 
REMARK    4  A    between atoms: C3_5  and  C6_12 
REMARK    5  A    between atoms: C4_6  and  O3_7 
REMARK    6  A    between atoms: C4_6  and  C5_9 
REMARK    7  A    between atoms: C5_9  and  O4_10 
REMARK    8  A    between atoms: C6_12  and  O5_13 
REMARK    9  A    between atoms: C8_18  and  N2_19 
REMARK   10  A    between atoms: N4_28  and  N5_29 
REMARK   11  A    between atoms: C11_32  and  O8_33 
ROOT
HETATM    1  C6  UNL     1     -67.345  -3.916   0.874  1.00  0.00     0.175 C 
HETATM    2  C7  UNL     1     -68.609  -4.295   1.532  1.00  0.00     0.108 A 
HETATM    3  N1  UNL     1     -68.614  -5.018   2.671  1.00  0.00    -0.189 N 
ATOM      4  H1  UNL     1     -67.723  -5.307   3.075  1.00  0.00     0.184 HD
HETATM    5  C8  UNL     1     -69.758  -5.374   3.297  1.00  0.00     0.679 A 
HETATM    6  N3  UNL     1     -70.970  -5.017   2.803  1.00  0.00    -0.154 N 
ATOM      7  H3  UNL     1     -71.830  -5.289   3.280  1.00  0.00     0.187 HD
HETATM    8  C9  UNL     1     -71.011  -4.296   1.671  1.00  0.00     0.297 A 
HETATM    9  O6  UNL     1     -72.093  -3.924   1.147  1.00  0.00    -0.264 OA
HETATM   10  C10 UNL     1     -69.812  -3.924   1.017  1.00  0.00     0.189 A 
HETATM   11  O7  UNL     1     -69.870  -3.183  -0.143  1.00  0.00    -0.232 OA
HETATM   12  N4  UNL     1     -68.785  -3.124  -0.952  1.00  0.00    -0.072 NA
HETATM   13  C11 UNL     1     -67.550  -2.901  -0.206  1.00  0.00     0.284 C 
ENDROOT
BRANCH   1  14
HETATM   14  C3  UNL     1     -66.565  -5.147   0.391  1.00  0.00     0.207 C 
BRANCH  14  15
HETATM   15  O2  UNL     1     -67.426  -6.169   0.217  1.00  0.00    -0.310 OA
BRANCH  15  16
HETATM   16  C2  UNL     1     -67.425  -7.460   0.637  1.00  0.00     0.255 C 
HETATM   17  C1  UNL     1     -67.958  -8.613  -0.139  1.00  0.00     0.126 C 
HETATM   18  O1  UNL     1     -66.924  -7.574   1.757  1.00  0.00    -0.266 OA
ENDBRANCH  15  16
ENDBRANCH  14  15
BRANCH  14  19
HETATM   19  C4  UNL     1     -65.453  -4.842  -0.509  1.00  0.00     0.174 C 
BRANCH  19  20
HETATM   20  O3  UNL     1     -64.275  -4.697   0.276  1.00  0.00    -0.391 OA
ATOM     21  H3  UNL     1     -63.820  -3.915  -0.014  1.00  0.00     0.210 HD
ENDBRANCH  19  20
BRANCH  19  22
HETATM   22  C5  UNL     1     -65.209  -5.609  -1.742  1.00  0.00     0.198 C 
BRANCH  22  23
HETATM   23  O4  UNL     1     -66.439  -5.567  -2.469  1.00  0.00    -0.398 OA
ATOM     24  H4  UNL     1     -66.240  -5.920  -3.328  1.00  0.00     0.209 HD
ENDBRANCH  22  23
ENDBRANCH  19  22
ENDBRANCH  14  19
ENDBRANCH   1  14
BRANCH   1  25
HETATM   25  O5  UNL     1     -66.603  -3.276   1.901  1.00  0.00    -0.377 OA
ATOM     26  H5  UNL     1     -67.129  -3.253   2.692  1.00  0.00     0.211 HD
ENDBRANCH   1  25
BRANCH  13  27
HETATM   27  O8  UNL     1     -67.620  -1.598   0.284  1.00  0.00    -0.373 OA
ATOM     28  H8  UNL     1     -66.766  -1.190   0.368  1.00  0.00     0.212 HD
ENDBRANCH  13  27
BRANCH  12  29
HETATM   29  N5  UNL     1     -68.959  -2.076  -1.852  1.00  0.00    -0.338 NA
ATOM     30  H52 UNL     1     -68.461  -2.297  -2.714  1.00  0.00     0.173 HD
ATOM     31  H51 UNL     1     -68.621  -1.216  -1.420  1.00  0.00     0.173 HD
ENDBRANCH  12  29
BRANCH   5  32
HETATM   32  N2  UNL     1     -69.677  -6.067   4.382  1.00  0.00    -0.234 N 
ATOM     33  H22 UNL     1     -68.768  -6.364   4.735  1.00  0.00     0.174 HD
ATOM     34  H21 UNL     1     -70.539  -6.307   4.873  1.00  0.00     0.174 HD
ENDBRANCH   5  32
TORSDOF 11
ENDMDL
MODEL 2
REMARK VINA RESULT: -4.536883900      2.641      4.410
REMARK  11 active torsions:
REMARK  status: ('A' for Active; 'I' for Inactive)
REMARK    1  A    between atoms: C2_2  and  O2_4 
REMARK    2  A    between atoms: O2_4  and  C3_5 
REMARK    3  A    between atoms: C3_5  and  C4_6 
REMARK    4  A    between atoms: C3_5  and  C6_12 
REMARK    5  A    between atoms: C4_6  and  O3_7 
REMARK    6  A    between atoms: C4_6  and  C5_9 
REMARK    7  A    between atoms: C5_9  and  O4_10 
REMARK    8  A    between atoms: C6_12  and  O5_13 
REMARK    9  A    between atoms: C8_18  and  N2_19 
REMARK   10  A    between atoms: N4_28  and  N5_29 
REMARK   11  A    between atoms: C11_32  and  O8_33 
ROOT
HETATM    1  C6  UNL     1     -68.233  -5.159  -0.353  1.00  0.00     0.175 C 
HETATM    2  C7  UNL     1     -67.724  -5.560  -1.677  1.00  0.00     0.108 A 
HETATM    3  N1  UNL     1     -67.314  -6.824  -1.915  1.00  0.00    -0.189 N 
ATOM      4  H1  UNL     1     -67.357  -7.506  -1.157  1.00  0.00     0.184 HD
HETATM    5  C8  UNL     1     -66.849  -7.219  -3.121  1.00  0.00     0.679 A 
HETATM    6  N3  UNL     1     -66.771  -6.353  -4.163  1.00  0.00    -0.154 N 
ATOM      7  H3  UNL     1     -66.418  -6.658  -5.070  1.00  0.00     0.187 HD
HETATM    8  C9  UNL     1     -67.169  -5.085  -3.970  1.00  0.00     0.297 A 
HETATM    9  O6  UNL     1     -67.129  -4.219  -4.883  1.00  0.00    -0.264 OA
HETATM   10  C10 UNL     1     -67.656  -4.673  -2.706  1.00  0.00     0.189 A 
HETATM   11  O7  UNL     1     -68.063  -3.369  -2.524  1.00  0.00    -0.232 OA
HETATM   12  N4  UNL     1     -68.191  -2.879  -1.268  1.00  0.00    -0.072 NA
HETATM   13  C11 UNL     1     -68.879  -3.811  -0.379  1.00  0.00     0.284 C 
ENDROOT
BRANCH   1  14
HETATM   14  C3  UNL     1     -67.151  -5.277   0.731  1.00  0.00     0.207 C 
BRANCH  14  15
HETATM   15  O2  UNL     1     -66.764  -6.565   0.824  1.00  0.00    -0.310 OA
BRANCH  15  16
HETATM   16  C2  UNL     1     -67.314  -7.655   1.418  1.00  0.00     0.255 C 
HETATM   17  C1  UNL     1     -67.540  -7.810   2.880  1.00  0.00     0.126 C 
HETATM   18  O1  UNL     1     -67.611  -8.522   0.593  1.00  0.00    -0.266 OA
ENDBRANCH  15  16
ENDBRANCH  14  15
BRANCH  14  19
HETATM   19  C4  UNL     1     -66.242  -4.135   0.803  1.00  0.00     0.174 C 
BRANCH  19  20
HETATM   20  O3  UNL     1     -66.345  -3.567   2.103  1.00  0.00    -0.391 OA
ATOM     21  H3  UNL     1     -66.087  -2.655   2.049  1.00  0.00     0.210 HD
ENDBRANCH  19  20
BRANCH  19  22
HETATM   22  C5  UNL     1     -64.846  -4.213   0.338  1.00  0.00     0.198 C 
BRANCH  22  23
HETATM   23  O4  UNL     1     -64.043  -3.941   1.489  1.00  0.00    -0.398 OA
ATOM     24  H4  UNL     1     -64.656  -3.738   2.186  1.00  0.00     0.209 HD
ENDBRANCH  22  23
ENDBRANCH  19  22
ENDBRANCH  14  19
ENDBRANCH   1  14
BRANCH   1  25
HETATM   25  O5  UNL     1     -69.260  -6.100  -0.081  1.00  0.00    -0.377 OA
ATOM     26  H5  UNL     1     -69.671  -5.876   0.746  1.00  0.00     0.211 HD
ENDBRANCH   1  25
BRANCH  13  27
HETATM   27  O8  UNL     1     -70.204  -3.855  -0.811  1.00  0.00    -0.373 OA
ATOM     28  H8  UNL     1     -70.656  -3.027  -0.699  1.00  0.00     0.212 HD
ENDBRANCH  13  27
BRANCH  12  29
HETATM   29  N5  UNL     1     -68.919  -1.694  -1.326  1.00  0.00    -0.338 NA
ATOM     30  H52 UNL     1     -68.565  -1.056  -0.613  1.00  0.00     0.173 HD
ATOM     31  H51 UNL     1     -69.907  -1.912  -1.193  1.00  0.00     0.173 HD
ENDBRANCH  12  29
BRANCH   5  32
HETATM   32  N2  UNL     1     -66.475  -8.445  -3.266  1.00  0.00    -0.234 N 
ATOM     33  H22 UNL     1     -65.748  -8.684  -3.940  1.00  0.00     0.174 HD
ATOM     34  H21 UNL     1     -66.922  -9.162  -2.693  1.00  0.00     0.174 HD
ENDBRANCH   5  32
TORSDOF 11
ENDMDL
MODEL 3
REMARK VINA RESULT: -4.510852215      2.430      4.536
REMARK  11 active torsions:
REMARK  status: ('A' for Active; 'I' for Inactive)
REMARK    1  A    between atoms: C2_2  and  O2_4 
REMARK    2  A    between atoms: O2_4  and  C3_5 
REMARK    3  A    between atoms: C3_5  and  C4_6 
REMARK    4  A    between atoms: C3_5  and  C6_12 
REMARK    5  A    between atoms: C4_6  and  O3_7 
REMARK    6  A    between atoms: C4_6  and  C5_9 
REMARK    7  A    between atoms: C5_9  and  O4_10 
REMARK    8  A    between atoms: C6_12  and  O5_13 
REMARK    9  A    between atoms: C8_18  and  N2_19 
REMARK   10  A    between atoms: N4_28  and  N5_29 
REMARK   11  A    between atoms: C11_32  and  O8_33 
ROOT
HETATM    1  C6  UNL     1     -67.901  -5.004   0.932  1.00  0.00     0.175 C 
HETATM    2  C7  UNL     1     -67.870  -5.038  -0.541  1.00  0.00     0.108 A 
HETATM    3  N1  UNL     1     -68.975  -5.337  -1.257  1.00  0.00    -0.189 N 
ATOM      4  H1  UNL     1     -69.841  -5.547  -0.760  1.00  0.00     0.184 HD
HETATM    5  C8  UNL     1     -68.975  -5.370  -2.608  1.00  0.00     0.679 A 
HETATM    6  N3  UNL     1     -67.851  -5.100  -3.319  1.00  0.00    -0.154 N 
ATOM      7  H3  UNL     1     -67.858  -5.126  -4.338  1.00  0.00     0.187 HD
HETATM    8  C9  UNL     1     -66.729  -4.797  -2.647  1.00  0.00     0.297 A 
HETATM    9  O6  UNL     1     -65.644  -4.533  -3.228  1.00  0.00    -0.264 OA
HETATM   10  C10 UNL     1     -66.730  -4.763  -1.231  1.00  0.00     0.189 A 
HETATM   11  O7  UNL     1     -65.572  -4.448  -0.556  1.00  0.00    -0.232 OA
HETATM   12  N4  UNL     1     -65.463  -4.751   0.761  1.00  0.00    -0.072 NA
HETATM   13  C11 UNL     1     -66.664  -4.394   1.511  1.00  0.00     0.284 C 
ENDROOT
BRANCH   1  14
HETATM   14  C3  UNL     1     -68.214  -6.386   1.525  1.00  0.00     0.207 C 
BRANCH  14  15
HETATM   15  O2  UNL     1     -69.537  -6.467   1.769  1.00  0.00    -0.310 OA
BRANCH  15  16
HETATM   16  C2  UNL     1     -70.257  -6.701   2.897  1.00  0.00     0.255 C 
HETATM   17  C1  UNL     1     -70.646  -8.045   3.400  1.00  0.00     0.126 C 
HETATM   18  O1  UNL     1     -70.559  -5.652   3.468  1.00  0.00    -0.266 OA
ENDBRANCH  15  16
ENDBRANCH  14  15
BRANCH  14  19
HETATM   19  C4  UNL     1     -67.406  -7.475   0.978  1.00  0.00     0.174 C 
BRANCH  19  20
HETATM   20  O3  UNL     1     -66.636  -8.031   2.036  1.00  0.00    -0.391 OA
ATOM     21  H3  UNL     1     -65.762  -7.662   1.992  1.00  0.00     0.210 HD
ENDBRANCH  19  20
BRANCH  19  22
HETATM   22  C5  UNL     1     -67.979  -8.511   0.102  1.00  0.00     0.198 C 
BRANCH  22  23
HETATM   23  O4  UNL     1     -67.459  -8.241  -1.202  1.00  0.00    -0.398 OA
ATOM     24  H4  UNL     1     -66.698  -8.802  -1.294  1.00  0.00     0.209 HD
ENDBRANCH  22  23
ENDBRANCH  19  22
ENDBRANCH  14  19
ENDBRANCH   1  14
BRANCH   1  25
HETATM   25  O5  UNL     1     -68.970  -4.122   1.232  1.00  0.00    -0.377 OA
ATOM     26  H5  UNL     1     -68.858  -3.321   0.735  1.00  0.00     0.211 HD
ENDBRANCH   1  25
BRANCH  13  27
HETATM   27  O8  UNL     1     -66.709  -3.001   1.535  1.00  0.00    -0.373 OA
ATOM     28  H8  UNL     1     -65.940  -2.614   1.936  1.00  0.00     0.212 HD
ENDBRANCH  13  27
BRANCH  12  29
HETATM   29  N5  UNL     1     -64.380  -4.052   1.289  1.00  0.00    -0.338 NA
ATOM     30  H52 UNL     1     -63.519  -4.443   0.906  1.00  0.00     0.173 HD
ATOM     31  H51 UNL     1     -64.416  -4.118   2.306  1.00  0.00     0.173 HD
ENDBRANCH  12  29
BRANCH   5  32
HETATM   32  N2  UNL     1     -70.073  -5.666  -3.217  1.00  0.00    -0.234 N 
ATOM     33  H22 UNL     1     -70.844  -5.000  -3.239  1.00  0.00     0.174 HD
ATOM     34  H21 UNL     1     -70.148  -6.577  -3.673  1.00  0.00     0.174 HD
ENDBRANCH   5  32
TORSDOF 11
ENDMDL
MODEL 4
REMARK VINA RESULT: -4.479302738      2.189      3.485
REMARK  11 active torsions:
REMARK  status: ('A' for Active; 'I' for Inactive)
REMARK    1  A    between atoms: C2_2  and  O2_4 
REMARK    2  A    between atoms: O2_4  and  C3_5 
REMARK    3  A    between atoms: C3_5  and  C4_6 
REMARK    4  A    between atoms: C3_5  and  C6_12 
REMARK    5  A    between atoms: C4_6  and  O3_7 
REMARK    6  A    between atoms: C4_6  and  C5_9 
REMARK    7  A    between atoms: C5_9  and  O4_10 
REMARK    8  A    between atoms: C6_12  and  O5_13 
REMARK    9  A    between atoms: C8_18  and  N2_19 
REMARK   10  A    between atoms: N4_28  and  N5_29 
REMARK   11  A    between atoms: C11_32  and  O8_33 
ROOT
HETATM    1  C6  UNL     1     -66.323  -5.056  -0.284  1.00  0.00     0.175 C 
HETATM    2  C7  UNL     1     -67.009  -5.693   0.855  1.00  0.00     0.108 A 
HETATM    3  N1  UNL     1     -66.829  -7.001   1.136  1.00  0.00    -0.189 N 
ATOM      4  H1  UNL     1     -66.208  -7.551   0.542  1.00  0.00     0.184 HD
HETATM    5  C8  UNL     1     -67.441  -7.608   2.178  1.00  0.00     0.679 A 
HETATM    6  N3  UNL     1     -68.276  -6.924   2.999  1.00  0.00    -0.154 N 
ATOM      7  H3  UNL     1     -68.734  -7.388   3.783  1.00  0.00     0.187 HD
HETATM    8  C9  UNL     1     -68.483  -5.620   2.756  1.00  0.00     0.297 A 
HETATM    9  O6  UNL     1     -69.242  -4.912   3.469  1.00  0.00    -0.264 OA
HETATM   10  C10 UNL     1     -67.841  -4.984   1.664  1.00  0.00     0.189 A 
HETATM   11  O7  UNL     1     -68.063  -3.646   1.428  1.00  0.00    -0.232 OA
HETATM   12  N4  UNL     1     -67.751  -3.121   0.219  1.00  0.00    -0.072 NA
HETATM   13  C11 UNL     1     -66.444  -3.565  -0.257  1.00  0.00     0.284 C 
ENDROOT
BRANCH   1  14
HETATM   14  C3  UNL     1     -66.766  -5.662  -1.624  1.00  0.00     0.207 C 
BRANCH  14  15
HETATM   15  O2  UNL     1     -65.721  -6.308  -2.178  1.00  0.00    -0.310 OA
BRANCH  15  16
HETATM   16  C2  UNL     1     -65.179  -6.294  -3.423  1.00  0.00     0.255 C 
HETATM   17  C1  UNL     1     -65.533  -5.330  -4.500  1.00  0.00     0.126 C 
HETATM   18  O1  UNL     1     -64.344  -7.189  -3.566  1.00  0.00    -0.266 OA
ENDBRANCH  15  16
ENDBRANCH  14  15
BRANCH  14  19
HETATM   19  C4  UNL     1     -68.143  -6.153  -1.640  1.00  0.00     0.174 C 
BRANCH  19  20
HETATM   20  O3  UNL     1     -68.973  -5.129  -2.173  1.00  0.00    -0.391 OA
ATOM     21  H3  UNL     1     -69.464  -4.743  -1.457  1.00  0.00     0.210 HD
ENDBRANCH  19  20
BRANCH  19  22
HETATM   22  C5  UNL     1     -68.494  -7.484  -2.162  1.00  0.00     0.198 C 
BRANCH  22  23
HETATM   23  O4  UNL     1     -67.596  -8.396  -1.526  1.00  0.00    -0.398 OA
ATOM     24  H4  UNL     1     -66.844  -7.876  -1.269  1.00  0.00     0.209 HD
ENDBRANCH  22  23
ENDBRANCH  19  22
ENDBRANCH  14  19
ENDBRANCH   1  14
BRANCH   1  25
HETATM   25  O5  UNL     1     -64.954  -5.359  -0.073  1.00  0.00    -0.377 OA
ATOM     26  H5  UNL     1     -64.885  -6.001   0.624  1.00  0.00     0.211 HD
ENDBRANCH   1  25
BRANCH  13  27
HETATM   27  O8  UNL     1     -65.501  -2.963   0.575  1.00  0.00    -0.373 OA
ATOM     28  H8  UNL     1     -65.099  -2.198   0.181  1.00  0.00     0.212 HD
ENDBRANCH  13  27
BRANCH  12  29
HETATM   29  N5  UNL     1     -67.740  -1.732   0.327  1.00  0.00    -0.338 NA
ATOM     30  H52 UNL     1     -67.729  -1.481   1.316  1.00  0.00     0.173 HD
ATOM     31  H51 UNL     1     -68.558  -1.362  -0.157  1.00  0.00     0.173 HD
ENDBRANCH  12  29
BRANCH   5  32
HETATM   32  N2  UNL     1     -67.216  -8.863   2.378  1.00  0.00    -0.234 N 
ATOM     33  H22 UNL     1     -66.354  -9.164   2.831  1.00  0.00     0.174 HD
ATOM     34  H21 UNL     1     -67.918  -9.538   2.074  1.00  0.00     0.174 HD
ENDBRANCH   5  32
TORSDOF 11
ENDMDL
MODEL 5
REMARK VINA RESULT: -4.472341466      2.628      5.013
REMARK  11 active torsions:
REMARK  status: ('A' for Active; 'I' for Inactive)
REMARK    1  A    between atoms: C2_2  and  O2_4 
REMARK    2  A    between atoms: O2_4  and  C3_5 
REMARK    3  A    between atoms: C3_5  and  C4_6 
REMARK    4  A    between atoms: C3_5  and  C6_12 
REMARK    5  A    between atoms: C4_6  and  O3_7 
REMARK    6  A    between atoms: C4_6  and  C5_9 
REMARK    7  A    between atoms: C5_9  and  O4_10 
REMARK    8  A    between atoms: C6_12  and  O5_13 
REMARK    9  A    between atoms: C8_18  and  N2_19 
REMARK   10  A    between atoms: N4_28  and  N5_29 
REMARK   11  A    between atoms: C11_32  and  O8_33 
ROOT
HETATM    1  C6  UNL     1     -67.621  -4.943   0.649  1.00  0.00     0.175 C 
HETATM    2  C7  UNL     1     -67.343  -5.630  -0.625  1.00  0.00     0.108 A 
HETATM    3  N1  UNL     1     -68.332  -6.209  -1.338  1.00  0.00    -0.189 N 
ATOM      4  H1  UNL     1     -69.286  -6.168  -0.978  1.00  0.00     0.184 HD
HETATM    5  C8  UNL     1     -68.105  -6.841  -2.511  1.00  0.00     0.679 A 
HETATM    6  N3  UNL     1     -66.856  -6.925  -3.034  1.00  0.00    -0.154 N 
ATOM      7  H3  UNL     1     -66.692  -7.404  -3.920  1.00  0.00     0.187 HD
HETATM    8  C9  UNL     1     -65.842  -6.363  -2.358  1.00  0.00     0.297 A 
HETATM    9  O6  UNL     1     -64.653  -6.395  -2.773  1.00  0.00    -0.264 OA
HETATM   10  C10 UNL     1     -66.081  -5.701  -1.129  1.00  0.00     0.189 A 
HETATM   11  O7  UNL     1     -65.030  -5.127  -0.448  1.00  0.00    -0.232 OA
HETATM   12  N4  UNL     1     -65.176  -4.812   0.861  1.00  0.00    -0.072 NA
HETATM   13  C11 UNL     1     -66.449  -4.148   1.131  1.00  0.00     0.284 C 
ENDROOT
BRANCH   1  14
HETATM   14  C3  UNL     1     -68.158  -5.912   1.712  1.00  0.00     0.207 C 
BRANCH  14  15
HETATM   15  O2  UNL     1     -67.582  -7.118   1.535  1.00  0.00    -0.310 OA
BRANCH  15  16
HETATM   16  C2  UNL     1     -68.077  -8.382   1.496  1.00  0.00     0.255 C 
HETATM   17  C1  UNL     1     -67.715  -9.472   2.441  1.00  0.00     0.126 C 
HETATM   18  O1  UNL     1     -68.876  -8.529   0.569  1.00  0.00    -0.266 OA
ENDBRANCH  15  16
ENDBRANCH  14  15
BRANCH  14  19
HETATM   19  C4  UNL     1     -68.408  -5.299   3.016  1.00  0.00     0.174 C 
BRANCH  19  20
HETATM   20  O3  UNL     1     -69.520  -4.422   2.887  1.00  0.00    -0.391 OA
ATOM     21  H3  UNL     1     -70.297  -4.883   3.182  1.00  0.00     0.210 HD
ENDBRANCH  19  20
BRANCH  19  22
HETATM   22  C5  UNL     1     -68.464  -6.091   4.256  1.00  0.00     0.198 C 
BRANCH  22  23
HETATM   23  O4  UNL     1     -69.610  -6.935   4.122  1.00  0.00    -0.398 OA
ATOM     24  H4  UNL     1     -69.765  -7.294   4.987  1.00  0.00     0.209 HD
ENDBRANCH  22  23
ENDBRANCH  19  22
ENDBRANCH  14  19
ENDBRANCH   1  14
BRANCH   1  25
HETATM   25  O5  UNL     1     -68.639  -4.011   0.320  1.00  0.00    -0.377 OA
ATOM     26  H5  UNL     1     -68.692  -3.935  -0.626  1.00  0.00     0.211 HD
ENDBRANCH   1  25
BRANCH  13  27
HETATM   27  O8  UNL     1     -66.367  -2.890   0.536  1.00  0.00    -0.373 OA
ATOM     28  H8  UNL     1     -66.415  -2.928  -0.412  1.00  0.00     0.212 HD
ENDBRANCH  13  27
BRANCH  12  29
HETATM   29  N5  UNL     1     -64.139  -3.959   1.231  1.00  0.00    -0.338 NA
ATOM     30  H52 UNL     1     -63.624  -3.687   0.394  1.00  0.00     0.173 HD
ATOM     31  H51 UNL     1     -63.548  -4.441   1.909  1.00  0.00     0.173 HD
ENDBRANCH  12  29
BRANCH   5  32
HETATM   32  N2  UNL     1     -69.106  -7.369  -3.130  1.00  0.00    -0.234 N 
ATOM     33  H22 UNL     1     -69.961  -7.597  -2.624  1.00  0.00     0.174 HD
ATOM     34  H21 UNL     1     -69.020  -7.550  -4.131  1.00  0.00     0.174 HD
ENDBRANCH   5  32
TORSDOF 11
ENDMDL
