MODEL 1
REMARK VINA RESULT: -4.067352871      0.000      0.000
REMARK  3 active torsions:
REMARK  status: ('A' for Active; 'I' for Inactive)
REMARK    1  A    between atoms: N1_1  and  N2_4 
REMARK    2  A    between atoms: N3_6  and  C1_8 
REMARK    3  A    between atoms: C1_8  and  C2_9 
ROOT
HETATM    1  N2  UNL     1      61.753  77.205  26.869  1.00  0.00    -0.254 N 
ATOM      2  H2  UNL     1      60.849  77.531  26.525  1.00  0.00     0.207 HD
HETATM    3  N3  UNL     1      61.833  76.001  27.217  1.00  0.00    -0.322 N 
ATOM      4  H3  UNL     1      62.716  75.630  27.569  1.00  0.00     0.181 HD
ENDROOT
BRANCH   3   5
HETATM    5  C1  UNL     1      60.673  75.140  27.119  1.00  0.00     0.145 C 
BRANCH   5   6
HETATM    6  C2  UNL     1      59.612  75.721  26.233  1.00  0.00     0.005 A 
HETATM    7  C3  UNL     1      58.569  74.766  25.743  1.00  0.00     0.007 A 
HETATM    8  C4  UNL     1      59.597  75.268  24.821  1.00  0.00     0.007 A 
ENDBRANCH   5   6
ENDBRANCH   3   5
BRANCH   1   9
HETATM    9  N1  UNL     1      62.778  78.122  26.913  1.00  0.00    -0.331 N 
ATOM     10  H12 UNL     1      63.107  78.470  26.012  1.00  0.00     0.178 HD
ATOM     11  H11 UNL     1      63.226  78.472  27.760  1.00  0.00     0.178 HD
ENDBRANCH   1   9
TORSDOF 3
ENDMDL
MODEL 2
REMARK VINA RESULT: -3.432626598      1.201      1.305
REMARK  3 active torsions:
REMARK  status: ('A' for Active; 'I' for Inactive)
REMARK    1  A    between atoms: N1_1  and  N2_4 
REMARK    2  A    between atoms: N3_6  and  C1_8 
REMARK    3  A    between atoms: C1_8  and  C2_9 
ROOT
HETATM    1  N2  UNL     1      62.571  75.709  27.200  1.00  0.00    -0.254 N 
ATOM      2  H2  UNL     1      62.074  76.516  27.579  1.00  0.00     0.207 HD
HETATM    3  N3  UNL     1      61.890  74.689  26.932  1.00  0.00    -0.322 N 
ATOM      4  H3  UNL     1      62.343  73.858  26.553  1.00  0.00     0.181 HD
ENDROOT
BRANCH   3   5
HETATM    5  C1  UNL     1      60.460  74.694  27.161  1.00  0.00     0.145 C 
BRANCH   5   6
HETATM    6  C2  UNL     1      59.739  75.606  26.214  1.00  0.00     0.005 A 
HETATM    7  C3  UNL     1      58.376  75.162  25.784  1.00  0.00     0.007 A 
HETATM    8  C4  UNL     1      59.502  75.094  24.842  1.00  0.00     0.007 A 
ENDBRANCH   5   6
ENDBRANCH   3   5
BRANCH   1   9
HETATM    9  N1  UNL     1      63.931  75.832  27.028  1.00  0.00    -0.331 N 
ATOM     10  H12 UNL     1      64.243  76.622  26.464  1.00  0.00     0.178 HD
ATOM     11  H11 UNL     1      64.637  75.205  27.415  1.00  0.00     0.178 HD
ENDBRANCH   1   9
TORSDOF 3
ENDMDL
MODEL 3
REMARK VINA RESULT: -3.328192148      0.848      1.244
REMARK  3 active torsions:
REMARK  status: ('A' for Active; 'I' for Inactive)
REMARK    1  A    between atoms: N1_1  and  N2_4 
REMARK    2  A    between atoms: N3_6  and  C1_8 
REMARK    3  A    between atoms: C1_8  and  C2_9 
ROOT
HETATM    1  N2  UNL     1      62.573  77.344  26.897  1.00  0.00    -0.254 N 
ATOM      2  H2  UNL     1      61.785  77.992  26.926  1.00  0.00     0.207 HD
HETATM    3  N3  UNL     1      62.365  76.169  27.289  1.00  0.00    -0.322 N 
ATOM      4  H3  UNL     1      63.123  75.487  27.279  1.00  0.00     0.181 HD
ENDROOT
BRANCH   3   5
HETATM    5  C1  UNL     1      61.049  75.784  27.754  1.00  0.00     0.145 C 
BRANCH   5   6
HETATM    6  C2  UNL     1      60.373  74.833  26.811  1.00  0.00     0.005 A 
HETATM    7  C3  UNL     1      59.812  75.435  25.561  1.00  0.00     0.007 A 
HETATM    8  C4  UNL     1      58.909  74.996  26.633  1.00  0.00     0.007 A 
ENDBRANCH   5   6
ENDBRANCH   3   5
BRANCH   1   9
HETATM    9  N1  UNL     1      63.773  77.833  26.433  1.00  0.00    -0.331 N 
ATOM     10  H12 UNL     1      64.612  77.369  26.781  1.00  0.00     0.178 HD
ATOM     11  H11 UNL     1      63.885  78.610  25.782  1.00  0.00     0.178 HD
ENDBRANCH   1   9
TORSDOF 3
ENDMDL
MODEL 4
REMARK VINA RESULT: -3.308135579      2.679      3.716
REMARK  3 active torsions:
REMARK  status: ('A' for Active; 'I' for Inactive)
REMARK    1  A    between atoms: N1_1  and  N2_4 
REMARK    2  A    between atoms: N3_6  and  C1_8 
REMARK    3  A    between atoms: C1_8  and  C2_9 
ROOT
HETATM    1  N2  UNL     1      59.512  75.549  24.685  1.00  0.00    -0.254 N 
ATOM      2  H2  UNL     1      59.985  76.349  24.263  1.00  0.00     0.207 HD
HETATM    3  N3  UNL     1      59.586  75.432  25.933  1.00  0.00    -0.322 N 
ATOM      4  H3  UNL     1      59.130  74.647  26.399  1.00  0.00     0.181 HD
ENDROOT
BRANCH   3   5
HETATM    5  C1  UNL     1      60.318  76.409  26.710  1.00  0.00     0.145 C 
BRANCH   5   6
HETATM    6  C2  UNL     1      61.201  75.767  27.738  1.00  0.00     0.005 A 
HETATM    7  C3  UNL     1      62.675  75.913  27.523  1.00  0.00     0.007 A 
HETATM    8  C4  UNL     1      62.023  74.617  27.290  1.00  0.00     0.007 A 
ENDBRANCH   5   6
ENDBRANCH   3   5
BRANCH   1   9
HETATM    9  N1  UNL     1      58.848  74.692  23.838  1.00  0.00    -0.331 N 
ATOM     10  H12 UNL     1      59.181  74.666  22.874  1.00  0.00     0.178 HD
ATOM     11  H11 UNL     1      58.064  74.092  24.094  1.00  0.00     0.178 HD
ENDBRANCH   1   9
TORSDOF 3
ENDMDL
MODEL 5
REMARK VINA RESULT: -3.006867191      1.350      1.713
REMARK  3 active torsions:
REMARK  status: ('A' for Active; 'I' for Inactive)
REMARK    1  A    between atoms: N1_1  and  N2_4 
REMARK    2  A    between atoms: N3_6  and  C1_8 
REMARK    3  A    between atoms: C1_8  and  C2_9 
ROOT
HETATM    1  N2  UNL     1      61.942  75.234  27.016  1.00  0.00    -0.254 N 
ATOM      2  H2  UNL     1      61.687  74.256  26.879  1.00  0.00     0.207 HD
HETATM    3  N3  UNL     1      61.021  76.084  26.941  1.00  0.00    -0.322 N 
ATOM      4  H3  UNL     1      61.229  77.074  27.070  1.00  0.00     0.181 HD
ENDROOT
BRANCH   3   5
HETATM    5  C1  UNL     1      59.664  75.658  26.671  1.00  0.00     0.145 C 
BRANCH   5   6
HETATM    6  C2  UNL     1      59.590  74.706  25.515  1.00  0.00     0.005 A 
HETATM    7  C3  UNL     1      59.405  75.323  24.164  1.00  0.00     0.007 A 
HETATM    8  C4  UNL     1      58.290  74.613  24.806  1.00  0.00     0.007 A 
ENDBRANCH   5   6
ENDBRANCH   3   5
BRANCH   1   9
HETATM    9  N1  UNL     1      63.267  75.509  27.267  1.00  0.00    -0.331 N 
ATOM     10  H12 UNL     1      63.688  76.247  26.702  1.00  0.00     0.178 HD
ATOM     11  H11 UNL     1      63.850  75.041  27.961  1.00  0.00     0.178 HD
ENDBRANCH   1   9
TORSDOF 3
ENDMDL
