MODEL 1
REMARK VINA RESULT: -3.622187327      0.000      0.000
REMARK  1 active torsions:
REMARK  status: ('A' for Active; 'I' for Inactive)
REMARK    1  A    between atoms: C1_4  and  N2_5 
ROOT
HETATM    1  N2  UNL     1      62.174  75.887  27.510  1.00  0.00    -0.252 N 
HETATM    2  C2  UNL     1      60.825  75.686  28.008  1.00  0.00     0.185 C 
HETATM    3  C3  UNL     1      60.765  74.730  26.844  1.00  0.00     0.223 C 
HETATM    4  O1  UNL     1      62.158  74.614  27.054  1.00  0.00    -0.276 OA
ENDROOT
BRANCH   1   5
HETATM    5  C1  UNL     1      63.060  76.999  27.540  1.00  0.00     0.200 C 
HETATM    6  N1  UNL     1      62.895  78.055  26.811  1.00  0.00    -0.394 N 
ATOM      7  H12 UNL     1      62.085  78.075  26.192  1.00  0.00     0.156 HD
ATOM      8  H11 UNL     1      63.530  78.853  26.832  1.00  0.00     0.156 HD
ENDBRANCH   1   5
TORSDOF 1
ENDMDL
MODEL 2
REMARK VINA RESULT: -3.550469429      2.419      3.206
REMARK  1 active torsions:
REMARK  status: ('A' for Active; 'I' for Inactive)
REMARK    1  A    between atoms: C1_4  and  N2_5 
ROOT
HETATM    1  N2  UNL     1      60.181  75.577  26.563  1.00  0.00    -0.252 N 
HETATM    2  C2  UNL     1      60.753  74.933  27.732  1.00  0.00     0.185 C 
HETATM    3  C3  UNL     1      61.881  75.894  27.447  1.00  0.00     0.223 C 
HETATM    4  O1  UNL     1      60.860  76.699  26.891  1.00  0.00    -0.276 OA
ENDROOT
BRANCH   1   5
HETATM    5  C1  UNL     1      59.287  75.128  25.552  1.00  0.00     0.200 C 
HETATM    6  N1  UNL     1      59.464  75.367  24.293  1.00  0.00    -0.394 N 
ATOM      7  H12 UNL     1      60.290  75.904  24.030  1.00  0.00     0.156 HD
ATOM      8  H11 UNL     1      58.823  75.045  23.568  1.00  0.00     0.156 HD
ENDBRANCH   1   5
TORSDOF 1
ENDMDL
MODEL 3
REMARK VINA RESULT: -3.209064996      1.207      1.263
REMARK  1 active torsions:
REMARK  status: ('A' for Active; 'I' for Inactive)
REMARK    1  A    between atoms: C1_4  and  N2_5 
ROOT
HETATM    1  N2  UNL     1      61.539  76.123  27.140  1.00  0.00    -0.252 N 
HETATM    2  C2  UNL     1      61.199  74.736  27.401  1.00  0.00     0.185 C 
HETATM    3  C3  UNL     1      59.800  75.261  27.196  1.00  0.00     0.223 C 
HETATM    4  O1  UNL     1      60.435  76.212  26.365  1.00  0.00    -0.276 OA
ENDROOT
BRANCH   1   5
HETATM    5  C1  UNL     1      62.611  76.953  27.571  1.00  0.00     0.200 C 
HETATM    6  N1  UNL     1      62.954  78.040  26.958  1.00  0.00    -0.394 N 
ATOM      7  H12 UNL     1      62.419  78.299  26.129  1.00  0.00     0.156 HD
ATOM      8  H11 UNL     1      63.722  78.636  27.267  1.00  0.00     0.156 HD
ENDBRANCH   1   5
TORSDOF 1
ENDMDL
MODEL 4
REMARK VINA RESULT: -2.443304267      2.364      3.135
REMARK  1 active torsions:
REMARK  status: ('A' for Active; 'I' for Inactive)
REMARK    1  A    between atoms: C1_4  and  N2_5 
ROOT
HETATM    1  N2  UNL     1      60.080  75.109  26.137  1.00  0.00    -0.252 N 
HETATM    2  C2  UNL     1      59.517  74.168  25.185  1.00  0.00     0.185 C 
HETATM    3  C3  UNL     1      58.505  75.273  25.014  1.00  0.00     0.223 C 
HETATM    4  O1  UNL     1      59.577  76.116  25.388  1.00  0.00    -0.276 OA
ENDROOT
BRANCH   1   5
HETATM    5  C1  UNL     1      60.833  74.941  27.332  1.00  0.00     0.200 C 
HETATM    6  N1  UNL     1      62.126  74.966  27.364  1.00  0.00    -0.394 N 
ATOM      7  H12 UNL     1      62.613  75.114  26.481  1.00  0.00     0.156 HD
ATOM      8  H11 UNL     1      62.666  74.846  28.221  1.00  0.00     0.156 HD
ENDBRANCH   1   5
TORSDOF 1
ENDMDL
MODEL 5
REMARK VINA RESULT: -2.388765456      2.389      3.253
REMARK  1 active torsions:
REMARK  status: ('A' for Active; 'I' for Inactive)
REMARK    1  A    between atoms: C1_4  and  N2_5 
ROOT
HETATM    1  N2  UNL     1      60.272  75.338  26.278  1.00  0.00    -0.252 N 
HETATM    2  C2  UNL     1      60.890  76.500  26.889  1.00  0.00     0.185 C 
HETATM    3  C3  UNL     1      61.330  75.471  27.901  1.00  0.00     0.223 C 
HETATM    4  O1  UNL     1      61.257  74.578  26.807  1.00  0.00    -0.276 OA
ENDROOT
BRANCH   1   5
HETATM    5  C1  UNL     1      59.110  75.170  25.474  1.00  0.00     0.200 C 
HETATM    6  N1  UNL     1      59.154  75.026  24.189  1.00  0.00    -0.394 N 
ATOM      7  H12 UNL     1      60.073  75.034  23.748  1.00  0.00     0.156 HD
ATOM      8  H11 UNL     1      58.321  74.905  23.612  1.00  0.00     0.156 HD
ENDBRANCH   1   5
TORSDOF 1
ENDMDL
