MODEL 1
REMARK VINA RESULT: -2.688817440      0.000      0.000
REMARK  3 active torsions:
REMARK  status: ('A' for Active; 'I' for Inactive)
REMARK    1  A    between atoms: N1_1  and  C1_5 
REMARK    2  A    between atoms: C1_5  and  C2_6 
REMARK    3  A    between atoms: C2_6  and  N2_7 
ROOT
HETATM    1  C1  UNL     1      63.253  77.161  27.573  1.00  0.00     0.259 C 
ENDROOT
BRANCH   1   2
HETATM    2  N1  UNL     1      62.557  78.165  26.773  1.00  0.00    -0.078 N 
ATOM      3  H13 UNL     1      62.470  77.884  25.796  1.00  0.00     0.274 HD
ATOM      4  H12 UNL     1      61.563  78.215  27.000  1.00  0.00     0.274 HD
ATOM      5  H11 UNL     1      63.018  79.069  26.872  1.00  0.00     0.274 HD
ENDBRANCH   1   2
BRANCH   1   6
HETATM    6  C2  UNL     1      62.730  75.768  27.228  1.00  0.00     0.299 C 
BRANCH   6   7
HETATM    7  N2  UNL     1      61.372  75.701  27.705  1.00  0.00     0.093 N 
HETATM    8  C3  UNL     1      60.344  75.449  26.700  1.00  0.00     0.302 A 
HETATM    9  C4  UNL     1      60.667  74.443  27.709  1.00  0.00     0.302 A 
ENDBRANCH   6   7
ENDBRANCH   1   6
TORSDOF 3
ENDMDL
MODEL 2
REMARK VINA RESULT: -2.487093795      0.992      1.014
REMARK  3 active torsions:
REMARK  status: ('A' for Active; 'I' for Inactive)
REMARK    1  A    between atoms: N1_1  and  C1_5 
REMARK    2  A    between atoms: C1_5  and  C2_6 
REMARK    3  A    between atoms: C2_6  and  N2_7 
ROOT
HETATM    1  C1  UNL     1      63.113  76.340  27.347  1.00  0.00     0.259 C 
ENDROOT
BRANCH   1   2
HETATM    2  N1  UNL     1      63.713  77.391  26.529  1.00  0.00    -0.078 N 
ATOM      3  H13 UNL     1      64.353  77.976  27.067  1.00  0.00     0.274 HD
ATOM      4  H12 UNL     1      64.384  77.017  25.857  1.00  0.00     0.274 HD
ATOM      5  H11 UNL     1      62.982  77.938  26.076  1.00  0.00     0.274 HD
ENDBRANCH   1   2
BRANCH   1   6
HETATM    6  C2  UNL     1      61.707  76.754  27.775  1.00  0.00     0.299 C 
BRANCH   6   7
HETATM    7  N2  UNL     1      60.941  75.542  27.923  1.00  0.00     0.093 N 
HETATM    8  C3  UNL     1      60.083  75.177  26.801  1.00  0.00     0.302 A 
HETATM    9  C4  UNL     1      61.263  74.380  27.131  1.00  0.00     0.302 A 
ENDBRANCH   6   7
ENDBRANCH   1   6
TORSDOF 3
ENDMDL
MODEL 3
REMARK VINA RESULT: -2.471099667      1.550      3.111
REMARK  3 active torsions:
REMARK  status: ('A' for Active; 'I' for Inactive)
REMARK    1  A    between atoms: N1_1  and  C1_5 
REMARK    2  A    between atoms: C1_5  and  C2_6 
REMARK    3  A    between atoms: C2_6  and  N2_7 
ROOT
HETATM    1  C1  UNL     1      59.579  75.462  26.373  1.00  0.00     0.259 C 
ENDROOT
BRANCH   1   2
HETATM    2  N1  UNL     1      59.641  75.405  24.915  1.00  0.00    -0.078 N 
ATOM      3  H13 UNL     1      58.714  75.349  24.494  1.00  0.00     0.274 HD
ATOM      4  H12 UNL     1      59.933  76.294  24.509  1.00  0.00     0.274 HD
ATOM      5  H11 UNL     1      60.242  74.635  24.622  1.00  0.00     0.274 HD
ENDBRANCH   1   2
BRANCH   1   6
HETATM    6  C2  UNL     1      60.816  74.796  26.971  1.00  0.00     0.299 C 
BRANCH   6   7
HETATM    7  N2  UNL     1      61.470  75.786  27.788  1.00  0.00     0.093 N 
HETATM    8  C3  UNL     1      62.891  76.002  27.532  1.00  0.00     0.302 A 
HETATM    9  C4  UNL     1      61.907  77.032  27.206  1.00  0.00     0.302 A 
ENDBRANCH   6   7
ENDBRANCH   1   6
TORSDOF 3
ENDMDL
MODEL 4
REMARK VINA RESULT: -2.208179327      2.152      3.465
REMARK  3 active torsions:
REMARK  status: ('A' for Active; 'I' for Inactive)
REMARK    1  A    between atoms: N1_1  and  C1_5 
REMARK    2  A    between atoms: C1_5  and  C2_6 
REMARK    3  A    between atoms: C2_6  and  N2_7 
ROOT
HETATM    1  C1  UNL     1      58.827  74.918  25.116  1.00  0.00     0.259 C 
ENDROOT
BRANCH   1   2
HETATM    2  N1  UNL     1      59.607  75.350  23.959  1.00  0.00    -0.078 N 
ATOM      3  H13 UNL     1      59.933  76.311  24.054  1.00  0.00     0.274 HD
ATOM      4  H12 UNL     1      60.517  74.889  23.917  1.00  0.00     0.274 HD
ATOM      5  H11 UNL     1      59.068  75.211  23.105  1.00  0.00     0.274 HD
ENDBRANCH   1   2
BRANCH   1   6
HETATM    6  C2  UNL     1      59.316  75.638  26.371  1.00  0.00     0.299 C 
BRANCH   6   7
HETATM    7  N2  UNL     1      60.709  75.302  26.529  1.00  0.00     0.093 N 
HETATM    8  C3  UNL     1      61.386  75.879  27.686  1.00  0.00     0.302 A 
HETATM    9  C4  UNL     1      61.128  74.443  27.609  1.00  0.00     0.302 A 
ENDBRANCH   6   7
ENDBRANCH   1   6
TORSDOF 3
ENDMDL
MODEL 5
REMARK VINA RESULT: -2.146511311      1.688      2.316
REMARK  3 active torsions:
REMARK  status: ('A' for Active; 'I' for Inactive)
REMARK    1  A    between atoms: N1_1  and  C1_5 
REMARK    2  A    between atoms: C1_5  and  C2_6 
REMARK    3  A    between atoms: C2_6  and  N2_7 
ROOT
HETATM    1  C1  UNL     1      61.724  75.927  27.697  1.00  0.00     0.259 C 
ENDROOT
BRANCH   1   2
HETATM    2  N1  UNL     1      63.070  75.572  27.258  1.00  0.00    -0.078 N 
ATOM      3  H13 UNL     1      63.734  76.332  27.403  1.00  0.00     0.274 HD
ATOM      4  H12 UNL     1      63.503  74.879  27.870  1.00  0.00     0.274 HD
ATOM      5  H11 UNL     1      63.048  75.263  26.286  1.00  0.00     0.274 HD
ENDBRANCH   1   2
BRANCH   1   6
HETATM    6  C2  UNL     1      60.713  74.930  27.135  1.00  0.00     0.299 C 
BRANCH   6   7
HETATM    7  N2  UNL     1      59.815  75.676  26.290  1.00  0.00     0.093 N 
HETATM    8  C3  UNL     1      59.503  75.084  24.993  1.00  0.00     0.302 A 
HETATM    9  C4  UNL     1      58.483  75.184  26.035  1.00  0.00     0.302 A 
ENDBRANCH   6   7
ENDBRANCH   1   6
TORSDOF 3
ENDMDL
