MODEL 1
REMARK VINA RESULT: -3.534926236      0.000      0.000
REMARK  2 active torsions:
REMARK  status: ('A' for Active; 'I' for Inactive)
REMARK    1  A    between atoms: N1_1  and  C1_5 
REMARK    2  A    between atoms: C1_5  and  C2_6 
ROOT
HETATM    1  C1  UNL     1      59.887  75.357  26.849  1.00  0.00     0.259 C 
ENDROOT
BRANCH   1   2
HETATM    2  N1  UNL     1      59.747  75.317  25.402  1.00  0.00    -0.076 N 
ATOM      3  H13 UNL     1      59.121  76.049  25.067  1.00  0.00     0.274 HD
ATOM      4  H12 UNL     1      60.604  75.616  24.936  1.00  0.00     0.274 HD
ATOM      5  H11 UNL     1      59.449  74.396  25.080  1.00  0.00     0.274 HD
ENDBRANCH   1   2
BRANCH   1   6
HETATM    6  C2  UNL     1      61.202  74.834  27.282  1.00  0.00     0.034 C 
HETATM    7  C3  UNL     1      62.234  75.650  27.394  1.00  0.00     0.068 A 
HETATM    8  C4  UNL     1      62.994  76.926  27.351  1.00  0.00     0.239 A 
HETATM    9  O1  UNL     1      63.647  75.738  27.738  1.00  0.00    -0.347 OA
ENDBRANCH   1   6
TORSDOF 2
ENDMDL
MODEL 2
REMARK VINA RESULT: -3.293447102      2.259      3.129
REMARK  2 active torsions:
REMARK  status: ('A' for Active; 'I' for Inactive)
REMARK    1  A    between atoms: N1_1  and  C1_5 
REMARK    2  A    between atoms: C1_5  and  C2_6 
ROOT
HETATM    1  C1  UNL     1      63.483  77.025  26.878  1.00  0.00     0.259 C 
ENDROOT
BRANCH   1   2
HETATM    2  N1  UNL     1      62.603  78.183  26.861  1.00  0.00    -0.076 N 
ATOM      3  H13 UNL     1      61.936  78.135  26.090  1.00  0.00     0.274 HD
ATOM      4  H12 UNL     1      61.945  78.163  27.640  1.00  0.00     0.274 HD
ATOM      5  H11 UNL     1      63.131  79.056  26.842  1.00  0.00     0.274 HD
ENDBRANCH   1   2
BRANCH   1   6
HETATM    6  C2  UNL     1      62.911  75.920  27.678  1.00  0.00     0.034 C 
HETATM    7  C3  UNL     1      61.682  75.499  27.442  1.00  0.00     0.068 A 
HETATM    8  C4  UNL     1      60.347  75.435  26.793  1.00  0.00     0.239 A 
HETATM    9  O1  UNL     1      60.654  74.548  27.845  1.00  0.00    -0.347 OA
ENDBRANCH   1   6
TORSDOF 2
ENDMDL
MODEL 3
REMARK VINA RESULT: -3.251548916      3.033      3.759
REMARK  2 active torsions:
REMARK  status: ('A' for Active; 'I' for Inactive)
REMARK    1  A    between atoms: N1_1  and  C1_5 
REMARK    2  A    between atoms: C1_5  and  C2_6 
ROOT
HETATM    1  C1  UNL     1      61.404  74.584  27.357  1.00  0.00     0.259 C 
ENDROOT
BRANCH   1   2
HETATM    2  N1  UNL     1      62.713  75.196  27.189  1.00  0.00    -0.076 N 
ATOM      3  H13 UNL     1      62.798  76.053  27.735  1.00  0.00     0.274 HD
ATOM      4  H12 UNL     1      63.443  74.646  27.643  1.00  0.00     0.274 HD
ATOM      5  H11 UNL     1      62.927  75.359  26.205  1.00  0.00     0.274 HD
ENDBRANCH   1   2
BRANCH   1   6
HETATM    6  C2  UNL     1      60.316  75.543  27.065  1.00  0.00     0.034 C 
HETATM    7  C3  UNL     1      59.603  75.420  25.960  1.00  0.00     0.068 A 
HETATM    8  C4  UNL     1      59.156  74.846  24.665  1.00  0.00     0.239 A 
HETATM    9  O1  UNL     1      58.509  75.986  25.183  1.00  0.00    -0.347 OA
ENDBRANCH   1   6
TORSDOF 2
ENDMDL
MODEL 4
REMARK VINA RESULT: -2.913546256      2.858      3.561
REMARK  2 active torsions:
REMARK  status: ('A' for Active; 'I' for Inactive)
REMARK    1  A    between atoms: N1_1  and  C1_5 
REMARK    2  A    between atoms: C1_5  and  C2_6 
ROOT
HETATM    1  C1  UNL     1      61.631  75.988  27.676  1.00  0.00     0.259 C 
ENDROOT
BRANCH   1   2
HETATM    2  N1  UNL     1      63.002  75.662  27.316  1.00  0.00    -0.076 N 
ATOM      3  H13 UNL     1      63.116  75.588  26.305  1.00  0.00     0.274 HD
ATOM      4  H12 UNL     1      63.630  76.447  27.489  1.00  0.00     0.274 HD
ATOM      5  H11 UNL     1      63.323  74.817  27.790  1.00  0.00     0.274 HD
ENDBRANCH   1   2
BRANCH   1   6
HETATM    6  C2  UNL     1      60.701  74.896  27.313  1.00  0.00     0.034 C 
HETATM    7  C3  UNL     1      59.913  75.019  26.261  1.00  0.00     0.068 A 
HETATM    8  C4  UNL     1      59.300  75.650  25.064  1.00  0.00     0.239 A 
HETATM    9  O1  UNL     1      58.882  74.365  25.465  1.00  0.00    -0.347 OA
ENDBRANCH   1   6
TORSDOF 2
ENDMDL
MODEL 5
REMARK VINA RESULT: -2.833075389      2.748      3.451
REMARK  2 active torsions:
REMARK  status: ('A' for Active; 'I' for Inactive)
REMARK    1  A    between atoms: N1_1  and  C1_5 
REMARK    2  A    between atoms: C1_5  and  C2_6 
ROOT
HETATM    1  C1  UNL     1      62.699  76.234  27.378  1.00  0.00     0.259 C 
ENDROOT
BRANCH   1   2
HETATM    2  N1  UNL     1      62.988  77.594  26.951  1.00  0.00    -0.076 N 
ATOM      3  H13 UNL     1      62.160  78.047  26.563  1.00  0.00     0.274 HD
ATOM      4  H12 UNL     1      63.145  78.210  27.749  1.00  0.00     0.274 HD
ATOM      5  H11 UNL     1      63.770  77.624  26.297  1.00  0.00     0.274 HD
ENDBRANCH   1   2
BRANCH   1   6
HETATM    6  C2  UNL     1      61.276  76.073  27.752  1.00  0.00     0.034 C 
HETATM    7  C3  UNL     1      60.383  75.747  26.835  1.00  0.00     0.068 A 
HETATM    8  C4  UNL     1      59.849  75.398  25.494  1.00  0.00     0.239 A 
HETATM    9  O1  UNL     1      58.974  75.469  26.597  1.00  0.00    -0.347 OA
ENDBRANCH   1   6
TORSDOF 2
ENDMDL
