MODEL 1
REMARK VINA RESULT: -9.086213506      0.000      0.000
REMARK  3 active torsions:
REMARK  status: ('A' for Active; 'I' for Inactive)
REMARK    1  A    between atoms: C5_5  and  C6_6 
REMARK    2  A    between atoms: C7_7  and  C8_8 
REMARK    3  A    between atoms: N2_11  and  C9_12 
ROOT
HETATM    1  C8  UNL     1       4.287  34.926  55.647  1.00  0.00     0.114 A 
HETATM    2  N1  UNL     1       4.452  35.861  56.607  1.00  0.00    -0.284 N 
ATOM      3  H1  UNL     1       4.392  35.683  57.609  1.00  0.00     0.188 HD
HETATM    4  N2  UNL     1       4.702  37.033  56.069  1.00  0.00    -0.255 N 
HETATM    5  C15 UNL     1       4.707  36.906  54.731  1.00  0.00     0.070 A 
HETATM    6  C16 UNL     1       4.908  37.778  53.688  1.00  0.00     0.032 A 
HETATM    7  C17 UNL     1       4.860  37.379  52.369  1.00  0.00     0.002 A 
HETATM    8  C18 UNL     1       4.596  36.043  52.130  1.00  0.00     0.001 A 
HETATM    9  C19 UNL     1       4.388  35.131  53.120  1.00  0.00     0.017 A 
HETATM   10  C20 UNL     1       4.447  35.575  54.439  1.00  0.00     0.029 A 
ENDROOT
BRANCH   1  11
HETATM   11  C7  UNL     1       4.000  33.525  55.849  1.00  0.00    -0.041 C 
HETATM   12  C6  UNL     1       3.758  32.357  56.034  1.00  0.00    -0.060 C 
BRANCH  12  13
HETATM   13  C5  UNL     1       3.475  30.967  56.279  1.00  0.00     0.018 A 
HETATM   14  C4  UNL     1       4.419  30.100  56.769  1.00  0.00     0.021 A 
HETATM   15  C3  UNL     1       4.141  28.752  57.004  1.00  0.00     0.008 A 
HETATM   16  C2  UNL     1       2.875  28.277  56.734  1.00  0.00    -0.062 A 
HETATM   17  C1  UNL     1       2.545  26.855  56.971  1.00  0.00     0.048 C 
HETATM   18  C22 UNL     1       1.944  29.163  56.243  1.00  0.00     0.008 A 
HETATM   19  C21 UNL     1       2.226  30.492  56.013  1.00  0.00     0.021 A 
ENDBRANCH  12  13
ENDBRANCH   1  11
BRANCH   4  20
HETATM   20  C9  UNL     1       4.930  38.252  56.765  1.00  0.00     0.057 A 
HETATM   21  C10 UNL     1       6.168  38.806  56.881  1.00  0.00     0.031 A 
HETATM   22  C11 UNL     1       6.398  39.988  57.554  1.00  0.00     0.002 A 
HETATM   23  C12 UNL     1       5.323  40.630  58.131  1.00  0.00     0.000 A 
HETATM   24  C13 UNL     1       4.046  40.107  58.041  1.00  0.00     0.002 A 
HETATM   25  C14 UNL     1       3.860  38.924  57.359  1.00  0.00     0.031 A 
ENDBRANCH   4  20
TORSDOF 3
ENDMDL
MODEL 2
REMARK VINA RESULT: -9.058576710      0.065      1.369
REMARK  3 active torsions:
REMARK  status: ('A' for Active; 'I' for Inactive)
REMARK    1  A    between atoms: C5_5  and  C6_6 
REMARK    2  A    between atoms: C7_7  and  C8_8 
REMARK    3  A    between atoms: N2_11  and  C9_12 
ROOT
HETATM    1  C8  UNL     1       4.253  34.950  55.663  1.00  0.00     0.114 A 
HETATM    2  N1  UNL     1       4.406  35.880  56.629  1.00  0.00    -0.284 N 
ATOM      3  H1  UNL     1       4.323  35.699  57.629  1.00  0.00     0.188 HD
HETATM    4  N2  UNL     1       4.676  37.052  56.102  1.00  0.00    -0.255 N 
HETATM    5  C15 UNL     1       4.709  36.929  54.763  1.00  0.00     0.070 A 
HETATM    6  C16 UNL     1       4.940  37.804  53.728  1.00  0.00     0.032 A 
HETATM    7  C17 UNL     1       4.917  37.409  52.406  1.00  0.00     0.002 A 
HETATM    8  C18 UNL     1       4.647  36.076  52.157  1.00  0.00     0.001 A 
HETATM    9  C19 UNL     1       4.410  35.163  53.139  1.00  0.00     0.017 A 
HETATM   10  C20 UNL     1       4.444  35.602  54.461  1.00  0.00     0.029 A 
ENDROOT
BRANCH   1  11
HETATM   11  C7  UNL     1       3.950  33.551  55.853  1.00  0.00    -0.041 C 
HETATM   12  C6  UNL     1       3.696  32.383  56.029  1.00  0.00    -0.060 C 
BRANCH  12  13
HETATM   13  C5  UNL     1       3.402  30.993  56.262  1.00  0.00     0.018 A 
HETATM   14  C4  UNL     1       2.169  30.450  56.002  1.00  0.00     0.021 A 
HETATM   15  C3  UNL     1       1.887  29.102  56.230  1.00  0.00     0.008 A 
HETATM   16  C2  UNL     1       2.882  28.290  56.732  1.00  0.00    -0.062 A 
HETATM   17  C1  UNL     1       2.619  26.857  56.986  1.00  0.00     0.048 C 
HETATM   18  C22 UNL     1       4.111  28.855  56.985  1.00  0.00     0.008 A 
HETATM   19  C21 UNL     1       4.381  30.187  56.759  1.00  0.00     0.021 A 
ENDBRANCH  12  13
ENDBRANCH   1  11
BRANCH   4  20
HETATM   20  C9  UNL     1       4.900  38.266  56.806  1.00  0.00     0.057 A 
HETATM   21  C10 UNL     1       3.892  38.966  57.395  1.00  0.00     0.031 A 
HETATM   22  C11 UNL     1       4.101  40.145  58.080  1.00  0.00     0.002 A 
HETATM   23  C12 UNL     1       5.388  40.630  58.166  1.00  0.00     0.000 A 
HETATM   24  C13 UNL     1       6.446  39.956  57.585  1.00  0.00     0.002 A 
HETATM   25  C14 UNL     1       6.194  38.780  56.910  1.00  0.00     0.031 A 
ENDBRANCH   4  20
TORSDOF 3
ENDMDL
MODEL 3
REMARK VINA RESULT: -8.692578942      2.900      8.842
REMARK  3 active torsions:
REMARK  status: ('A' for Active; 'I' for Inactive)
REMARK    1  A    between atoms: C5_5  and  C6_6 
REMARK    2  A    between atoms: C7_7  and  C8_8 
REMARK    3  A    between atoms: N2_11  and  C9_12 
ROOT
HETATM    1  C8  UNL     1       4.743  32.517  55.864  1.00  0.00     0.114 A 
HETATM    2  N1  UNL     1       4.081  31.349  55.719  1.00  0.00    -0.284 N 
ATOM      3  H1  UNL     1       3.449  31.130  54.950  1.00  0.00     0.188 HD
HETATM    4  N2  UNL     1       4.365  30.534  56.709  1.00  0.00    -0.255 N 
HETATM    5  C15 UNL     1       5.228  31.144  57.541  1.00  0.00     0.070 A 
HETATM    6  C16 UNL     1       5.851  30.776  58.710  1.00  0.00     0.032 A 
HETATM    7  C17 UNL     1       6.715  31.613  59.383  1.00  0.00     0.002 A 
HETATM    8  C18 UNL     1       6.936  32.860  58.827  1.00  0.00     0.001 A 
HETATM    9  C19 UNL     1       6.348  33.281  57.673  1.00  0.00     0.017 A 
HETATM   10  C20 UNL     1       5.483  32.405  57.024  1.00  0.00     0.029 A 
ENDROOT
BRANCH   1  11
HETATM   11  C7  UNL     1       4.685  33.656  54.977  1.00  0.00    -0.041 C 
HETATM   12  C6  UNL     1       4.643  34.599  54.224  1.00  0.00    -0.060 C 
BRANCH  12  13
HETATM   13  C5  UNL     1       4.609  35.711  53.311  1.00  0.00     0.018 A 
HETATM   14  C4  UNL     1       4.300  35.562  51.982  1.00  0.00     0.021 A 
HETATM   15  C3  UNL     1       4.269  36.644  51.100  1.00  0.00     0.008 A 
HETATM   16  C2  UNL     1       4.557  37.903  51.581  1.00  0.00    -0.062 A 
HETATM   17  C1  UNL     1       4.533  39.072  50.675  1.00  0.00     0.048 C 
HETATM   18  C22 UNL     1       4.863  38.031  52.916  1.00  0.00     0.008 A 
HETATM   19  C21 UNL     1       4.893  36.959  53.781  1.00  0.00     0.021 A 
ENDBRANCH  12  13
ENDBRANCH   1  11
BRANCH   4  20
HETATM   20  C9  UNL     1       3.858  29.219  56.894  1.00  0.00     0.057 A 
HETATM   21  C10 UNL     1       4.640  28.186  57.314  1.00  0.00     0.031 A 
HETATM   22  C11 UNL     1       4.155  26.908  57.496  1.00  0.00     0.002 A 
HETATM   23  C12 UNL     1       2.820  26.673  57.240  1.00  0.00     0.000 A 
HETATM   24  C13 UNL     1       1.986  27.689  56.812  1.00  0.00     0.002 A 
HETATM   25  C14 UNL     1       2.511  28.952  56.644  1.00  0.00     0.031 A 
ENDBRANCH   4  20
TORSDOF 3
ENDMDL
MODEL 4
REMARK VINA RESULT: -8.668846553      2.936      8.867
REMARK  3 active torsions:
REMARK  status: ('A' for Active; 'I' for Inactive)
REMARK    1  A    between atoms: C5_5  and  C6_6 
REMARK    2  A    between atoms: C7_7  and  C8_8 
REMARK    3  A    between atoms: N2_11  and  C9_12 
ROOT
HETATM    1  C8  UNL     1       4.748  32.504  55.855  1.00  0.00     0.114 A 
HETATM    2  N1  UNL     1       4.078  31.341  55.712  1.00  0.00    -0.284 N 
ATOM      3  H1  UNL     1       3.447  31.124  54.940  1.00  0.00     0.188 HD
HETATM    4  N2  UNL     1       4.352  30.527  56.705  1.00  0.00    -0.255 N 
HETATM    5  C15 UNL     1       5.216  31.134  57.539  1.00  0.00     0.070 A 
HETATM    6  C16 UNL     1       5.831  30.766  58.712  1.00  0.00     0.032 A 
HETATM    7  C17 UNL     1       6.699  31.600  59.385  1.00  0.00     0.002 A 
HETATM    8  C18 UNL     1       6.931  32.842  58.826  1.00  0.00     0.001 A 
HETATM    9  C19 UNL     1       6.352  33.263  57.668  1.00  0.00     0.017 A 
HETATM   10  C20 UNL     1       5.482  32.391  57.018  1.00  0.00     0.029 A 
ENDROOT
BRANCH   1  11
HETATM   11  C7  UNL     1       4.702  33.640  54.964  1.00  0.00    -0.041 C 
HETATM   12  C6  UNL     1       4.667  34.580  54.206  1.00  0.00    -0.060 C 
BRANCH  12  13
HETATM   13  C5  UNL     1       4.637  35.687  53.286  1.00  0.00     0.018 A 
HETATM   14  C4  UNL     1       4.910  36.974  53.676  1.00  0.00     0.021 A 
HETATM   15  C3  UNL     1       4.879  38.044  52.780  1.00  0.00     0.008 A 
HETATM   16  C2  UNL     1       4.564  37.799  51.461  1.00  0.00    -0.062 A 
HETATM   17  C1  UNL     1       4.521  38.910  50.485  1.00  0.00     0.048 C 
HETATM   18  C22 UNL     1       4.294  36.502  51.091  1.00  0.00     0.008 A 
HETATM   19  C21 UNL     1       4.325  35.450  51.980  1.00  0.00     0.021 A 
ENDBRANCH  12  13
ENDBRANCH   1  11
BRANCH   4  20
HETATM   20  C9  UNL     1       3.834  29.217  56.894  1.00  0.00     0.057 A 
HETATM   21  C10 UNL     1       2.522  28.914  56.695  1.00  0.00     0.031 A 
HETATM   22  C11 UNL     1       2.012  27.645  56.876  1.00  0.00     0.002 A 
HETATM   23  C12 UNL     1       2.874  26.646  57.277  1.00  0.00     0.000 A 
HETATM   24  C13 UNL     1       4.214  26.904  57.493  1.00  0.00     0.002 A 
HETATM   25  C14 UNL     1       4.684  28.186  57.299  1.00  0.00     0.031 A 
ENDBRANCH   4  20
TORSDOF 3
ENDMDL
MODEL 5
REMARK VINA RESULT: -8.505875777      6.236      7.427
REMARK  3 active torsions:
REMARK  status: ('A' for Active; 'I' for Inactive)
REMARK    1  A    between atoms: C5_5  and  C6_6 
REMARK    2  A    between atoms: C7_7  and  C8_8 
REMARK    3  A    between atoms: N2_11  and  C9_12 
ROOT
HETATM    1  C8  UNL     1       8.640  30.302  57.897  1.00  0.00     0.114 A 
HETATM    2  N1  UNL     1       8.892  31.431  58.593  1.00  0.00    -0.284 N 
ATOM      3  H1  UNL     1       8.185  31.992  59.067  1.00  0.00     0.188 HD
HETATM    4  N2  UNL     1      10.176  31.704  58.576  1.00  0.00    -0.255 N 
HETATM    5  C15 UNL     1      10.813  30.759  57.862  1.00  0.00     0.070 A 
HETATM    6  C16 UNL     1      12.127  30.542  57.520  1.00  0.00     0.032 A 
HETATM    7  C17 UNL     1      12.524  29.464  56.758  1.00  0.00     0.002 A 
HETATM    8  C18 UNL     1      11.534  28.594  56.342  1.00  0.00     0.001 A 
HETATM    9  C19 UNL     1      10.217  28.756  56.648  1.00  0.00     0.017 A 
HETATM   10  C20 UNL     1       9.857  29.857  57.421  1.00  0.00     0.029 A 
ENDROOT
BRANCH   1  11
HETATM   11  C7  UNL     1       7.349  29.686  57.692  1.00  0.00    -0.041 C 
HETATM   12  C6  UNL     1       6.270  29.178  57.505  1.00  0.00    -0.060 C 
BRANCH  12  13
HETATM   13  C5  UNL     1       4.978  28.590  57.266  1.00  0.00     0.018 A 
HETATM   14  C4  UNL     1       4.707  27.274  57.543  1.00  0.00     0.021 A 
HETATM   15  C3  UNL     1       3.453  26.707  57.308  1.00  0.00     0.008 A 
HETATM   16  C2  UNL     1       2.454  27.497  56.782  1.00  0.00    -0.062 A 
HETATM   17  C1  UNL     1       1.113  26.930  56.520  1.00  0.00     0.048 C 
HETATM   18  C22 UNL     1       2.746  28.814  56.512  1.00  0.00     0.008 A 
HETATM   19  C21 UNL     1       3.986  29.367  56.745  1.00  0.00     0.021 A 
ENDBRANCH  12  13
ENDBRANCH   1  11
BRANCH   4  20
HETATM   20  C9  UNL     1      10.814  32.812  59.199  1.00  0.00     0.057 A 
HETATM   21  C10 UNL     1      11.277  32.763  60.478  1.00  0.00     0.031 A 
HETATM   22  C11 UNL     1      11.896  33.833  61.090  1.00  0.00     0.002 A 
HETATM   23  C12 UNL     1      12.050  34.998  60.368  1.00  0.00     0.000 A 
HETATM   24  C13 UNL     1      11.597  35.097  59.066  1.00  0.00     0.002 A 
HETATM   25  C14 UNL     1      10.984  34.003  58.492  1.00  0.00     0.031 A 
ENDBRANCH   4  20
TORSDOF 3
ENDMDL
