MODEL 1
REMARK VINA RESULT: -10.190995360      0.000      0.000
REMARK  1 active torsions:
REMARK  status: ('A' for Active; 'I' for Inactive)
REMARK    1  A    between atoms: C9_9  and  C10_10 
ROOT
HETATM    1  C1  UNL     1       1.280  26.988  56.347  1.00  0.00     0.018 C 
HETATM    2  C2  UNL     1       2.073  27.896  56.487  1.00  0.00    -0.078 C 
HETATM    3  C3  UNL     1       2.992  28.984  56.652  1.00  0.00     0.018 A 
HETATM    4  C4  UNL     1       2.727  30.232  56.131  1.00  0.00     0.041 A 
HETATM    5  C5  UNL     1       3.607  31.296  56.282  1.00  0.00     0.018 A 
HETATM    6  C6  UNL     1       3.321  32.593  55.735  1.00  0.00    -0.078 C 
HETATM    7  C7  UNL     1       3.099  33.698  55.272  1.00  0.00     0.018 C 
HETATM    8  C8  UNL     1       4.785  31.053  56.988  1.00  0.00     0.029 A 
HETATM    9  C9  UNL     1       5.075  29.824  57.515  1.00  0.00    -0.037 A 
HETATM   10  C21 UNL     1       4.192  28.789  57.355  1.00  0.00     0.029 A 
ENDROOT
BRANCH   9  11
HETATM   11  C10 UNL     1       6.329  29.614  58.253  1.00  0.00     0.111 A 
HETATM   12  C11 UNL     1       7.209  30.780  58.160  1.00  0.00     0.011 A 
HETATM   13  C12 UNL     1       8.431  30.888  57.755  1.00  0.00     0.095 A 
HETATM   14  N1  UNL     1       9.222  29.807  57.282  1.00  0.00    -0.316 N 
HETATM   15  C13 UNL     1       8.798  28.566  57.202  1.00  0.00     0.078 A 
HETATM   16  C20 UNL     1      10.504  29.810  56.837  1.00  0.00     0.050 A 
HETATM   17  C14 UNL     1       9.796  27.756  56.706  1.00  0.00     0.051 A 
HETATM   18  S1  UNL     1       7.159  28.118  57.690  1.00  0.00    -0.098 SA
HETATM   19  C15 UNL     1      10.891  28.544  56.470  1.00  0.00    -0.006 A 
HETATM   20  C16 UNL     1      12.162  28.313  55.985  1.00  0.00     0.014 A 
HETATM   21  C17 UNL     1      13.071  29.332  55.856  1.00  0.00     0.001 A 
HETATM   22  C18 UNL     1      12.719  30.616  56.214  1.00  0.00     0.002 A 
HETATM   23  C19 UNL     1      11.443  30.809  56.693  1.00  0.00     0.031 A 
ENDBRANCH   9  11
TORSDOF 1
ENDMDL
MODEL 2
REMARK VINA RESULT: -10.182786879      0.172      2.725
REMARK  1 active torsions:
REMARK  status: ('A' for Active; 'I' for Inactive)
REMARK    1  A    between atoms: C9_9  and  C10_10 
ROOT
HETATM    1  C1  UNL     1       3.318  33.821  55.391  1.00  0.00     0.018 C 
HETATM    2  C2  UNL     1       3.531  32.714  55.839  1.00  0.00    -0.078 C 
HETATM    3  C3  UNL     1       3.769  31.397  56.353  1.00  0.00     0.018 A 
HETATM    4  C4  UNL     1       2.857  30.379  56.172  1.00  0.00     0.041 A 
HETATM    5  C5  UNL     1       3.073  29.099  56.663  1.00  0.00     0.018 A 
HETATM    6  C6  UNL     1       2.115  28.046  56.469  1.00  0.00    -0.078 C 
HETATM    7  C7  UNL     1       1.311  27.143  56.320  1.00  0.00     0.018 C 
HETATM    8  C8  UNL     1       4.262  28.875  57.357  1.00  0.00     0.029 A 
HETATM    9  C9  UNL     1       5.186  29.865  57.553  1.00  0.00    -0.037 A 
HETATM   10  C21 UNL     1       4.952  31.121  57.058  1.00  0.00     0.029 A 
ENDROOT
BRANCH   9  11
HETATM   11  C10 UNL     1       6.426  29.583  58.289  1.00  0.00     0.111 A 
HETATM   12  C11 UNL     1       7.341  30.726  58.257  1.00  0.00     0.011 A 
HETATM   13  C12 UNL     1       8.569  30.815  57.866  1.00  0.00     0.095 A 
HETATM   14  N1  UNL     1       9.332  29.734  57.350  1.00  0.00    -0.316 N 
HETATM   15  C13 UNL     1       8.872  28.511  57.209  1.00  0.00     0.078 A 
HETATM   16  C20 UNL     1      10.618  29.718  56.915  1.00  0.00     0.050 A 
HETATM   17  C14 UNL     1       9.850  27.695  56.684  1.00  0.00     0.051 A 
HETATM   18  S1  UNL     1       7.216  28.091  57.664  1.00  0.00    -0.098 SA
HETATM   19  C15 UNL     1      10.969  28.460  56.492  1.00  0.00    -0.006 A 
HETATM   20  C16 UNL     1      12.238  28.213  56.007  1.00  0.00     0.014 A 
HETATM   21  C17 UNL     1      13.178  29.209  55.932  1.00  0.00     0.001 A 
HETATM   22  C18 UNL     1      12.860  30.486  56.346  1.00  0.00     0.002 A 
HETATM   23  C19 UNL     1      11.587  30.695  56.824  1.00  0.00     0.031 A 
ENDBRANCH   9  11
TORSDOF 1
ENDMDL
MODEL 3
REMARK VINA RESULT: -9.803726416      1.079      1.177
REMARK  1 active torsions:
REMARK  status: ('A' for Active; 'I' for Inactive)
REMARK    1  A    between atoms: C9_9  and  C10_10 
ROOT
HETATM    1  C1  UNL     1       1.379  26.865  56.626  1.00  0.00     0.018 C 
HETATM    2  C2  UNL     1       1.950  27.932  56.550  1.00  0.00    -0.078 C 
HETATM    3  C3  UNL     1       2.605  29.204  56.459  1.00  0.00     0.018 A 
HETATM    4  C4  UNL     1       2.029  30.262  55.788  1.00  0.00     0.041 A 
HETATM    5  C5  UNL     1       2.650  31.500  55.691  1.00  0.00     0.018 A 
HETATM    6  C6  UNL     1       2.040  32.595  54.989  1.00  0.00    -0.078 C 
HETATM    7  C7  UNL     1       1.542  33.533  54.392  1.00  0.00     0.018 C 
HETATM    8  C8  UNL     1       3.895  31.638  56.304  1.00  0.00     0.029 A 
HETATM    9  C9  UNL     1       4.492  30.606  56.976  1.00  0.00    -0.037 A 
HETATM   10  C21 UNL     1       3.860  29.393  57.060  1.00  0.00     0.029 A 
ENDROOT
BRANCH   9  11
HETATM   11  C10 UNL     1       5.805  30.797  57.608  1.00  0.00     0.111 A 
HETATM   12  C11 UNL     1       6.693  31.603  56.768  1.00  0.00     0.011 A 
HETATM   13  C12 UNL     1       7.873  31.356  56.305  1.00  0.00     0.095 A 
HETATM   14  N1  UNL     1       8.597  30.157  56.539  1.00  0.00    -0.316 N 
HETATM   15  C13 UNL     1       8.146  29.155  57.258  1.00  0.00     0.078 A 
HETATM   16  C20 UNL     1       9.832  29.799  56.104  1.00  0.00     0.050 A 
HETATM   17  C14 UNL     1       9.079  28.141  57.297  1.00  0.00     0.051 A 
HETATM   18  S1  UNL     1       6.552  29.211  58.021  1.00  0.00    -0.098 SA
HETATM   19  C15 UNL     1      10.160  28.545  56.560  1.00  0.00    -0.006 A 
HETATM   20  C16 UNL     1      11.376  27.978  56.238  1.00  0.00     0.014 A 
HETATM   21  C17 UNL     1      12.287  28.644  55.457  1.00  0.00     0.001 A 
HETATM   22  C18 UNL     1      11.992  29.904  54.980  1.00  0.00     0.002 A 
HETATM   23  C19 UNL     1      10.771  30.438  55.322  1.00  0.00     0.031 A 
ENDBRANCH   9  11
TORSDOF 1
ENDMDL
MODEL 4
REMARK VINA RESULT: -9.773134736      3.414      7.203
REMARK  1 active torsions:
REMARK  status: ('A' for Active; 'I' for Inactive)
REMARK    1  A    between atoms: C9_9  and  C10_10 
ROOT
HETATM    1  C1  UNL     1       1.383  27.117  56.515  1.00  0.00     0.018 C 
HETATM    2  C2  UNL     1       2.197  28.013  56.585  1.00  0.00    -0.078 C 
HETATM    3  C3  UNL     1       3.176  29.058  56.663  1.00  0.00     0.018 A 
HETATM    4  C4  UNL     1       4.485  28.791  57.002  1.00  0.00     0.041 A 
HETATM    5  C5  UNL     1       5.445  29.791  57.082  1.00  0.00     0.018 A 
HETATM    6  C6  UNL     1       6.807  29.501  57.438  1.00  0.00    -0.078 C 
HETATM    7  C7  UNL     1       7.964  29.276  57.745  1.00  0.00     0.018 C 
HETATM    8  C8  UNL     1       5.033  31.094  56.801  1.00  0.00     0.029 A 
HETATM    9  C9  UNL     1       3.741  31.389  56.462  1.00  0.00    -0.037 A 
HETATM   10  C21 UNL     1       2.810  30.386  56.389  1.00  0.00     0.029 A 
ENDROOT
BRANCH   9  11
HETATM   11  C10 UNL     1       3.351  32.777  56.174  1.00  0.00     0.111 A 
HETATM   12  C11 UNL     1       2.542  32.866  54.957  1.00  0.00     0.011 A 
HETATM   13  C12 UNL     1       2.706  33.561  53.881  1.00  0.00     0.095 A 
HETATM   14  N1  UNL     1       3.794  34.446  53.651  1.00  0.00    -0.316 N 
HETATM   15  C13 UNL     1       4.762  34.659  54.512  1.00  0.00     0.078 A 
HETATM   16  C20 UNL     1       4.060  35.217  52.566  1.00  0.00     0.050 A 
HETATM   17  C14 UNL     1       5.662  35.566  53.997  1.00  0.00     0.051 A 
HETATM   18  S1  UNL     1       4.800  33.841  56.079  1.00  0.00    -0.098 SA
HETATM   19  C15 UNL     1       5.220  35.928  52.752  1.00  0.00    -0.006 A 
HETATM   20  C16 UNL     1       5.684  36.781  51.772  1.00  0.00     0.014 A 
HETATM   21  C17 UNL     1       5.006  36.943  50.590  1.00  0.00     0.001 A 
HETATM   22  C18 UNL     1       3.837  36.246  50.368  1.00  0.00     0.002 A 
HETATM   23  C19 UNL     1       3.405  35.405  51.368  1.00  0.00     0.031 A 
ENDBRANCH   9  11
TORSDOF 1
ENDMDL
MODEL 5
REMARK VINA RESULT: -9.750859375      0.942      2.860
REMARK  1 active torsions:
REMARK  status: ('A' for Active; 'I' for Inactive)
REMARK    1  A    between atoms: C9_9  and  C10_10 
ROOT
HETATM    1  C1  UNL     1       1.792  33.584  54.496  1.00  0.00     0.018 C 
HETATM    2  C2  UNL     1       2.265  32.638  55.089  1.00  0.00    -0.078 C 
HETATM    3  C3  UNL     1       2.813  31.505  55.777  1.00  0.00     0.018 A 
HETATM    4  C4  UNL     1       2.145  30.300  55.821  1.00  0.00     0.041 A 
HETATM    5  C5  UNL     1       2.662  29.194  56.482  1.00  0.00     0.018 A 
HETATM    6  C6  UNL     1       1.957  27.943  56.522  1.00  0.00    -0.078 C 
HETATM    7  C7  UNL     1       1.371  26.876  56.572  1.00  0.00     0.018 C 
HETATM    8  C8  UNL     1       3.899  29.347  57.109  1.00  0.00     0.029 A 
HETATM    9  C9  UNL     1       4.585  30.531  57.082  1.00  0.00    -0.037 A 
HETATM   10  C21 UNL     1       4.056  31.609  56.423  1.00  0.00     0.029 A 
ENDROOT
BRANCH   9  11
HETATM   11  C10 UNL     1       5.886  30.646  57.757  1.00  0.00     0.111 A 
HETATM   12  C11 UNL     1       6.789  31.542  57.031  1.00  0.00     0.011 A 
HETATM   13  C12 UNL     1       7.978  31.349  56.565  1.00  0.00     0.095 A 
HETATM   14  N1  UNL     1       8.698  30.129  56.674  1.00  0.00    -0.316 N 
HETATM   15  C13 UNL     1       8.235  29.052  57.266  1.00  0.00     0.078 A 
HETATM   16  C20 UNL     1       9.942  29.822  56.225  1.00  0.00     0.050 A 
HETATM   17  C14 UNL     1       9.167  28.040  57.206  1.00  0.00     0.051 A 
HETATM   18  S1  UNL     1       6.626  29.023  58.000  1.00  0.00    -0.098 SA
HETATM   19  C15 UNL     1      10.262  28.524  56.541  1.00  0.00    -0.006 A 
HETATM   20  C16 UNL     1      11.485  27.996  56.179  1.00  0.00     0.014 A 
HETATM   21  C17 UNL     1      12.409  28.746  55.496  1.00  0.00     0.001 A 
HETATM   22  C18 UNL     1      12.123  30.052  55.161  1.00  0.00     0.002 A 
HETATM   23  C19 UNL     1      10.894  30.545  55.539  1.00  0.00     0.031 A 
ENDBRANCH   9  11
TORSDOF 1
ENDMDL
