MODEL 1
REMARK VINA RESULT: -9.290077058      0.000      0.000
REMARK  1 active torsions:
REMARK  status: ('A' for Active; 'I' for Inactive)
REMARK    1  A    between atoms: C4_4  and  C5_5 
ROOT
HETATM    1  C5  UNL     1       5.554  33.399  56.605  1.00  0.00     0.026 A 
HETATM    2  C6  UNL     1       6.495  34.306  57.031  1.00  0.00     0.018 A 
HETATM    3  C7  UNL     1       7.230  34.002  58.148  1.00  0.00     0.018 A 
HETATM    4  C8  UNL     1       7.062  32.840  58.848  1.00  0.00     0.093 A 
HETATM    5  N1  UNL     1       6.129  31.957  58.412  1.00  0.00    -0.332 N 
HETATM    6  C9  UNL     1       5.394  32.209  57.336  1.00  0.00     0.161 A 
HETATM    7  O1  UNL     1       4.446  31.337  56.874  1.00  0.00    -0.291 OA
HETATM    8  C10 UNL     1       4.198  30.094  57.540  1.00  0.00     0.104 A 
HETATM    9  C11 UNL     1       4.968  29.877  58.632  1.00  0.00     0.036 A 
HETATM   10  S1  UNL     1       4.426  28.326  59.182  1.00  0.00    -0.089 SA
HETATM   11  C12 UNL     1       3.248  28.029  57.998  1.00  0.00     0.018 A 
HETATM   12  C13 UNL     1       2.359  26.960  57.759  1.00  0.00     0.020 A 
HETATM   13  C14 UNL     1       1.482  26.978  56.691  1.00  0.00     0.001 A 
HETATM   14  C15 UNL     1       1.536  28.087  55.898  1.00  0.00     0.001 A 
HETATM   15  C16 UNL     1       2.379  29.120  56.109  1.00  0.00     0.015 A 
HETATM   16  C17 UNL     1       3.290  29.126  57.200  1.00  0.00     0.016 A 
HETATM   17  C18 UNL     1       6.013  30.764  59.197  1.00  0.00     0.179 A 
ENDROOT
BRANCH   1  18
HETATM   18  C4  UNL     1       4.716  33.612  55.441  1.00  0.00    -0.022 A 
HETATM   19  C3  UNL     1       5.342  33.816  54.208  1.00  0.00     0.012 A 
HETATM   20  C2  UNL     1       4.615  34.030  53.056  1.00  0.00     0.001 A 
HETATM   21  C1  UNL     1       3.233  34.050  53.085  1.00  0.00     0.000 A 
HETATM   22  C20 UNL     1       2.620  33.850  54.294  1.00  0.00     0.001 A 
HETATM   23  C19 UNL     1       3.348  33.635  55.451  1.00  0.00     0.012 A 
ENDBRANCH   1  18
TORSDOF 1
ENDMDL
MODEL 2
REMARK VINA RESULT: -9.222302793      2.502      6.613
REMARK  1 active torsions:
REMARK  status: ('A' for Active; 'I' for Inactive)
REMARK    1  A    between atoms: C4_4  and  C5_5 
ROOT
HETATM    1  C5  UNL     1       2.305  31.427  56.044  1.00  0.00     0.026 A 
HETATM    2  C6  UNL     1       1.152  31.364  55.297  1.00  0.00     0.018 A 
HETATM    3  C7  UNL     1       0.909  32.367  54.393  1.00  0.00     0.018 A 
HETATM    4  C8  UNL     1       1.764  33.418  54.210  1.00  0.00     0.093 A 
HETATM    5  N1  UNL     1       2.896  33.462  54.956  1.00  0.00    -0.332 N 
HETATM    6  C9  UNL     1       3.172  32.514  55.843  1.00  0.00     0.161 A 
HETATM    7  O1  UNL     1       4.306  32.534  56.608  1.00  0.00    -0.291 OA
HETATM    8  C10 UNL     1       5.262  33.594  56.487  1.00  0.00     0.104 A 
HETATM    9  C11 UNL     1       4.942  34.538  55.573  1.00  0.00     0.036 A 
HETATM   10  S1  UNL     1       6.274  35.642  55.677  1.00  0.00    -0.089 SA
HETATM   11  C12 UNL     1       7.172  34.848  56.879  1.00  0.00     0.018 A 
HETATM   12  C13 UNL     1       8.398  35.127  57.517  1.00  0.00     0.020 A 
HETATM   13  C14 UNL     1       8.913  34.287  58.487  1.00  0.00     0.001 A 
HETATM   14  C15 UNL     1       8.160  33.187  58.778  1.00  0.00     0.001 A 
HETATM   15  C16 UNL     1       6.984  32.902  58.179  1.00  0.00     0.015 A 
HETATM   16  C17 UNL     1       6.434  33.749  57.179  1.00  0.00     0.016 A 
HETATM   17  C18 UNL     1       3.741  34.593  54.706  1.00  0.00     0.179 A 
ENDROOT
BRANCH   1  18
HETATM   18  C4  UNL     1       2.665  30.429  57.031  1.00  0.00    -0.022 A 
HETATM   19  C3  UNL     1       3.285  29.257  56.587  1.00  0.00     0.012 A 
HETATM   20  C2  UNL     1       3.654  28.259  57.464  1.00  0.00     0.001 A 
HETATM   21  C1  UNL     1       3.421  28.388  58.821  1.00  0.00     0.000 A 
HETATM   22  C20 UNL     1       2.814  29.536  59.256  1.00  0.00     0.001 A 
HETATM   23  C19 UNL     1       2.443  30.538  58.378  1.00  0.00     0.012 A 
ENDBRANCH   1  18
TORSDOF 1
ENDMDL
MODEL 3
REMARK VINA RESULT: -9.180941172      1.570      1.627
REMARK  1 active torsions:
REMARK  status: ('A' for Active; 'I' for Inactive)
REMARK    1  A    between atoms: C4_4  and  C5_5 
ROOT
HETATM    1  C5  UNL     1       6.872  32.544  56.181  1.00  0.00     0.026 A 
HETATM    2  C6  UNL     1       8.114  33.112  56.341  1.00  0.00     0.018 A 
HETATM    3  C7  UNL     1       9.091  32.371  56.955  1.00  0.00     0.018 A 
HETATM    4  C8  UNL     1       8.876  31.100  57.412  1.00  0.00     0.093 A 
HETATM    5  N1  UNL     1       7.645  30.558  57.245  1.00  0.00    -0.332 N 
HETATM    6  C9  UNL     1       6.668  31.238  56.656  1.00  0.00     0.161 A 
HETATM    7  O1  UNL     1       5.417  30.715  56.475  1.00  0.00    -0.291 OA
HETATM    8  C10 UNL     1       5.096  29.392  56.919  1.00  0.00     0.104 A 
HETATM    9  C11 UNL     1       6.118  28.735  57.514  1.00  0.00     0.036 A 
HETATM   10  S1  UNL     1       5.410  27.206  57.919  1.00  0.00    -0.089 SA
HETATM   11  C12 UNL     1       3.848  27.478  57.312  1.00  0.00     0.018 A 
HETATM   12  C13 UNL     1       2.676  26.695  57.263  1.00  0.00     0.020 A 
HETATM   13  C14 UNL     1       1.511  27.176  56.695  1.00  0.00     0.001 A 
HETATM   14  C15 UNL     1       1.577  28.443  56.194  1.00  0.00     0.001 A 
HETATM   15  C16 UNL     1       2.688  29.209  56.231  1.00  0.00     0.015 A 
HETATM   16  C17 UNL     1       3.898  28.738  56.809  1.00  0.00     0.016 A 
HETATM   17  C18 UNL     1       7.498  29.224  57.748  1.00  0.00     0.179 A 
ENDROOT
BRANCH   1  18
HETATM   18  C4  UNL     1       5.762  33.231  55.551  1.00  0.00    -0.022 A 
HETATM   19  C3  UNL     1       5.753  33.327  54.156  1.00  0.00     0.012 A 
HETATM   20  C2  UNL     1       4.734  33.968  53.483  1.00  0.00     0.001 A 
HETATM   21  C1  UNL     1       3.682  34.541  54.173  1.00  0.00     0.000 A 
HETATM   22  C20 UNL     1       3.691  34.447  55.539  1.00  0.00     0.001 A 
HETATM   23  C19 UNL     1       4.712  33.804  56.216  1.00  0.00     0.012 A 
ENDBRANCH   1  18
TORSDOF 1
ENDMDL
MODEL 4
REMARK VINA RESULT: -9.015214382      2.968      5.890
REMARK  1 active torsions:
REMARK  status: ('A' for Active; 'I' for Inactive)
REMARK    1  A    between atoms: C4_4  and  C5_5 
ROOT
HETATM    1  C5  UNL     1       3.246  30.708  56.221  1.00  0.00     0.026 A 
HETATM    2  C6  UNL     1       2.212  31.578  55.961  1.00  0.00     0.018 A 
HETATM    3  C7  UNL     1       2.520  32.876  55.645  1.00  0.00     0.018 A 
HETATM    4  C8  UNL     1       3.807  33.333  55.579  1.00  0.00     0.093 A 
HETATM    5  N1  UNL     1       4.813  32.461  55.838  1.00  0.00    -0.332 N 
HETATM    6  C9  UNL     1       4.562  31.195  56.149  1.00  0.00     0.161 A 
HETATM    7  O1  UNL     1       5.556  30.294  56.415  1.00  0.00    -0.291 OA
HETATM    8  C10 UNL     1       6.935  30.680  56.370  1.00  0.00     0.104 A 
HETATM    9  C11 UNL     1       7.146  31.978  56.051  1.00  0.00     0.036 A 
HETATM   10  S1  UNL     1       8.874  32.106  56.084  1.00  0.00    -0.089 SA
HETATM   11  C12 UNL     1       9.243  30.503  56.503  1.00  0.00     0.018 A 
HETATM   12  C13 UNL     1      10.452  29.812  56.724  1.00  0.00     0.020 A 
HETATM   13  C14 UNL     1      10.464  28.471  57.062  1.00  0.00     0.001 A 
HETATM   14  C15 UNL     1       9.241  27.876  57.166  1.00  0.00     0.001 A 
HETATM   15  C16 UNL     1       8.072  28.520  56.959  1.00  0.00     0.015 A 
HETATM   16  C17 UNL     1       8.033  29.897  56.610  1.00  0.00     0.016 A 
HETATM   17  C18 UNL     1       6.131  33.015  55.748  1.00  0.00     0.179 A 
ENDROOT
BRANCH   1  18
HETATM   18  C4  UNL     1       3.042  29.316  56.569  1.00  0.00    -0.022 A 
HETATM   19  C3  UNL     1       1.864  28.696  56.142  1.00  0.00     0.012 A 
HETATM   20  C2  UNL     1       1.595  27.376  56.437  1.00  0.00     0.001 A 
HETATM   21  C1  UNL     1       2.491  26.618  57.169  1.00  0.00     0.000 A 
HETATM   22  C20 UNL     1       3.645  27.226  57.587  1.00  0.00     0.001 A 
HETATM   23  C19 UNL     1       3.916  28.550  57.292  1.00  0.00     0.012 A 
ENDBRANCH   1  18
TORSDOF 1
ENDMDL
MODEL 5
REMARK VINA RESULT: -9.006800379      2.586      5.481
REMARK  1 active torsions:
REMARK  status: ('A' for Active; 'I' for Inactive)
REMARK    1  A    between atoms: C4_4  and  C5_5 
ROOT
HETATM    1  C5  UNL     1       2.844  29.295  56.489  1.00  0.00     0.026 A 
HETATM    2  C6  UNL     1       1.825  28.388  56.666  1.00  0.00     0.018 A 
HETATM    3  C7  UNL     1       2.141  27.143  57.145  1.00  0.00     0.018 A 
HETATM    4  C8  UNL     1       3.421  26.772  57.448  1.00  0.00     0.093 A 
HETATM    5  N1  UNL     1       4.412  27.680  57.268  1.00  0.00    -0.332 N 
HETATM    6  C9  UNL     1       4.154  28.898  56.806  1.00  0.00     0.161 A 
HETATM    7  O1  UNL     1       5.134  29.832  56.615  1.00  0.00    -0.291 OA
HETATM    8  C10 UNL     1       6.505  29.537  56.905  1.00  0.00     0.104 A 
HETATM    9  C11 UNL     1       6.724  28.286  57.372  1.00  0.00     0.036 A 
HETATM   10  S1  UNL     1       8.440  28.262  57.616  1.00  0.00    -0.089 SA
HETATM   11  C12 UNL     1       8.794  29.844  57.112  1.00  0.00     0.018 A 
HETATM   12  C13 UNL     1       9.988  30.587  57.016  1.00  0.00     0.020 A 
HETATM   13  C14 UNL     1       9.989  31.893  56.562  1.00  0.00     0.001 A 
HETATM   14  C15 UNL     1       8.771  32.401  56.217  1.00  0.00     0.001 A 
HETATM   15  C16 UNL     1       7.617  31.706  56.301  1.00  0.00     0.015 A 
HETATM   16  C17 UNL     1       7.589  30.363  56.765  1.00  0.00     0.016 A 
HETATM   17  C18 UNL     1       5.725  27.217  57.609  1.00  0.00     0.179 A 
ENDROOT
BRANCH   1  18
HETATM   18  C4  UNL     1       2.632  30.638  55.987  1.00  0.00    -0.022 A 
HETATM   19  C3  UNL     1       1.423  30.917  55.343  1.00  0.00     0.012 A 
HETATM   20  C2  UNL     1       1.148  32.169  54.835  1.00  0.00     0.001 A 
HETATM   21  C1  UNL     1       2.067  33.196  54.948  1.00  0.00     0.000 A 
HETATM   22  C20 UNL     1       3.252  32.922  55.579  1.00  0.00     0.001 A 
HETATM   23  C19 UNL     1       3.529  31.667  56.089  1.00  0.00     0.012 A 
ENDBRANCH   1  18
TORSDOF 1
ENDMDL
