MODEL 1
REMARK VINA RESULT: -9.645532137      0.000      0.000
REMARK  1 active torsions:
REMARK  status: ('A' for Active; 'I' for Inactive)
REMARK    1  A    between atoms: C12_14  and  C13_15 
ROOT
HETATM    1  C1  UNL     1       1.459  27.215  56.586  1.00  0.00     0.158 C 
HETATM    2  N1  UNL     1       2.665  28.014  56.752  1.00  0.00    -0.329 N 
HETATM    3  C2  UNL     1       2.773  29.292  56.414  1.00  0.00     0.064 A 
HETATM    4  C3  UNL     1       1.849  30.132  55.826  1.00  0.00     0.044 A 
HETATM    5  C4  UNL     1       2.192  31.409  55.525  1.00  0.00    -0.024 A 
HETATM    6  C5  UNL     1       1.237  32.227  54.932  1.00  0.00     0.012 A 
HETATM    7  C6  UNL     1       1.616  33.521  54.636  1.00  0.00     0.001 A 
HETATM    8  C7  UNL     1       2.878  33.996  54.908  1.00  0.00     0.001 A 
HETATM    9  C8  UNL     1       3.782  33.138  55.496  1.00  0.00     0.012 A 
HETATM   10  C9  UNL     1       3.453  31.851  55.808  1.00  0.00    -0.024 A 
HETATM   11  C10 UNL     1       4.373  30.991  56.401  1.00  0.00     0.044 A 
HETATM   12  C11 UNL     1       4.072  29.676  56.734  1.00  0.00     0.069 A 
HETATM   13  N2  UNL     1       4.772  28.622  57.279  1.00  0.00    -0.288 N 
HETATM   14  C12 UNL     1       5.943  28.312  57.725  1.00  0.00     0.059 A 
HETATM   15  C19 UNL     1       6.149  26.995  58.129  1.00  0.00     0.084 A 
HETATM   16  S1  UNL     1       4.652  26.259  57.861  1.00  0.00    -0.063 SA
HETATM   17  C20 UNL     1       3.852  27.647  57.253  1.00  0.00     0.158 A 
ENDROOT
BRANCH  14  18
HETATM   18  C13 UNL     1       7.181  29.138  57.877  1.00  0.00    -0.008 A 
HETATM   19  C14 UNL     1       8.422  28.632  57.545  1.00  0.00     0.014 A 
HETATM   20  C15 UNL     1       9.562  29.319  57.816  1.00  0.00     0.001 A 
HETATM   21  C16 UNL     1       9.547  30.562  58.439  1.00  0.00     0.000 A 
HETATM   22  C17 UNL     1       8.306  31.052  58.764  1.00  0.00     0.001 A 
HETATM   23  C18 UNL     1       7.156  30.358  58.491  1.00  0.00     0.014 A 
ENDBRANCH  14  18
TORSDOF 1
ENDMDL
MODEL 2
REMARK VINA RESULT: -9.565054024      2.799      4.843
REMARK  1 active torsions:
REMARK  status: ('A' for Active; 'I' for Inactive)
REMARK    1  A    between atoms: C12_14  and  C13_15 
ROOT
HETATM    1  C1  UNL     1       1.073  32.718  54.695  1.00  0.00     0.158 C 
HETATM    2  N1  UNL     1       2.358  32.448  55.325  1.00  0.00    -0.329 N 
HETATM    3  C2  UNL     1       2.728  31.267  55.801  1.00  0.00     0.064 A 
HETATM    4  C3  UNL     1       2.032  30.077  55.855  1.00  0.00     0.044 A 
HETATM    5  C4  UNL     1       2.597  28.989  56.433  1.00  0.00    -0.024 A 
HETATM    6  C5  UNL     1       1.866  27.807  56.471  1.00  0.00     0.012 A 
HETATM    7  C6  UNL     1       2.467  26.717  57.067  1.00  0.00     0.001 A 
HETATM    8  C7  UNL     1       3.731  26.779  57.606  1.00  0.00     0.001 A 
HETATM    9  C8  UNL     1       4.407  27.979  57.539  1.00  0.00     0.012 A 
HETATM   10  C9  UNL     1       3.854  29.083  56.959  1.00  0.00    -0.024 A 
HETATM   11  C10 UNL     1       4.544  30.290  56.896  1.00  0.00     0.044 A 
HETATM   12  C11 UNL     1       4.013  31.434  56.312  1.00  0.00     0.069 A 
HETATM   13  N2  UNL     1       4.440  32.732  56.144  1.00  0.00    -0.288 N 
HETATM   14  C12 UNL     1       5.440  33.508  56.403  1.00  0.00     0.059 A 
HETATM   15  C19 UNL     1       5.324  34.849  56.045  1.00  0.00     0.084 A 
HETATM   16  S1  UNL     1       3.789  34.940  55.342  1.00  0.00    -0.063 SA
HETATM   17  C20 UNL     1       3.379  33.289  55.541  1.00  0.00     0.158 A 
ENDROOT
BRANCH  14  18
HETATM   18  C13 UNL     1       6.750  33.223  57.064  1.00  0.00    -0.008 A 
HETATM   19  C14 UNL     1       7.744  32.525  56.408  1.00  0.00     0.014 A 
HETATM   20  C15 UNL     1       8.877  32.135  57.049  1.00  0.00     0.001 A 
HETATM   21  C16 UNL     1       9.101  32.413  58.393  1.00  0.00     0.000 A 
HETATM   22  C17 UNL     1       8.103  33.107  59.033  1.00  0.00     0.001 A 
HETATM   23  C18 UNL     1       6.960  33.499  58.386  1.00  0.00     0.014 A 
ENDBRANCH  14  18
TORSDOF 1
ENDMDL
MODEL 3
REMARK VINA RESULT: -9.170459529      2.473      5.511
REMARK  1 active torsions:
REMARK  status: ('A' for Active; 'I' for Inactive)
REMARK    1  A    between atoms: C12_14  and  C13_15 
ROOT
HETATM    1  C1  UNL     1       8.463  28.145  57.794  1.00  0.00     0.158 C 
HETATM    2  N1  UNL     1       7.564  29.197  57.339  1.00  0.00    -0.329 N 
HETATM    3  C2  UNL     1       6.258  29.045  57.164  1.00  0.00     0.064 A 
HETATM    4  C3  UNL     1       5.469  27.924  57.321  1.00  0.00     0.044 A 
HETATM    5  C4  UNL     1       4.143  27.985  57.041  1.00  0.00    -0.024 A 
HETATM    6  C5  UNL     1       3.379  26.836  57.209  1.00  0.00     0.012 A 
HETATM    7  C6  UNL     1       2.034  26.929  56.915  1.00  0.00     0.001 A 
HETATM    8  C7  UNL     1       1.458  28.099  56.474  1.00  0.00     0.001 A 
HETATM    9  C8  UNL     1       2.268  29.205  56.326  1.00  0.00     0.012 A 
HETATM   10  C9  UNL     1       3.602  29.161  56.605  1.00  0.00    -0.024 A 
HETATM   11  C10 UNL     1       4.412  30.283  56.453  1.00  0.00     0.044 A 
HETATM   12  C11 UNL     1       5.774  30.276  56.729  1.00  0.00     0.069 A 
HETATM   13  N2  UNL     1       6.793  31.196  56.639  1.00  0.00    -0.288 N 
HETATM   14  C12 UNL     1       7.021  32.420  56.292  1.00  0.00     0.059 A 
HETATM   15  C19 UNL     1       8.339  32.866  56.337  1.00  0.00     0.084 A 
HETATM   16  S1  UNL     1       9.197  31.517  56.883  1.00  0.00    -0.063 SA
HETATM   17  C20 UNL     1       7.850  30.466  57.021  1.00  0.00     0.158 A 
ENDROOT
BRANCH  14  18
HETATM   18  C13 UNL     1       6.090  33.488  55.812  1.00  0.00    -0.008 A 
HETATM   19  C14 UNL     1       5.763  34.563  56.613  1.00  0.00     0.014 A 
HETATM   20  C15 UNL     1       4.809  35.457  56.244  1.00  0.00     0.001 A 
HETATM   21  C16 UNL     1       4.111  35.343  55.047  1.00  0.00     0.000 A 
HETATM   22  C17 UNL     1       4.446  34.267  54.260  1.00  0.00     0.001 A 
HETATM   23  C18 UNL     1       5.408  33.365  54.634  1.00  0.00     0.014 A 
ENDBRANCH  14  18
TORSDOF 1
ENDMDL
MODEL 4
REMARK VINA RESULT: -9.030939302      2.459      5.520
REMARK  1 active torsions:
REMARK  status: ('A' for Active; 'I' for Inactive)
REMARK    1  A    between atoms: C12_14  and  C13_15 
ROOT
HETATM    1  C1  UNL     1       8.477  28.342  57.774  1.00  0.00     0.158 C 
HETATM    2  N1  UNL     1       7.534  29.379  57.380  1.00  0.00    -0.329 N 
HETATM    3  C2  UNL     1       6.235  29.184  57.197  1.00  0.00     0.064 A 
HETATM    4  C3  UNL     1       5.493  28.024  57.290  1.00  0.00     0.044 A 
HETATM    5  C4  UNL     1       4.166  28.046  57.014  1.00  0.00    -0.024 A 
HETATM    6  C5  UNL     1       3.451  26.859  57.116  1.00  0.00     0.012 A 
HETATM    7  C6  UNL     1       2.101  26.913  56.828  1.00  0.00     0.001 A 
HETATM    8  C7  UNL     1       1.477  28.081  56.454  1.00  0.00     0.001 A 
HETATM    9  C8  UNL     1       2.240  29.226  56.370  1.00  0.00     0.012 A 
HETATM   10  C9  UNL     1       3.576  29.222  56.645  1.00  0.00    -0.024 A 
HETATM   11  C10 UNL     1       4.337  30.383  56.557  1.00  0.00     0.044 A 
HETATM   12  C11 UNL     1       5.700  30.416  56.832  1.00  0.00     0.069 A 
HETATM   13  N2  UNL     1       6.680  31.382  56.795  1.00  0.00    -0.288 N 
HETATM   14  C12 UNL     1       6.856  32.632  56.518  1.00  0.00     0.059 A 
HETATM   15  C19 UNL     1       8.155  33.129  56.587  1.00  0.00     0.084 A 
HETATM   16  S1  UNL     1       9.069  31.787  57.056  1.00  0.00    -0.063 SA
HETATM   17  C20 UNL     1       7.767  30.676  57.135  1.00  0.00     0.158 A 
ENDROOT
BRANCH  14  18
HETATM   18  C13 UNL     1       5.881  33.685  56.099  1.00  0.00    -0.008 A 
HETATM   19  C14 UNL     1       5.109  33.534  54.964  1.00  0.00     0.014 A 
HETATM   20  C15 UNL     1       4.331  34.544  54.496  1.00  0.00     0.001 A 
HETATM   21  C16 UNL     1       4.267  35.782  55.127  1.00  0.00     0.000 A 
HETATM   22  C17 UNL     1       5.040  35.919  56.254  1.00  0.00     0.001 A 
HETATM   23  C18 UNL     1       5.825  34.899  56.725  1.00  0.00     0.014 A 
ENDBRANCH  14  18
TORSDOF 1
ENDMDL
MODEL 5
REMARK VINA RESULT: -8.920142783      3.021      6.240
REMARK  1 active torsions:
REMARK  status: ('A' for Active; 'I' for Inactive)
REMARK    1  A    between atoms: C12_14  and  C13_15 
ROOT
HETATM    1  C1  UNL     1       7.050  31.738  59.853  1.00  0.00     0.158 C 
HETATM    2  N1  UNL     1       6.321  31.859  58.598  1.00  0.00    -0.329 N 
HETATM    3  C2  UNL     1       5.404  30.999  58.176  1.00  0.00     0.064 A 
HETATM    4  C3  UNL     1       4.956  29.829  58.755  1.00  0.00     0.044 A 
HETATM    5  C4  UNL     1       4.028  29.072  58.118  1.00  0.00    -0.024 A 
HETATM    6  C5  UNL     1       3.601  27.899  58.730  1.00  0.00     0.012 A 
HETATM    7  C6  UNL     1       2.657  27.149  58.057  1.00  0.00     0.001 A 
HETATM    8  C7  UNL     1       2.153  27.530  56.835  1.00  0.00     0.001 A 
HETATM    9  C8  UNL     1       2.616  28.702  56.278  1.00  0.00     0.012 A 
HETATM   10  C9  UNL     1       3.547  29.477  56.906  1.00  0.00    -0.024 A 
HETATM   11  C10 UNL     1       4.009  30.660  56.336  1.00  0.00     0.044 A 
HETATM   12  C11 UNL     1       4.955  31.474  56.947  1.00  0.00     0.069 A 
HETATM   13  N2  UNL     1       5.601  32.643  56.611  1.00  0.00    -0.288 N 
HETATM   14  C12 UNL     1       5.677  33.517  55.663  1.00  0.00     0.059 A 
HETATM   15  C19 UNL     1       6.604  34.546  55.810  1.00  0.00     0.084 A 
HETATM   16  S1  UNL     1       7.322  34.222  57.305  1.00  0.00    -0.063 SA
HETATM   17  C20 UNL     1       6.418  32.811  57.660  1.00  0.00     0.158 A 
ENDROOT
BRANCH  14  18
HETATM   18  C13 UNL     1       4.933  33.623  54.370  1.00  0.00    -0.008 A 
HETATM   19  C14 UNL     1       5.601  33.662  53.163  1.00  0.00     0.014 A 
HETATM   20  C15 UNL     1       4.946  33.905  51.998  1.00  0.00     0.001 A 
HETATM   21  C16 UNL     1       3.574  34.126  51.952  1.00  0.00     0.000 A 
HETATM   22  C17 UNL     1       2.922  34.085  53.161  1.00  0.00     0.001 A 
HETATM   23  C18 UNL     1       3.584  33.841  54.336  1.00  0.00     0.014 A 
ENDBRANCH  14  18
TORSDOF 1
ENDMDL
