MODEL 1
REMARK VINA RESULT: -10.013906055      0.000      0.000
REMARK  1 active torsions:
REMARK  status: ('A' for Active; 'I' for Inactive)
REMARK    1  A    between atoms: N2_18  and  C16_20 
ROOT
HETATM    1  C1  UNL     1       2.470  30.512  56.030  1.00  0.00     0.186 A 
HETATM    2  N1  UNL     1       2.200  29.283  56.318  1.00  0.00    -0.352 N 
ATOM      3  H1  UNL     1       1.255  28.922  56.180  1.00  0.00     0.166 HD
HETATM    4  C2  UNL     1       3.233  28.421  56.835  1.00  0.00     0.041 A 
HETATM    5  C3  UNL     1       2.948  27.116  57.158  1.00  0.00     0.030 A 
HETATM    6  C4  UNL     1       3.884  26.237  57.661  1.00  0.00     0.002 A 
HETATM    7  C5  UNL     1       5.173  26.669  57.856  1.00  0.00     0.001 A 
HETATM    8  C6  UNL     1       5.460  27.992  57.527  1.00  0.00     0.012 A 
HETATM    9  C7  UNL     1       4.542  28.877  57.028  1.00  0.00    -0.004 A 
HETATM   10  C8  UNL     1       4.890  30.222  56.642  1.00  0.00     0.161 A 
HETATM   11  C9  UNL     1       5.628  31.097  57.586  1.00  0.00    -0.016 A 
HETATM   12  C10 UNL     1       6.501  30.873  58.628  1.00  0.00     0.010 A 
HETATM   13  C11 UNL     1       7.233  31.948  59.154  1.00  0.00     0.001 A 
HETATM   14  C12 UNL     1       7.121  33.223  58.677  1.00  0.00     0.001 A 
HETATM   15  C13 UNL     1       6.222  33.414  57.625  1.00  0.00     0.016 A 
HETATM   16  C14 UNL     1       5.477  32.394  57.077  1.00  0.00     0.017 A 
HETATM   17  C15 UNL     1       4.309  32.386  56.181  1.00  0.00     0.120 C 
HETATM   18  N2  UNL     1       3.815  33.319  55.486  1.00  0.00    -0.342 N 
ATOM     19  H2  UNL     1       2.995  33.030  54.953  1.00  0.00     0.167 HD
HETATM   20  N3  UNL     1       3.788  31.038  56.229  1.00  0.00    -0.315 N 
ENDROOT
BRANCH  18  21
HETATM   21  C16 UNL     1       4.147  34.641  55.294  1.00  0.00     0.033 A 
HETATM   22  C17 UNL     1       4.899  35.113  54.216  1.00  0.00     0.029 A 
HETATM   23  C18 UNL     1       5.174  36.453  54.096  1.00  0.00     0.002 A 
HETATM   24  C19 UNL     1       4.711  37.351  55.038  1.00  0.00     0.000 A 
HETATM   25  C20 UNL     1       3.973  36.907  56.100  1.00  0.00     0.002 A 
HETATM   26  C21 UNL     1       3.690  35.573  56.235  1.00  0.00     0.029 A 
ENDBRANCH  18  21
TORSDOF 1
ENDMDL
MODEL 2
REMARK VINA RESULT: -10.008831629      0.944      1.037
REMARK  1 active torsions:
REMARK  status: ('A' for Active; 'I' for Inactive)
REMARK    1  A    between atoms: N2_18  and  C16_20 
ROOT
HETATM    1  C1  UNL     1       2.379  31.493  55.742  1.00  0.00     0.186 A 
HETATM    2  N1  UNL     1       1.811  30.342  55.883  1.00  0.00    -0.352 N 
ATOM      3  H1  UNL     1       0.831  30.222  55.627  1.00  0.00     0.166 HD
HETATM    4  C2  UNL     1       2.564  29.226  56.401  1.00  0.00     0.041 A 
HETATM    5  C3  UNL     1       1.961  28.003  56.567  1.00  0.00     0.030 A 
HETATM    6  C4  UNL     1       2.616  26.895  57.061  1.00  0.00     0.002 A 
HETATM    7  C5  UNL     1       3.940  26.999  57.410  1.00  0.00     0.001 A 
HETATM    8  C6  UNL     1       4.550  28.240  57.240  1.00  0.00     0.012 A 
HETATM    9  C7  UNL     1       3.913  29.349  56.752  1.00  0.00    -0.004 A 
HETATM   10  C8  UNL     1       4.593  30.602  56.534  1.00  0.00     0.161 A 
HETATM   11  C9  UNL     1       5.401  31.207  57.621  1.00  0.00    -0.016 A 
HETATM   12  C10 UNL     1       6.084  30.708  58.709  1.00  0.00     0.010 A 
HETATM   13  C11 UNL     1       6.975  31.540  59.401  1.00  0.00     0.001 A 
HETATM   14  C12 UNL     1       7.204  32.839  59.045  1.00  0.00     0.001 A 
HETATM   15  C13 UNL     1       6.490  33.313  57.941  1.00  0.00     0.016 A 
HETATM   16  C14 UNL     1       5.599  32.539  57.231  1.00  0.00     0.017 A 
HETATM   17  C15 UNL     1       4.563  32.871  56.239  1.00  0.00     0.120 C 
HETATM   18  N2  UNL     1       4.369  33.943  55.600  1.00  0.00    -0.342 N 
ATOM     19  H2  UNL     1       3.568  33.894  54.971  1.00  0.00     0.167 HD
HETATM   20  N3  UNL     1       3.752  31.681  56.108  1.00  0.00    -0.315 N 
ENDROOT
BRANCH  18  21
HETATM   21  C16 UNL     1       5.007  35.163  55.570  1.00  0.00     0.033 A 
HETATM   22  C17 UNL     1       6.170  35.422  54.840  1.00  0.00     0.029 A 
HETATM   23  C18 UNL     1       6.735  36.675  54.858  1.00  0.00     0.002 A 
HETATM   24  C19 UNL     1       6.161  37.692  55.595  1.00  0.00     0.000 A 
HETATM   25  C20 UNL     1       5.023  37.456  56.315  1.00  0.00     0.002 A 
HETATM   26  C21 UNL     1       4.447  36.212  56.309  1.00  0.00     0.029 A 
ENDBRANCH  18  21
TORSDOF 1
ENDMDL
MODEL 3
REMARK VINA RESULT: -9.950196945      0.305      1.017
REMARK  1 active torsions:
REMARK  status: ('A' for Active; 'I' for Inactive)
REMARK    1  A    between atoms: N2_18  and  C16_20 
ROOT
HETATM    1  C1  UNL     1       2.381  30.849  55.989  1.00  0.00     0.186 A 
HETATM    2  N1  UNL     1       2.072  29.619  56.237  1.00  0.00    -0.352 N 
ATOM      3  H1  UNL     1       1.116  29.295  56.094  1.00  0.00     0.166 HD
HETATM    4  C2  UNL     1       3.080  28.707  56.716  1.00  0.00     0.041 A 
HETATM    5  C3  UNL     1       2.754  27.401  56.997  1.00  0.00     0.030 A 
HETATM    6  C4  UNL     1       3.664  26.476  57.462  1.00  0.00     0.002 A 
HETATM    7  C5  UNL     1       4.967  26.858  57.662  1.00  0.00     0.001 A 
HETATM    8  C6  UNL     1       5.296  28.181  57.377  1.00  0.00     0.012 A 
HETATM    9  C7  UNL     1       4.405  29.113  56.916  1.00  0.00    -0.004 A 
HETATM   10  C8  UNL     1       4.795  30.458  56.574  1.00  0.00     0.161 A 
HETATM   11  C9  UNL     1       5.567  31.275  57.542  1.00  0.00    -0.016 A 
HETATM   12  C10 UNL     1       6.438  30.987  58.570  1.00  0.00     0.010 A 
HETATM   13  C11 UNL     1       7.207  32.018  59.128  1.00  0.00     0.001 A 
HETATM   14  C12 UNL     1       7.135  33.312  58.696  1.00  0.00     0.001 A 
HETATM   15  C13 UNL     1       6.237  33.569  57.657  1.00  0.00     0.016 A 
HETATM   16  C14 UNL     1       5.455  32.593  57.079  1.00  0.00     0.017 A 
HETATM   17  C15 UNL     1       4.282  32.655  56.192  1.00  0.00     0.120 C 
HETATM   18  N2  UNL     1       3.815  33.627  55.533  1.00  0.00    -0.342 N 
ATOM     19  H2  UNL     1       2.983  33.384  54.997  1.00  0.00     0.167 HD
HETATM   20  N3  UNL     1       3.717  31.323  56.197  1.00  0.00    -0.315 N 
ENDROOT
BRANCH  18  21
HETATM   21  C16 UNL     1       4.189  34.944  55.385  1.00  0.00     0.033 A 
HETATM   22  C17 UNL     1       3.750  35.982  56.210  1.00  0.00     0.029 A 
HETATM   23  C18 UNL     1       4.185  37.267  55.998  1.00  0.00     0.002 A 
HETATM   24  C19 UNL     1       5.060  37.551  54.968  1.00  0.00     0.000 A 
HETATM   25  C20 UNL     1       5.500  36.547  54.150  1.00  0.00     0.002 A 
HETATM   26  C21 UNL     1       5.076  35.259  54.348  1.00  0.00     0.029 A 
ENDBRANCH  18  21
TORSDOF 1
ENDMDL
MODEL 4
REMARK VINA RESULT: -9.305428147      1.920      7.273
REMARK  1 active torsions:
REMARK  status: ('A' for Active; 'I' for Inactive)
REMARK    1  A    between atoms: N2_18  and  C16_20 
ROOT
HETATM    1  C1  UNL     1       6.869  32.504  58.929  1.00  0.00     0.186 A 
HETATM    2  N1  UNL     1       7.285  33.727  58.926  1.00  0.00    -0.352 N 
ATOM      3  H1  UNL     1       7.859  34.072  59.694  1.00  0.00     0.166 HD
HETATM    4  C2  UNL     1       6.936  34.602  57.835  1.00  0.00     0.041 A 
HETATM    5  C3  UNL     1       7.362  35.909  57.833  1.00  0.00     0.030 A 
HETATM    6  C4  UNL     1       7.062  36.803  56.828  1.00  0.00     0.002 A 
HETATM    7  C5  UNL     1       6.301  36.386  55.764  1.00  0.00     0.001 A 
HETATM    8  C6  UNL     1       5.870  35.061  55.767  1.00  0.00     0.012 A 
HETATM    9  C7  UNL     1       6.158  34.161  56.758  1.00  0.00    -0.004 A 
HETATM   10  C8  UNL     1       5.745  32.781  56.698  1.00  0.00     0.161 A 
HETATM   11  C9  UNL     1       4.327  32.442  56.425  1.00  0.00    -0.016 A 
HETATM   12  C10 UNL     1       3.295  33.068  55.760  1.00  0.00     0.010 A 
HETATM   13  C11 UNL     1       2.133  32.344  55.458  1.00  0.00     0.001 A 
HETATM   14  C12 UNL     1       1.971  31.030  55.794  1.00  0.00     0.001 A 
HETATM   15  C13 UNL     1       3.034  30.429  56.473  1.00  0.00     0.016 A 
HETATM   16  C14 UNL     1       4.194  31.098  56.798  1.00  0.00     0.017 A 
HETATM   17  C15 UNL     1       5.303  30.778  57.711  1.00  0.00     0.120 C 
HETATM   18  N2  UNL     1       5.599  29.686  58.274  1.00  0.00    -0.342 N 
ATOM     19  H2  UNL     1       6.430  29.751  58.862  1.00  0.00     0.167 HD
HETATM   20  N3  UNL     1       6.051  32.006  57.864  1.00  0.00    -0.315 N 
ENDROOT
BRANCH  18  21
HETATM   21  C16 UNL     1       5.041  28.427  58.263  1.00  0.00     0.033 A 
HETATM   22  C17 UNL     1       5.515  27.366  57.489  1.00  0.00     0.029 A 
HETATM   23  C18 UNL     1       4.904  26.137  57.549  1.00  0.00     0.002 A 
HETATM   24  C19 UNL     1       3.815  25.935  58.375  1.00  0.00     0.000 A 
HETATM   25  C20 UNL     1       3.338  26.963  59.140  1.00  0.00     0.002 A 
HETATM   26  C21 UNL     1       3.936  28.195  59.091  1.00  0.00     0.029 A 
ENDBRANCH  18  21
TORSDOF 1
ENDMDL
MODEL 5
REMARK VINA RESULT: -9.295137889      1.557      1.976
REMARK  1 active torsions:
REMARK  status: ('A' for Active; 'I' for Inactive)
REMARK    1  A    between atoms: N2_18  and  C16_20 
ROOT
HETATM    1  C1  UNL     1       2.779  32.614  55.544  1.00  0.00     0.186 A 
HETATM    2  N1  UNL     1       2.032  31.560  55.568  1.00  0.00    -0.352 N 
ATOM      3  H1  UNL     1       1.069  31.609  55.236  1.00  0.00     0.166 HD
HETATM    4  C2  UNL     1       2.562  30.314  56.065  1.00  0.00     0.041 A 
HETATM    5  C3  UNL     1       1.768  29.193  56.107  1.00  0.00     0.030 A 
HETATM    6  C4  UNL     1       2.205  27.972  56.573  1.00  0.00     0.002 A 
HETATM    7  C5  UNL     1       3.497  27.848  57.022  1.00  0.00     0.001 A 
HETATM    8  C6  UNL     1       4.300  28.985  56.977  1.00  0.00     0.012 A 
HETATM    9  C7  UNL     1       3.881  30.205  56.519  1.00  0.00    -0.004 A 
HETATM   10  C8  UNL     1       4.759  31.346  56.432  1.00  0.00     0.161 A 
HETATM   11  C9  UNL     1       5.560  31.757  57.611  1.00  0.00    -0.016 A 
HETATM   12  C10 UNL     1       6.069  31.100  58.710  1.00  0.00     0.010 A 
HETATM   13  C11 UNL     1       7.018  31.743  59.517  1.00  0.00     0.001 A 
HETATM   14  C12 UNL     1       7.470  33.007  59.263  1.00  0.00     0.001 A 
HETATM   15  C13 UNL     1       6.928  33.646  58.146  1.00  0.00     0.016 A 
HETATM   16  C14 UNL     1       5.990  33.060  57.325  1.00  0.00     0.017 A 
HETATM   17  C15 UNL     1       5.100  33.603  56.285  1.00  0.00     0.120 C 
HETATM   18  N2  UNL     1       5.123  34.725  55.705  1.00  0.00    -0.342 N 
ATOM     19  H2  UNL     1       4.378  34.837  55.018  1.00  0.00     0.167 HD
HETATM   20  N3  UNL     1       4.130  32.564  56.018  1.00  0.00    -0.315 N 
ENDROOT
BRANCH  18  21
HETATM   21  C16 UNL     1       5.940  35.830  55.800  1.00  0.00     0.033 A 
HETATM   22  C17 UNL     1       7.070  36.041  55.006  1.00  0.00     0.029 A 
HETATM   23  C18 UNL     1       7.823  37.180  55.160  1.00  0.00     0.002 A 
HETATM   24  C19 UNL     1       7.474  38.129  56.101  1.00  0.00     0.000 A 
HETATM   25  C20 UNL     1       6.371  37.939  56.887  1.00  0.00     0.002 A 
HETATM   26  C21 UNL     1       5.610  36.808  56.746  1.00  0.00     0.029 A 
ENDBRANCH  18  21
TORSDOF 1
ENDMDL
