MODEL 1
REMARK VINA RESULT: -4.213276911      0.000      0.000
REMARK  10 active torsions:
REMARK  status: ('A' for Active; 'I' for Inactive)
REMARK    1  A    between atoms: C1_4  and  C2_5 
REMARK    2  A    between atoms: C2_5  and  C3_6 
REMARK    3  A    between atoms: C3_6  and  N2_7 
REMARK    4  A    between atoms: C3_6  and  O1_11 
REMARK    5  A    between atoms: O1_11  and  C4_12 
REMARK    6  A    between atoms: C4_12  and  O2_13 
REMARK    7  A    between atoms: C4_12  and  C5_15 
REMARK    8  A    between atoms: C5_15  and  N3_16 
REMARK    9  A    between atoms: C5_15  and  C6_20 
REMARK   10  A    between atoms: C6_20  and  N4_21 
ROOT
HETATM    1  C4  UNL     1      59.377  31.453  47.942  1.00  0.00     0.291 C 
ENDROOT
BRANCH   1   2
HETATM    2  O1  UNL     1      58.766  32.617  48.386  1.00  0.00    -0.327 OA
BRANCH   2   3
HETATM    3  C3  UNL     1      59.411  33.755  47.888  1.00  0.00     0.325 C 
BRANCH   3   4
HETATM    4  C2  UNL     1      59.042  33.949  46.431  1.00  0.00     0.105 C 
BRANCH   4   5
HETATM    5  C1  UNL     1      60.150  33.571  45.536  1.00  0.00     0.057 C 
HETATM    6  N1  UNL     1      59.957  33.181  44.337  1.00  0.00    -0.411 N 
ATOM      7  H12 UNL     1      58.995  33.136  44.001  1.00  0.00     0.155 HD
ATOM      8  H11 UNL     1      60.724  32.919  43.718  1.00  0.00     0.155 HD
ENDBRANCH   4   5
ENDBRANCH   3   4
BRANCH   3   9
HETATM    9  N2  UNL     1      60.837  33.574  47.966  1.00  0.00    -0.052 N 
ATOM     10  H23 UNL     1      61.276  33.494  47.049  1.00  0.00     0.277 HD
ATOM     11  H22 UNL     1      61.324  34.415  48.278  1.00  0.00     0.277 HD
ATOM     12  H21 UNL     1      61.022  32.768  48.563  1.00  0.00     0.277 HD
ENDBRANCH   3   9
ENDBRANCH   2   3
ENDBRANCH   1   2
BRANCH   1  13
HETATM   13  O2  UNL     1      60.078  30.853  48.990  1.00  0.00    -0.369 OA
ATOM     14  H2  UNL     1      60.682  30.205  48.647  1.00  0.00     0.212 HD
ENDBRANCH   1  13
BRANCH   1  15
HETATM   15  C5  UNL     1      58.343  30.474  47.368  1.00  0.00     0.266 C 
BRANCH  15  16
HETATM   16  N3  UNL     1      58.681  29.168  47.852  1.00  0.00    -0.069 N 
ATOM     17  H33 UNL     1      59.519  29.162  48.433  1.00  0.00     0.275 HD
ATOM     18  H32 UNL     1      58.030  28.822  48.556  1.00  0.00     0.275 HD
ATOM     19  H31 UNL     1      58.753  28.555  47.040  1.00  0.00     0.275 HD
ENDBRANCH  15  16
BRANCH  15  20
HETATM   20  C6  UNL     1      57.001  30.957  47.830  1.00  0.00     0.310 C 
BRANCH  20  21
HETATM   21  N4  UNL     1      56.486  30.257  48.972  1.00  0.00     0.090 N 
HETATM   22  C7  UNL     1      56.729  30.992  50.169  1.00  0.00     0.272 C 
HETATM   23  C8  UNL     1      55.527  31.143  51.066  1.00  0.00     0.030 C 
HETATM   24  C9  UNL     1      54.984  29.744  51.327  1.00  0.00     0.003 C 
HETATM   25  C10 UNL     1      54.544  29.160  50.003  1.00  0.00     0.030 C 
HETATM   26  C11 UNL     1      55.100  29.891  48.830  1.00  0.00     0.272 C 
ENDBRANCH  20  21
ENDBRANCH  15  20
ENDBRANCH   1  15
TORSDOF 10
ENDMDL
MODEL 2
REMARK VINA RESULT: -3.954694272      1.156      1.698
REMARK  10 active torsions:
REMARK  status: ('A' for Active; 'I' for Inactive)
REMARK    1  A    between atoms: C1_4  and  C2_5 
REMARK    2  A    between atoms: C2_5  and  C3_6 
REMARK    3  A    between atoms: C3_6  and  N2_7 
REMARK    4  A    between atoms: C3_6  and  O1_11 
REMARK    5  A    between atoms: O1_11  and  C4_12 
REMARK    6  A    between atoms: C4_12  and  O2_13 
REMARK    7  A    between atoms: C4_12  and  C5_15 
REMARK    8  A    between atoms: C5_15  and  N3_16 
REMARK    9  A    between atoms: C5_15  and  C6_20 
REMARK   10  A    between atoms: C6_20  and  N4_21 
ROOT
HETATM    1  C4  UNL     1      59.655  30.531  47.413  1.00  0.00     0.291 C 
ENDROOT
BRANCH   1   2
HETATM    2  O1  UNL     1      59.322  31.550  46.532  1.00  0.00    -0.327 OA
BRANCH   2   3
HETATM    3  C3  UNL     1      60.200  32.634  46.647  1.00  0.00     0.325 C 
BRANCH   3   4
HETATM    4  C2  UNL     1      59.416  33.929  46.585  1.00  0.00     0.105 C 
BRANCH   4   5
HETATM    5  C1  UNL     1      58.264  33.909  47.504  1.00  0.00     0.057 C 
HETATM    6  N1  UNL     1      58.371  33.560  48.726  1.00  0.00    -0.411 N 
ATOM      7  H12 UNL     1      59.294  33.288  49.064  1.00  0.00     0.155 HD
ATOM      8  H11 UNL     1      57.574  33.547  49.362  1.00  0.00     0.155 HD
ENDBRANCH   4   5
ENDBRANCH   3   4
BRANCH   3   9
HETATM    9  N2  UNL     1      61.128  32.621  45.547  1.00  0.00    -0.052 N 
ATOM     10  H23 UNL     1      61.104  33.482  45.001  1.00  0.00     0.277 HD
ATOM     11  H22 UNL     1      62.100  32.678  45.851  1.00  0.00     0.277 HD
ATOM     12  H21 UNL     1      60.940  31.792  44.984  1.00  0.00     0.277 HD
ENDBRANCH   3   9
ENDBRANCH   2   3
ENDBRANCH   1   2
BRANCH   1  13
HETATM   13  O2  UNL     1      59.981  31.068  48.661  1.00  0.00    -0.369 OA
ATOM     14  H2  UNL     1      59.686  30.486  49.351  1.00  0.00     0.212 HD
ENDBRANCH   1  13
BRANCH   1  15
HETATM   15  C5  UNL     1      58.503  29.526  47.553  1.00  0.00     0.266 C 
BRANCH  15  16
HETATM   16  N3  UNL     1      58.857  28.620  48.605  1.00  0.00    -0.069 N 
ATOM     17  H33 UNL     1      58.858  27.644  48.308  1.00  0.00     0.275 HD
ATOM     18  H32 UNL     1      59.840  28.678  48.869  1.00  0.00     0.275 HD
ATOM     19  H31 UNL     1      58.222  28.799  49.383  1.00  0.00     0.275 HD
ENDBRANCH  15  16
BRANCH  15  20
HETATM   20  C6  UNL     1      57.272  30.331  47.842  1.00  0.00     0.310 C 
BRANCH  20  21
HETATM   21  N4  UNL     1      56.585  29.945  49.041  1.00  0.00     0.090 N 
HETATM   22  C7  UNL     1      56.929  30.807  50.123  1.00  0.00     0.272 C 
HETATM   23  C8  UNL     1      55.751  31.335  50.901  1.00  0.00     0.030 C 
HETATM   24  C9  UNL     1      54.926  30.131  51.339  1.00  0.00     0.003 C 
HETATM   25  C10 UNL     1      54.425  29.431  50.095  1.00  0.00     0.030 C 
HETATM   26  C11 UNL     1      55.160  29.835  48.863  1.00  0.00     0.272 C 
ENDBRANCH  20  21
ENDBRANCH  15  20
ENDBRANCH   1  15
TORSDOF 10
ENDMDL
MODEL 3
REMARK VINA RESULT: -3.898658567      1.112      1.310
REMARK  10 active torsions:
REMARK  status: ('A' for Active; 'I' for Inactive)
REMARK    1  A    between atoms: C1_4  and  C2_5 
REMARK    2  A    between atoms: C2_5  and  C3_6 
REMARK    3  A    between atoms: C3_6  and  N2_7 
REMARK    4  A    between atoms: C3_6  and  O1_11 
REMARK    5  A    between atoms: O1_11  and  C4_12 
REMARK    6  A    between atoms: C4_12  and  O2_13 
REMARK    7  A    between atoms: C4_12  and  C5_15 
REMARK    8  A    between atoms: C5_15  and  N3_16 
REMARK    9  A    between atoms: C5_15  and  C6_20 
REMARK   10  A    between atoms: C6_20  and  N4_21 
ROOT
HETATM    1  C4  UNL     1      59.031  31.614  48.253  1.00  0.00     0.291 C 
ENDROOT
BRANCH   1   2
HETATM    2  O1  UNL     1      58.578  32.420  47.220  1.00  0.00    -0.327 OA
BRANCH   2   3
HETATM    3  C3  UNL     1      59.118  33.710  47.303  1.00  0.00     0.325 C 
BRANCH   3   4
HETATM    4  C2  UNL     1      59.482  34.196  45.915  1.00  0.00     0.105 C 
BRANCH   4   5
HETATM    5  C1  UNL     1      60.128  33.135  45.122  1.00  0.00     0.057 C 
HETATM    6  N1  UNL     1      61.174  32.524  45.521  1.00  0.00    -0.411 N 
ATOM      7  H12 UNL     1      61.565  32.791  46.424  1.00  0.00     0.155 HD
ATOM      8  H11 UNL     1      61.620  31.789  44.972  1.00  0.00     0.155 HD
ENDBRANCH   4   5
ENDBRANCH   3   4
BRANCH   3   9
HETATM    9  N2  UNL     1      60.319  33.680  48.095  1.00  0.00    -0.052 N 
ATOM     10  H23 UNL     1      61.157  33.522  47.535  1.00  0.00     0.277 HD
ATOM     11  H22 UNL     1      60.571  34.597  48.463  1.00  0.00     0.277 HD
ATOM     12  H21 UNL     1      60.197  32.981  48.828  1.00  0.00     0.277 HD
ENDBRANCH   3   9
ENDBRANCH   2   3
ENDBRANCH   1   2
BRANCH   1  13
HETATM   13  O2  UNL     1      58.501  32.054  49.469  1.00  0.00    -0.369 OA
ATOM     14  H2  UNL     1      58.992  32.803  49.784  1.00  0.00     0.212 HD
ENDBRANCH   1  13
BRANCH   1  15
HETATM   15  C5  UNL     1      58.654  30.146  48.011  1.00  0.00     0.266 C 
BRANCH  15  16
HETATM   16  N3  UNL     1      59.823  29.484  47.513  1.00  0.00    -0.069 N 
ATOM     17  H33 UNL     1      59.935  29.577  46.503  1.00  0.00     0.275 HD
ATOM     18  H32 UNL     1      60.690  29.947  47.784  1.00  0.00     0.275 HD
ATOM     19  H31 UNL     1      59.775  28.513  47.822  1.00  0.00     0.275 HD
ENDBRANCH  15  16
BRANCH  15  20
HETATM   20  C6  UNL     1      58.175  29.610  49.327  1.00  0.00     0.310 C 
BRANCH  20  21
HETATM   21  N4  UNL     1      56.752  29.453  49.415  1.00  0.00     0.090 N 
HETATM   22  C7  UNL     1      56.285  29.782  50.721  1.00  0.00     0.272 C 
HETATM   23  C8  UNL     1      55.104  30.718  50.747  1.00  0.00     0.030 C 
HETATM   24  C9  UNL     1      54.023  30.101  49.867  1.00  0.00     0.003 C 
HETATM   25  C10 UNL     1      54.562  30.020  48.456  1.00  0.00     0.030 C 
HETATM   26  C11 UNL     1      56.042  30.170  48.387  1.00  0.00     0.272 C 
ENDBRANCH  20  21
ENDBRANCH  15  20
ENDBRANCH   1  15
TORSDOF 10
ENDMDL
MODEL 4
REMARK VINA RESULT: -3.776086070      1.854      5.818
REMARK  10 active torsions:
REMARK  status: ('A' for Active; 'I' for Inactive)
REMARK    1  A    between atoms: C1_4  and  C2_5 
REMARK    2  A    between atoms: C2_5  and  C3_6 
REMARK    3  A    between atoms: C3_6  and  N2_7 
REMARK    4  A    between atoms: C3_6  and  O1_11 
REMARK    5  A    between atoms: O1_11  and  C4_12 
REMARK    6  A    between atoms: C4_12  and  O2_13 
REMARK    7  A    between atoms: C4_12  and  C5_15 
REMARK    8  A    between atoms: C5_15  and  N3_16 
REMARK    9  A    between atoms: C5_15  and  C6_20 
REMARK   10  A    between atoms: C6_20  and  N4_21 
ROOT
HETATM    1  C4  UNL     1      57.233  29.865  48.284  1.00  0.00     0.291 C 
ENDROOT
BRANCH   1   2
HETATM    2  O1  UNL     1      56.414  30.874  48.770  1.00  0.00    -0.327 OA
BRANCH   2   3
HETATM    3  C3  UNL     1      55.154  30.380  49.131  1.00  0.00     0.325 C 
BRANCH   3   4
HETATM    4  C2  UNL     1      55.303  29.411  50.286  1.00  0.00     0.105 C 
BRANCH   4   5
HETATM    5  C1  UNL     1      55.507  30.117  51.563  1.00  0.00     0.057 C 
HETATM    6  N1  UNL     1      55.576  31.389  51.636  1.00  0.00    -0.411 N 
ATOM      7  H12 UNL     1      55.485  31.921  50.771  1.00  0.00     0.155 HD
ATOM      8  H11 UNL     1      55.718  31.877  52.521  1.00  0.00     0.155 HD
ENDBRANCH   4   5
ENDBRANCH   3   4
BRANCH   3   9
HETATM    9  N2  UNL     1      54.579  29.667  48.020  1.00  0.00    -0.052 N 
ATOM     10  H23 UNL     1      53.763  29.115  48.286  1.00  0.00     0.277 HD
ATOM     11  H22 UNL     1      54.117  30.283  47.352  1.00  0.00     0.277 HD
ATOM     12  H21 UNL     1      55.314  29.103  47.592  1.00  0.00     0.277 HD
ENDBRANCH   3   9
ENDBRANCH   2   3
ENDBRANCH   1   2
BRANCH   1  13
HETATM   13  O2  UNL     1      57.141  29.806  46.891  1.00  0.00    -0.369 OA
ATOM     14  H2  UNL     1      56.950  30.668  46.542  1.00  0.00     0.212 HD
ENDBRANCH   1  13
BRANCH   1  15
HETATM   15  C5  UNL     1      58.691  30.089  48.710  1.00  0.00     0.266 C 
BRANCH  15  16
HETATM   16  N3  UNL     1      59.516  29.341  47.807  1.00  0.00    -0.069 N 
ATOM     17  H33 UNL     1      59.224  28.368  47.711  1.00  0.00     0.275 HD
ATOM     18  H32 UNL     1      59.389  29.613  46.833  1.00  0.00     0.275 HD
ATOM     19  H31 UNL     1      60.479  29.440  48.128  1.00  0.00     0.275 HD
ENDBRANCH  15  16
BRANCH  15  20
HETATM   20  C6  UNL     1      58.926  31.568  48.654  1.00  0.00     0.310 C 
BRANCH  20  21
HETATM   21  N4  UNL     1      59.088  32.087  47.327  1.00  0.00     0.090 N 
HETATM   22  C7  UNL     1      58.237  33.211  47.114  1.00  0.00     0.272 C 
HETATM   23  C8  UNL     1      58.922  34.410  46.509  1.00  0.00     0.030 C 
HETATM   24  C9  UNL     1      59.611  33.936  45.234  1.00  0.00     0.003 C 
HETATM   25  C10 UNL     1      60.654  32.912  45.622  1.00  0.00     0.030 C 
HETATM   26  C11 UNL     1      60.461  32.374  46.997  1.00  0.00     0.272 C 
ENDBRANCH  20  21
ENDBRANCH  15  20
ENDBRANCH   1  15
TORSDOF 10
ENDMDL
MODEL 5
REMARK VINA RESULT: -3.561030624      1.099      1.548
REMARK  10 active torsions:
REMARK  status: ('A' for Active; 'I' for Inactive)
REMARK    1  A    between atoms: C1_4  and  C2_5 
REMARK    2  A    between atoms: C2_5  and  C3_6 
REMARK    3  A    between atoms: C3_6  and  N2_7 
REMARK    4  A    between atoms: C3_6  and  O1_11 
REMARK    5  A    between atoms: O1_11  and  C4_12 
REMARK    6  A    between atoms: C4_12  and  O2_13 
REMARK    7  A    between atoms: C4_12  and  C5_15 
REMARK    8  A    between atoms: C5_15  and  N3_16 
REMARK    9  A    between atoms: C5_15  and  C6_20 
REMARK   10  A    between atoms: C6_20  and  N4_21 
ROOT
HETATM    1  C4  UNL     1      59.181  31.510  48.126  1.00  0.00     0.291 C 
ENDROOT
BRANCH   1   2
HETATM    2  O1  UNL     1      58.537  32.402  47.282  1.00  0.00    -0.327 OA
BRANCH   2   3
HETATM    3  C3  UNL     1      59.116  33.676  47.345  1.00  0.00     0.325 C 
BRANCH   3   4
HETATM    4  C2  UNL     1      59.409  34.168  45.942  1.00  0.00     0.105 C 
BRANCH   4   5
HETATM    5  C1  UNL     1      60.081  33.135  45.135  1.00  0.00     0.057 C 
HETATM    6  N1  UNL     1      61.184  32.601  45.490  1.00  0.00    -0.411 N 
ATOM      7  H12 UNL     1      61.601  32.911  46.368  1.00  0.00     0.155 HD
ATOM      8  H11 UNL     1      61.649  31.886  44.931  1.00  0.00     0.155 HD
ENDBRANCH   4   5
ENDBRANCH   3   4
BRANCH   3   9
HETATM    9  N2  UNL     1      60.362  33.604  48.062  1.00  0.00    -0.052 N 
ATOM     10  H23 UNL     1      60.854  32.723  47.909  1.00  0.00     0.277 HD
ATOM     11  H22 UNL     1      61.073  34.227  47.681  1.00  0.00     0.277 HD
ATOM     12  H21 UNL     1      60.170  33.781  49.048  1.00  0.00     0.277 HD
ENDBRANCH   3   9
ENDBRANCH   2   3
ENDBRANCH   1   2
BRANCH   1  13
HETATM   13  O2  UNL     1      58.917  31.838  49.457  1.00  0.00    -0.369 OA
ATOM     14  H2  UNL     1      59.703  31.734  49.979  1.00  0.00     0.212 HD
ENDBRANCH   1  13
BRANCH   1  15
HETATM   15  C5  UNL     1      58.743  30.067  47.838  1.00  0.00     0.266 C 
BRANCH  15  16
HETATM   16  N3  UNL     1      59.918  29.331  47.476  1.00  0.00    -0.069 N 
ATOM     17  H33 UNL     1      60.585  29.883  46.935  1.00  0.00     0.275 HD
ATOM     18  H32 UNL     1      60.526  29.133  48.271  1.00  0.00     0.275 HD
ATOM     19  H31 UNL     1      59.609  28.489  46.991  1.00  0.00     0.275 HD
ENDBRANCH  15  16
BRANCH  15  20
HETATM   20  C6  UNL     1      58.083  29.568  49.088  1.00  0.00     0.310 C 
BRANCH  20  21
HETATM   21  N4  UNL     1      56.841  30.217  49.396  1.00  0.00     0.090 N 
HETATM   22  C7  UNL     1      55.944  30.145  48.290  1.00  0.00     0.272 C 
HETATM   23  C8  UNL     1      54.553  29.684  48.641  1.00  0.00     0.030 C 
HETATM   24  C9  UNL     1      54.048  30.591  49.758  1.00  0.00     0.003 C 
HETATM   25  C10 UNL     1      54.951  30.399  50.956  1.00  0.00     0.030 C 
HETATM   26  C11 UNL     1      56.241  29.738  50.615  1.00  0.00     0.272 C 
ENDBRANCH  20  21
ENDBRANCH  15  20
ENDBRANCH   1  15
TORSDOF 10
ENDMDL
