MODEL 1
REMARK VINA RESULT: -5.413510850      0.000      0.000
REMARK  9 active torsions:
REMARK  status: ('A' for Active; 'I' for Inactive)
REMARK    1  A    between atoms: C2_2  and  C3_3 
REMARK    2  A    between atoms: C3_3  and  C4_4 
REMARK    3  A    between atoms: C4_4  and  N1_5 
REMARK    4  A    between atoms: N1_5  and  C5_8 
REMARK    5  A    between atoms: C5_8  and  N2_10 
REMARK    6  A    between atoms: N2_10  and  N3_11 
REMARK    7  A    between atoms: N3_11  and  C7_12 
REMARK    8  A    between atoms: C7_12  and  O1_13 
REMARK    9  A    between atoms: C7_12  and  C8_15 
ROOT
HETATM    1  N3  UNL     1      58.983  32.685  48.526  1.00  0.00    -0.108 NA
ENDROOT
BRANCH   1   2
HETATM    2  N2  UNL     1      59.553  31.433  48.265  1.00  0.00    -0.112 NA
BRANCH   2   3
HETATM    3  C5  UNL     1      58.554  30.504  47.745  1.00  0.00     0.289 C 
HETATM    4  C6  UNL     1      58.941  29.132  48.252  1.00  0.00     0.060 C 
BRANCH   3   5
HETATM    5  N1  UNL     1      57.224  30.878  48.096  1.00  0.00    -0.056 N 
ATOM      6  H12 UNL     1      56.635  31.028  47.278  1.00  0.00     0.279 HD
ATOM      7  H11 UNL     1      57.176  31.821  48.483  1.00  0.00     0.279 HD
BRANCH   5   8
HETATM    8  C4  UNL     1      56.671  29.878  49.004  1.00  0.00     0.238 C 
BRANCH   8   9
HETATM    9  C3  UNL     1      55.182  29.894  49.065  1.00  0.00     0.054 C 
BRANCH   9  10
HETATM   10  C2  UNL     1      54.742  29.985  50.481  1.00  0.00    -0.035 C 
HETATM   11  C1  UNL     1      55.492  30.594  51.362  1.00  0.00     0.007 C 
ENDBRANCH   9  10
ENDBRANCH   8   9
ENDBRANCH   5   8
ENDBRANCH   3   5
ENDBRANCH   2   3
ENDBRANCH   1   2
BRANCH   1  12
HETATM   12  C7  UNL     1      59.770  33.687  47.832  1.00  0.00     0.280 C 
BRANCH  12  13
HETATM   13  O1  UNL     1      61.007  33.853  48.522  1.00  0.00    -0.373 OA
ATOM     14  H1  UNL     1      61.646  34.209  47.917  1.00  0.00     0.212 HD
ENDBRANCH  12  13
BRANCH  12  15
HETATM   15  C8  UNL     1      60.057  33.237  46.438  1.00  0.00     0.097 A 
HETATM   16  C9  UNL     1      59.285  33.496  45.310  1.00  0.00     0.150 A 
HETATM   17  N4  UNL     1      59.890  32.917  44.256  1.00  0.00    -0.247 N 
HETATM   18  C10 UNL     1      59.420  32.940  42.867  1.00  0.00     0.187 C 
HETATM   19  O2  UNL     1      60.955  32.349  44.717  1.00  0.00    -0.155 OA
HETATM   20  N5  UNL     1      61.085  32.513  45.980  1.00  0.00    -0.240 N 
ATOM     21  H5  UNL     1      61.851  32.149  46.546  1.00  0.00     0.196 HD
ENDBRANCH  12  15
ENDBRANCH   1  12
TORSDOF 9
ENDMDL
MODEL 2
REMARK VINA RESULT: -4.812566911      1.095      1.334
REMARK  9 active torsions:
REMARK  status: ('A' for Active; 'I' for Inactive)
REMARK    1  A    between atoms: C2_2  and  C3_3 
REMARK    2  A    between atoms: C3_3  and  C4_4 
REMARK    3  A    between atoms: C4_4  and  N1_5 
REMARK    4  A    between atoms: N1_5  and  C5_8 
REMARK    5  A    between atoms: C5_8  and  N2_10 
REMARK    6  A    between atoms: N2_10  and  N3_11 
REMARK    7  A    between atoms: N3_11  and  C7_12 
REMARK    8  A    between atoms: C7_12  and  O1_13 
REMARK    9  A    between atoms: C7_12  and  C8_15 
ROOT
HETATM    1  N3  UNL     1      58.072  31.904  49.091  1.00  0.00    -0.108 NA
ENDROOT
BRANCH   1   2
HETATM    2  N2  UNL     1      57.395  31.367  47.991  1.00  0.00    -0.112 NA
BRANCH   2   3
HETATM    3  C5  UNL     1      57.372  29.909  48.053  1.00  0.00     0.289 C 
HETATM    4  C6  UNL     1      58.814  29.461  48.149  1.00  0.00     0.060 C 
BRANCH   3   5
HETATM    5  N1  UNL     1      56.560  29.420  49.118  1.00  0.00    -0.056 N 
ATOM      6  H12 UNL     1      56.893  29.729  50.032  1.00  0.00     0.279 HD
ATOM      7  H11 UNL     1      56.668  28.416  49.259  1.00  0.00     0.279 HD
BRANCH   5   8
HETATM    8  C4  UNL     1      55.172  29.801  48.874  1.00  0.00     0.238 C 
BRANCH   8   9
HETATM    9  C3  UNL     1      54.433  30.167  50.115  1.00  0.00     0.054 C 
BRANCH   9  10
HETATM   10  C2  UNL     1      55.364  30.147  51.273  1.00  0.00    -0.035 C 
HETATM   11  C1  UNL     1      55.694  31.263  51.867  1.00  0.00     0.007 C 
ENDBRANCH   9  10
ENDBRANCH   8   9
ENDBRANCH   5   8
ENDBRANCH   3   5
ENDBRANCH   2   3
ENDBRANCH   1   2
BRANCH   1  12
HETATM   12  C7  UNL     1      58.707  33.138  48.667  1.00  0.00     0.280 C 
BRANCH  12  13
HETATM   13  O1  UNL     1      59.676  33.511  49.644  1.00  0.00    -0.373 OA
ATOM     14  H1  UNL     1      60.292  32.795  49.747  1.00  0.00     0.212 HD
ENDBRANCH  12  13
BRANCH  12  15
HETATM   15  C8  UNL     1      59.399  32.934  47.361  1.00  0.00     0.097 A 
HETATM   16  C9  UNL     1      58.990  33.422  46.123  1.00  0.00     0.150 A 
HETATM   17  N4  UNL     1      59.888  33.018  45.205  1.00  0.00    -0.247 N 
HETATM   18  C10 UNL     1      59.849  33.307  43.768  1.00  0.00     0.187 C 
HETATM   19  O2  UNL     1      60.779  32.335  45.846  1.00  0.00    -0.155 OA
HETATM   20  N5  UNL     1      60.527  32.264  47.099  1.00  0.00    -0.240 N 
ATOM     21  H5  UNL     1      61.097  31.774  47.788  1.00  0.00     0.196 HD
ENDBRANCH  12  15
ENDBRANCH   1  12
TORSDOF 9
ENDMDL
MODEL 3
REMARK VINA RESULT: -4.576052656      1.552      1.961
REMARK  9 active torsions:
REMARK  status: ('A' for Active; 'I' for Inactive)
REMARK    1  A    between atoms: C2_2  and  C3_3 
REMARK    2  A    between atoms: C3_3  and  C4_4 
REMARK    3  A    between atoms: C4_4  and  N1_5 
REMARK    4  A    between atoms: N1_5  and  C5_8 
REMARK    5  A    between atoms: C5_8  and  N2_10 
REMARK    6  A    between atoms: N2_10  and  N3_11 
REMARK    7  A    between atoms: N3_11  and  C7_12 
REMARK    8  A    between atoms: C7_12  and  O1_13 
REMARK    9  A    between atoms: C7_12  and  C8_15 
ROOT
HETATM    1  N3  UNL     1      57.987  31.815  49.339  1.00  0.00    -0.108 NA
ENDROOT
BRANCH   1   2
HETATM    2  N2  UNL     1      57.310  31.467  48.164  1.00  0.00    -0.112 NA
BRANCH   2   3
HETATM    3  C5  UNL     1      57.291  30.019  47.981  1.00  0.00     0.289 C 
HETATM    4  C6  UNL     1      58.733  29.563  48.022  1.00  0.00     0.060 C 
BRANCH   3   5
HETATM    5  N1  UNL     1      56.467  29.358  48.939  1.00  0.00    -0.056 N 
ATOM      6  H12 UNL     1      56.793  29.501  49.895  1.00  0.00     0.279 HD
ATOM      7  H11 UNL     1      56.567  28.344  48.903  1.00  0.00     0.279 HD
BRANCH   5   8
HETATM    8  C4  UNL     1      55.083  29.786  48.754  1.00  0.00     0.238 C 
BRANCH   8   9
HETATM    9  C3  UNL     1      54.400  30.144  50.028  1.00  0.00     0.054 C 
BRANCH   9  10
HETATM   10  C2  UNL     1      55.379  30.106  51.146  1.00  0.00    -0.035 C 
HETATM   11  C1  UNL     1      55.609  31.181  51.853  1.00  0.00     0.007 C 
ENDBRANCH   9  10
ENDBRANCH   8   9
ENDBRANCH   5   8
ENDBRANCH   3   5
ENDBRANCH   2   3
ENDBRANCH   1   2
BRANCH   1  12
HETATM   12  C7  UNL     1      58.443  33.186  49.203  1.00  0.00     0.280 C 
BRANCH  12  13
HETATM   13  O1  UNL     1      59.534  33.393  50.095  1.00  0.00    -0.373 OA
ATOM     14  H1  UNL     1      60.262  32.849  49.816  1.00  0.00     0.212 HD
ENDBRANCH  12  13
BRANCH  12  15
HETATM   15  C8  UNL     1      58.913  33.432  47.808  1.00  0.00     0.097 A 
HETATM   16  C9  UNL     1      60.105  32.982  47.246  1.00  0.00     0.150 A 
HETATM   17  N4  UNL     1      60.147  33.416  45.972  1.00  0.00    -0.247 N 
HETATM   18  C10 UNL     1      61.225  33.171  45.009  1.00  0.00     0.187 C 
HETATM   19  O2  UNL     1      59.055  34.080  45.778  1.00  0.00    -0.155 OA
HETATM   20  N5  UNL     1      58.314  34.111  46.822  1.00  0.00    -0.240 N 
ATOM     21  H5  UNL     1      57.411  34.580  46.891  1.00  0.00     0.196 HD
ENDBRANCH  12  15
ENDBRANCH   1  12
TORSDOF 9
ENDMDL
MODEL 4
REMARK VINA RESULT: -4.125654779      1.641      2.118
REMARK  9 active torsions:
REMARK  status: ('A' for Active; 'I' for Inactive)
REMARK    1  A    between atoms: C2_2  and  C3_3 
REMARK    2  A    between atoms: C3_3  and  C4_4 
REMARK    3  A    between atoms: C4_4  and  N1_5 
REMARK    4  A    between atoms: N1_5  and  C5_8 
REMARK    5  A    between atoms: C5_8  and  N2_10 
REMARK    6  A    between atoms: N2_10  and  N3_11 
REMARK    7  A    between atoms: N3_11  and  C7_12 
REMARK    8  A    between atoms: C7_12  and  O1_13 
REMARK    9  A    between atoms: C7_12  and  C8_15 
ROOT
HETATM    1  N3  UNL     1      57.823  31.504  49.316  1.00  0.00    -0.108 NA
ENDROOT
BRANCH   1   2
HETATM    2  N2  UNL     1      57.129  31.444  48.103  1.00  0.00    -0.112 NA
BRANCH   2   3
HETATM    3  C5  UNL     1      56.586  30.107  47.877  1.00  0.00     0.289 C 
HETATM    4  C6  UNL     1      57.344  29.176  48.798  1.00  0.00     0.060 C 
BRANCH   3   5
HETATM    5  N1  UNL     1      55.174  30.053  48.063  1.00  0.00    -0.056 N 
ATOM      6  H12 UNL     1      54.692  29.651  47.259  1.00  0.00     0.279 HD
ATOM      7  H11 UNL     1      54.744  30.978  48.040  1.00  0.00     0.279 HD
BRANCH   5   8
HETATM    8  C4  UNL     1      54.882  29.336  49.301  1.00  0.00     0.238 C 
BRANCH   8   9
HETATM    9  C3  UNL     1      54.411  30.224  50.401  1.00  0.00     0.054 C 
BRANCH   9  10
HETATM   10  C2  UNL     1      55.374  30.169  51.532  1.00  0.00    -0.035 C 
HETATM   11  C1  UNL     1      55.826  31.274  52.062  1.00  0.00     0.007 C 
ENDBRANCH   9  10
ENDBRANCH   8   9
ENDBRANCH   5   8
ENDBRANCH   3   5
ENDBRANCH   2   3
ENDBRANCH   1   2
BRANCH   1  12
HETATM   12  C7  UNL     1      59.200  31.861  49.025  1.00  0.00     0.280 C 
BRANCH  12  13
HETATM   13  O1  UNL     1      59.956  30.664  48.866  1.00  0.00    -0.373 OA
ATOM     14  H1  UNL     1      60.466  30.520  49.655  1.00  0.00     0.212 HD
ENDBRANCH  12  13
BRANCH  12  15
HETATM   15  C8  UNL     1      59.268  32.641  47.754  1.00  0.00     0.097 A 
HETATM   16  C9  UNL     1      59.917  32.259  46.584  1.00  0.00     0.150 A 
HETATM   17  N4  UNL     1      59.737  33.238  45.676  1.00  0.00    -0.247 N 
HETATM   18  C10 UNL     1      60.251  33.251  44.303  1.00  0.00     0.187 C 
HETATM   19  O2  UNL     1      59.027  34.146  46.260  1.00  0.00    -0.155 OA
HETATM   20  N5  UNL     1      58.736  33.835  47.467  1.00  0.00    -0.240 N 
ATOM     21  H5  UNL     1      58.186  34.407  48.108  1.00  0.00     0.196 HD
ENDBRANCH  12  15
ENDBRANCH   1  12
TORSDOF 9
ENDMDL
MODEL 5
REMARK VINA RESULT: -3.861348227      2.543      6.036
REMARK  9 active torsions:
REMARK  status: ('A' for Active; 'I' for Inactive)
REMARK    1  A    between atoms: C2_2  and  C3_3 
REMARK    2  A    between atoms: C3_3  and  C4_4 
REMARK    3  A    between atoms: C4_4  and  N1_5 
REMARK    4  A    between atoms: N1_5  and  C5_8 
REMARK    5  A    between atoms: C5_8  and  N2_10 
REMARK    6  A    between atoms: N2_10  and  N3_11 
REMARK    7  A    between atoms: N3_11  and  C7_12 
REMARK    8  A    between atoms: C7_12  and  O1_13 
REMARK    9  A    between atoms: C7_12  and  C8_15 
ROOT
HETATM    1  N3  UNL     1      58.934  30.581  47.431  1.00  0.00    -0.108 NA
ENDROOT
BRANCH   1   2
HETATM    2  N2  UNL     1      59.507  31.365  48.438  1.00  0.00    -0.112 NA
BRANCH   2   3
HETATM    3  C5  UNL     1      59.023  32.741  48.369  1.00  0.00     0.289 C 
HETATM    4  C6  UNL     1      58.315  33.012  49.678  1.00  0.00     0.060 C 
BRANCH   3   5
HETATM    5  N1  UNL     1      60.065  33.673  48.090  1.00  0.00    -0.056 N 
ATOM      6  H12 UNL     1      60.965  33.216  47.946  1.00  0.00     0.279 HD
ATOM      7  H11 UNL     1      60.316  34.230  48.907  1.00  0.00     0.279 HD
BRANCH   5   8
HETATM    8  C4  UNL     1      59.674  34.501  46.953  1.00  0.00     0.238 C 
BRANCH   8   9
HETATM    9  C3  UNL     1      58.873  33.766  45.935  1.00  0.00     0.054 C 
BRANCH   9  10
HETATM   10  C2  UNL     1      59.783  33.155  44.932  1.00  0.00    -0.035 C 
HETATM   11  C1  UNL     1      61.065  33.077  45.173  1.00  0.00     0.007 C 
ENDBRANCH   9  10
ENDBRANCH   8   9
ENDBRANCH   5   8
ENDBRANCH   3   5
ENDBRANCH   2   3
ENDBRANCH   1   2
BRANCH   1  12
HETATM   12  C7  UNL     1      58.341  29.413  48.057  1.00  0.00     0.280 C 
BRANCH  12  13
HETATM   13  O1  UNL     1      59.051  29.134  49.262  1.00  0.00    -0.373 OA
ATOM     14  H1  UNL     1      58.462  29.261  49.996  1.00  0.00     0.212 HD
ENDBRANCH  12  13
BRANCH  12  15
HETATM   15  C8  UNL     1      56.913  29.684  48.396  1.00  0.00     0.097 A 
HETATM   16  C9  UNL     1      56.401  29.955  49.661  1.00  0.00     0.150 A 
HETATM   17  N4  UNL     1      55.073  30.143  49.535  1.00  0.00    -0.247 N 
HETATM   18  C10 UNL     1      54.135  30.453  50.618  1.00  0.00     0.187 C 
HETATM   19  O2  UNL     1      54.805  29.997  48.279  1.00  0.00    -0.155 OA
HETATM   20  N5  UNL     1      55.848  29.730  47.587  1.00  0.00    -0.240 N 
ATOM     21  H5  UNL     1      55.864  29.576  46.579  1.00  0.00     0.196 HD
ENDBRANCH  12  15
ENDBRANCH   1  12
TORSDOF 9
ENDMDL
