MODEL 1
REMARK VINA RESULT: -4.949977537      0.000      0.000
REMARK  9 active torsions:
REMARK  status: ('A' for Active; 'I' for Inactive)
REMARK    1  A    between atoms: N1_3  and  C4_5 
REMARK    2  A    between atoms: C4_5  and  C5_6 
REMARK    3  A    between atoms: C5_6  and  N2_7 
REMARK    4  A    between atoms: N2_7  and  C6_10 
REMARK    5  A    between atoms: C6_10  and  C7_11 
REMARK    6  A    between atoms: C7_11  and  C8_12 
REMARK    7  A    between atoms: C8_12  and  N3_13 
REMARK    8  A    between atoms: N3_13  and  C9_15 
REMARK    9  A    between atoms: C10_21  and  N6_22 
ROOT
HETATM    1  C1  UNL     1      55.506  30.726  51.855  1.00  0.00     0.037 C 
HETATM    2  C2  UNL     1      55.567  30.322  50.719  1.00  0.00    -0.004 C 
HETATM    3  N1  UNL     1      55.624  29.876  49.370  1.00  0.00    -0.345 N 
HETATM    4  C3  UNL     1      54.507  30.134  48.520  1.00  0.00     0.160 C 
ENDROOT
BRANCH   3   5
HETATM    5  C4  UNL     1      56.824  29.195  48.934  1.00  0.00     0.159 C 
BRANCH   5   6
HETATM    6  C5  UNL     1      57.402  29.845  47.671  1.00  0.00     0.252 C 
BRANCH   6   7
HETATM    7  N2  UNL     1      58.832  29.905  47.841  1.00  0.00    -0.073 N 
ATOM      8  H22 UNL     1      59.196  28.995  48.121  1.00  0.00     0.277 HD
ATOM      9  H21 UNL     1      59.294  30.007  46.937  1.00  0.00     0.277 HD
BRANCH   7  10
HETATM   10  C6  UNL     1      59.279  30.932  48.755  1.00  0.00     0.234 C 
BRANCH  10  11
HETATM   11  C7  UNL     1      58.282  32.100  48.818  1.00  0.00     0.047 C 
BRANCH  11  12
HETATM   12  C8  UNL     1      59.208  33.348  49.016  1.00  0.00     0.123 C 
BRANCH  12  13
HETATM   13  N3  UNL     1      60.222  33.243  48.076  1.00  0.00    -0.372 N 
ATOM     14  H3  UNL     1      61.158  33.133  48.465  1.00  0.00     0.161 HD
BRANCH  13  15
HETATM   15  C9  UNL     1      60.169  33.262  46.801  1.00  0.00     0.169 A 
HETATM   16  N4  UNL     1      61.028  32.502  46.022  1.00  0.00    -0.222 N 
HETATM   17  O1  UNL     1      60.771  32.726  44.800  1.00  0.00    -0.153 OA
ATOM     18  H4  UNL     1      61.746  31.868  46.373  1.00  0.00     0.198 HD
HETATM   19  N5  UNL     1      59.814  33.565  44.640  1.00  0.00    -0.222 N 
HETATM   20  C10 UNL     1      59.388  33.943  45.901  1.00  0.00     0.167 A 
ATOM     21  H5  UNL     1      59.438  33.892  43.750  1.00  0.00     0.198 HD
BRANCH  20  22
HETATM   22  N6  UNL     1      58.431  34.764  46.102  1.00  0.00    -0.381 N 
ATOM     23  H62 UNL     1      57.549  34.733  45.590  1.00  0.00     0.157 HD
ATOM     24  H61 UNL     1      58.357  35.536  46.765  1.00  0.00     0.157 HD
ENDBRANCH  20  22
ENDBRANCH  13  15
ENDBRANCH  12  13
ENDBRANCH  11  12
ENDBRANCH  10  11
ENDBRANCH   7  10
ENDBRANCH   6   7
ENDBRANCH   5   6
ENDBRANCH   3   5
TORSDOF 9
ENDMDL
MODEL 2
REMARK VINA RESULT: -4.572954444      0.974      1.257
REMARK  9 active torsions:
REMARK  status: ('A' for Active; 'I' for Inactive)
REMARK    1  A    between atoms: N1_3  and  C4_5 
REMARK    2  A    between atoms: C4_5  and  C5_6 
REMARK    3  A    between atoms: C5_6  and  N2_7 
REMARK    4  A    between atoms: N2_7  and  C6_10 
REMARK    5  A    between atoms: C6_10  and  C7_11 
REMARK    6  A    between atoms: C7_11  and  C8_12 
REMARK    7  A    between atoms: C8_12  and  N3_13 
REMARK    8  A    between atoms: N3_13  and  C9_15 
REMARK    9  A    between atoms: C10_21  and  N6_22 
ROOT
HETATM    1  C1  UNL     1      56.190  31.249  52.611  1.00  0.00     0.037 C 
HETATM    2  C2  UNL     1      55.696  30.768  51.620  1.00  0.00    -0.004 C 
HETATM    3  N1  UNL     1      55.096  30.231  50.448  1.00  0.00    -0.345 N 
HETATM    4  C3  UNL     1      53.714  30.495  50.209  1.00  0.00     0.160 C 
ENDROOT
BRANCH   3   5
HETATM    5  C4  UNL     1      55.931  29.454  49.557  1.00  0.00     0.159 C 
BRANCH   5   6
HETATM    6  C5  UNL     1      55.763  29.911  48.103  1.00  0.00     0.252 C 
BRANCH   6   7
HETATM    7  N2  UNL     1      56.929  30.687  47.764  1.00  0.00    -0.073 N 
ATOM      8  H22 UNL     1      56.750  31.258  46.938  1.00  0.00     0.277 HD
ATOM      9  H21 UNL     1      57.081  31.422  48.454  1.00  0.00     0.277 HD
BRANCH   7  10
HETATM   10  C6  UNL     1      58.132  29.905  47.587  1.00  0.00     0.234 C 
BRANCH  10  11
HETATM   11  C7  UNL     1      59.277  30.428  48.469  1.00  0.00     0.047 C 
BRANCH  11  12
HETATM   12  C8  UNL     1      58.831  31.892  48.800  1.00  0.00     0.123 C 
BRANCH  12  13
HETATM   13  N3  UNL     1      59.747  32.734  48.190  1.00  0.00    -0.372 N 
ATOM     14  H3  UNL     1      60.352  33.247  48.831  1.00  0.00     0.161 HD
BRANCH  13  15
HETATM   15  C9  UNL     1      59.954  32.969  46.953  1.00  0.00     0.169 A 
HETATM   16  N4  UNL     1      60.896  32.261  46.221  1.00  0.00    -0.222 N 
HETATM   17  O1  UNL     1      60.906  32.710  45.035  1.00  0.00    -0.153 OA
ATOM     18  H4  UNL     1      61.482  31.507  46.578  1.00  0.00     0.198 HD
HETATM   19  N5  UNL     1      60.064  33.661  44.856  1.00  0.00    -0.222 N 
HETATM   20  C10 UNL     1      59.421  33.868  46.064  1.00  0.00     0.167 A 
ATOM     21  H5  UNL     1      59.898  34.168  43.987  1.00  0.00     0.198 HD
BRANCH  20  22
HETATM   22  N6  UNL     1      58.504  34.741  46.230  1.00  0.00    -0.381 N 
ATOM     23  H62 UNL     1      58.657  35.743  46.119  1.00  0.00     0.157 HD
ATOM     24  H61 UNL     1      57.520  34.621  46.470  1.00  0.00     0.157 HD
ENDBRANCH  20  22
ENDBRANCH  13  15
ENDBRANCH  12  13
ENDBRANCH  11  12
ENDBRANCH  10  11
ENDBRANCH   7  10
ENDBRANCH   6   7
ENDBRANCH   5   6
ENDBRANCH   3   5
TORSDOF 9
ENDMDL
MODEL 3
REMARK VINA RESULT: -3.793751214      0.341      1.329
REMARK  9 active torsions:
REMARK  status: ('A' for Active; 'I' for Inactive)
REMARK    1  A    between atoms: N1_3  and  C4_5 
REMARK    2  A    between atoms: C4_5  and  C5_6 
REMARK    3  A    between atoms: C5_6  and  N2_7 
REMARK    4  A    between atoms: N2_7  and  C6_10 
REMARK    5  A    between atoms: C6_10  and  C7_11 
REMARK    6  A    between atoms: C7_11  and  C8_12 
REMARK    7  A    between atoms: C8_12  and  N3_13 
REMARK    8  A    between atoms: N3_13  and  C9_15 
REMARK    9  A    between atoms: C10_21  and  N6_22 
ROOT
HETATM    1  C1  UNL     1      54.010  30.474  47.965  1.00  0.00     0.037 C 
HETATM    2  C2  UNL     1      54.853  30.169  48.774  1.00  0.00    -0.004 C 
HETATM    3  N1  UNL     1      55.820  29.796  49.748  1.00  0.00    -0.345 N 
HETATM    4  C3  UNL     1      55.510  30.000  51.126  1.00  0.00     0.160 C 
ENDROOT
BRANCH   3   5
HETATM    5  C4  UNL     1      57.061  29.218  49.280  1.00  0.00     0.159 C 
BRANCH   5   6
HETATM    6  C5  UNL     1      57.410  29.721  47.874  1.00  0.00     0.252 C 
BRANCH   6   7
HETATM    7  N2  UNL     1      58.826  29.989  47.858  1.00  0.00    -0.073 N 
ATOM      8  H22 UNL     1      59.354  29.125  47.977  1.00  0.00     0.277 HD
ATOM      9  H21 UNL     1      59.128  30.249  46.919  1.00  0.00     0.277 HD
BRANCH   7  10
HETATM   10  C6  UNL     1      59.254  30.980  48.819  1.00  0.00     0.234 C 
BRANCH  10  11
HETATM   11  C7  UNL     1      58.284  32.171  48.867  1.00  0.00     0.047 C 
BRANCH  11  12
HETATM   12  C8  UNL     1      59.240  33.404  49.000  1.00  0.00     0.123 C 
BRANCH  12  13
HETATM   13  N3  UNL     1      60.244  33.231  48.060  1.00  0.00    -0.372 N 
ATOM     14  H3  UNL     1      61.174  33.076  48.450  1.00  0.00     0.161 HD
BRANCH  13  15
HETATM   15  C9  UNL     1      60.190  33.234  46.785  1.00  0.00     0.169 A 
HETATM   16  N4  UNL     1      61.037  32.452  46.016  1.00  0.00    -0.222 N 
HETATM   17  O1  UNL     1      60.781  32.662  44.791  1.00  0.00    -0.153 OA
ATOM     18  H4  UNL     1      61.748  31.814  46.374  1.00  0.00     0.198 HD
HETATM   19  N5  UNL     1      59.835  33.512  44.621  1.00  0.00    -0.222 N 
HETATM   20  C10 UNL     1      59.416  33.912  45.878  1.00  0.00     0.167 A 
ATOM     21  H5  UNL     1      59.462  33.832  43.728  1.00  0.00     0.198 HD
BRANCH  20  22
HETATM   22  N6  UNL     1      58.470  34.748  46.069  1.00  0.00    -0.381 N 
ATOM     23  H62 UNL     1      58.469  35.429  46.828  1.00  0.00     0.157 HD
ATOM     24  H61 UNL     1      57.611  34.898  45.540  1.00  0.00     0.157 HD
ENDBRANCH  20  22
ENDBRANCH  13  15
ENDBRANCH  12  13
ENDBRANCH  11  12
ENDBRANCH  10  11
ENDBRANCH   7  10
ENDBRANCH   6   7
ENDBRANCH   5   6
ENDBRANCH   3   5
TORSDOF 9
ENDMDL
MODEL 4
REMARK VINA RESULT: -3.766116539      1.225      2.221
REMARK  9 active torsions:
REMARK  status: ('A' for Active; 'I' for Inactive)
REMARK    1  A    between atoms: N1_3  and  C4_5 
REMARK    2  A    between atoms: C4_5  and  C5_6 
REMARK    3  A    between atoms: C5_6  and  N2_7 
REMARK    4  A    between atoms: N2_7  and  C6_10 
REMARK    5  A    between atoms: C6_10  and  C7_11 
REMARK    6  A    between atoms: C7_11  and  C8_12 
REMARK    7  A    between atoms: C8_12  and  N3_13 
REMARK    8  A    between atoms: N3_13  and  C9_15 
REMARK    9  A    between atoms: C10_21  and  N6_22 
ROOT
HETATM    1  C1  UNL     1      57.774  32.665  49.652  1.00  0.00     0.037 C 
HETATM    2  C2  UNL     1      56.988  31.889  50.139  1.00  0.00    -0.004 C 
HETATM    3  N1  UNL     1      56.042  31.003  50.724  1.00  0.00    -0.345 N 
HETATM    4  C3  UNL     1      55.512  31.325  52.010  1.00  0.00     0.160 C 
ENDROOT
BRANCH   3   5
HETATM    5  C4  UNL     1      55.662  29.827  49.970  1.00  0.00     0.159 C 
BRANCH   5   6
HETATM    6  C5  UNL     1      55.284  30.192  48.530  1.00  0.00     0.252 C 
BRANCH   6   7
HETATM    7  N2  UNL     1      56.165  29.455  47.659  1.00  0.00    -0.073 N 
ATOM      8  H22 UNL     1      56.384  28.544  48.062  1.00  0.00     0.277 HD
ATOM      9  H21 UNL     1      55.669  29.159  46.818  1.00  0.00     0.277 HD
BRANCH   7  10
HETATM   10  C6  UNL     1      57.378  30.158  47.309  1.00  0.00     0.234 C 
BRANCH  10  11
HETATM   11  C7  UNL     1      58.620  29.453  47.878  1.00  0.00     0.047 C 
BRANCH  11  12
HETATM   12  C8  UNL     1      59.691  30.594  47.919  1.00  0.00     0.123 C 
BRANCH  12  13
HETATM   13  N3  UNL     1      59.232  31.600  47.083  1.00  0.00    -0.372 N 
ATOM     14  H3  UNL     1      58.216  31.668  47.010  1.00  0.00     0.161 HD
BRANCH  13  15
HETATM   15  C9  UNL     1      59.877  32.455  46.389  1.00  0.00     0.169 A 
HETATM   16  N4  UNL     1      61.084  32.142  45.783  1.00  0.00    -0.222 N 
HETATM   17  O1  UNL     1      61.512  33.172  45.179  1.00  0.00    -0.153 OA
ATOM     18  H4  UNL     1      61.550  31.235  45.816  1.00  0.00     0.198 HD
HETATM   19  N5  UNL     1      60.725  34.178  45.296  1.00  0.00    -0.222 N 
HETATM   20  C10 UNL     1      59.652  33.769  46.068  1.00  0.00     0.167 A 
ATOM     21  H5  UNL     1      60.864  35.106  44.895  1.00  0.00     0.198 HD
BRANCH  20  22
HETATM   22  N6  UNL     1      58.671  34.530  46.365  1.00  0.00    -0.381 N 
ATOM     23  H62 UNL     1      57.776  34.183  46.709  1.00  0.00     0.157 HD
ATOM     24  H61 UNL     1      58.597  35.547  46.335  1.00  0.00     0.157 HD
ENDBRANCH  20  22
ENDBRANCH  13  15
ENDBRANCH  12  13
ENDBRANCH  11  12
ENDBRANCH  10  11
ENDBRANCH   7  10
ENDBRANCH   6   7
ENDBRANCH   5   6
ENDBRANCH   3   5
TORSDOF 9
ENDMDL
MODEL 5
REMARK VINA RESULT: -3.748723815      0.877      1.631
REMARK  9 active torsions:
REMARK  status: ('A' for Active; 'I' for Inactive)
REMARK    1  A    between atoms: N1_3  and  C4_5 
REMARK    2  A    between atoms: C4_5  and  C5_6 
REMARK    3  A    between atoms: C5_6  and  N2_7 
REMARK    4  A    between atoms: N2_7  and  C6_10 
REMARK    5  A    between atoms: C6_10  and  C7_11 
REMARK    6  A    between atoms: C7_11  and  C8_12 
REMARK    7  A    between atoms: C8_12  and  N3_13 
REMARK    8  A    between atoms: N3_13  and  C9_15 
REMARK    9  A    between atoms: C10_21  and  N6_22 
ROOT
HETATM    1  C1  UNL     1      55.421  30.946  51.673  1.00  0.00     0.037 C 
HETATM    2  C2  UNL     1      55.682  30.420  50.617  1.00  0.00    -0.004 C 
HETATM    3  N1  UNL     1      55.974  29.829  49.358  1.00  0.00    -0.345 N 
HETATM    4  C3  UNL     1      54.988  29.899  48.328  1.00  0.00     0.160 C 
ENDROOT
BRANCH   3   5
HETATM    5  C4  UNL     1      57.266  29.198  49.191  1.00  0.00     0.159 C 
BRANCH   5   6
HETATM    6  C5  UNL     1      58.121  29.954  48.167  1.00  0.00     0.252 C 
BRANCH   6   7
HETATM    7  N2  UNL     1      58.901  30.922  48.897  1.00  0.00    -0.073 N 
ATOM      8  H22 UNL     1      59.108  30.579  49.835  1.00  0.00     0.277 HD
ATOM      9  H21 UNL     1      59.846  30.977  48.518  1.00  0.00     0.277 HD
BRANCH   7  10
HETATM   10  C6  UNL     1      58.305  32.237  48.961  1.00  0.00     0.234 C 
BRANCH  10  11
HETATM   11  C7  UNL     1      57.572  32.586  47.655  1.00  0.00     0.047 C 
BRANCH  11  12
HETATM   12  C8  UNL     1      57.780  34.133  47.531  1.00  0.00     0.123 C 
BRANCH  12  13
HETATM   13  N3  UNL     1      58.550  34.341  46.397  1.00  0.00    -0.372 N 
ATOM     14  H3  UNL     1      58.282  35.152  45.839  1.00  0.00     0.161 HD
BRANCH  13  15
HETATM   15  C9  UNL     1      59.540  33.678  45.939  1.00  0.00     0.169 A 
HETATM   16  N4  UNL     1      59.609  33.291  44.610  1.00  0.00    -0.222 N 
HETATM   17  O1  UNL     1      60.681  32.635  44.435  1.00  0.00    -0.153 OA
ATOM     18  H4  UNL     1      58.914  33.498  43.893  1.00  0.00     0.198 HD
HETATM   19  N5  UNL     1      61.376  32.526  45.508  1.00  0.00    -0.222 N 
HETATM   20  C10 UNL     1      60.685  33.183  46.510  1.00  0.00     0.167 A 
ATOM     21  H5  UNL     1      62.271  32.045  45.603  1.00  0.00     0.198 HD
BRANCH  20  22
HETATM   22  N6  UNL     1      61.111  33.278  47.710  1.00  0.00    -0.381 N 
ATOM     23  H62 UNL     1      61.277  34.169  48.178  1.00  0.00     0.157 HD
ATOM     24  H61 UNL     1      61.337  32.548  48.386  1.00  0.00     0.157 HD
ENDBRANCH  20  22
ENDBRANCH  13  15
ENDBRANCH  12  13
ENDBRANCH  11  12
ENDBRANCH  10  11
ENDBRANCH   7  10
ENDBRANCH   6   7
ENDBRANCH   5   6
ENDBRANCH   3   5
TORSDOF 9
ENDMDL
