MODEL 1
REMARK VINA RESULT: -5.783132863      0.000      0.000
REMARK  8 active torsions:
REMARK  status: ('A' for Active; 'I' for Inactive)
REMARK    1  A    between atoms: O1_2  and  C2_3 
REMARK    2  A    between atoms: C2_3  and  C3_4 
REMARK    3  A    between atoms: C2_3  and  C7_11 
REMARK    4  A    between atoms: C7_11  and  O2_12 
REMARK    5  A    between atoms: C7_11  and  N2_14 
REMARK    6  A    between atoms: N2_14  and  C8_16 
REMARK    7  A    between atoms: C8_16  and  C9_17 
REMARK    8  A    between atoms: C9_17  and  C10_18 
ROOT
HETATM    1  C10 UNL     1      54.844  29.717  49.353  1.00  0.00    -0.011 C 
HETATM    2  C11 UNL     1      54.370  30.271  50.455  1.00  0.00     0.090 C 
HETATM    3  C12 UNL     1      55.290  30.839  51.422  1.00  0.00     0.087 C 
HETATM    4  N3  UNL     1      56.031  31.273  52.198  1.00  0.00    -0.192 NA
ENDROOT
BRANCH   1   5
HETATM    5  C9  UNL     1      56.290  29.658  49.078  1.00  0.00     0.072 C 
BRANCH   5   6
HETATM    6  C8  UNL     1      56.628  30.192  47.678  1.00  0.00     0.062 C 
BRANCH   6   7
HETATM    7  N2  UNL     1      57.923  29.948  47.245  1.00  0.00    -0.374 N 
ATOM      8  H2  UNL     1      58.067  29.680  46.271  1.00  0.00     0.161 HD
BRANCH   7   9
HETATM    9  C7  UNL     1      59.031  30.051  48.072  1.00  0.00     0.246 C 
BRANCH   9  10
HETATM   10  C2  UNL     1      59.645  31.366  48.343  1.00  0.00     0.175 C 
BRANCH  10  11
HETATM   11  O1  UNL     1      59.131  31.968  49.492  1.00  0.00    -0.386 OA
HETATM   12  C1  UNL     1      58.063  32.767  49.315  1.00  0.00     0.202 C 
ENDBRANCH  10  11
BRANCH  10  13
HETATM   13  C3  UNL     1      59.525  32.375  47.249  1.00  0.00     0.046 C 
HETATM   14  C4  UNL     1      60.282  32.081  45.992  1.00  0.00     0.036 C 
HETATM   15  C5  UNL     1      60.266  33.446  45.296  1.00  0.00     0.232 C 
HETATM   16  N1  UNL     1      59.662  34.382  46.227  1.00  0.00    -0.075 N 
HETATM   17  C6  UNL     1      59.939  33.767  47.547  1.00  0.00     0.239 C 
ATOM     18  H12 UNL     1      59.983  35.345  46.131  1.00  0.00     0.277 HD
ATOM     19  H11 UNL     1      58.677  34.583  46.050  1.00  0.00     0.277 HD
ENDBRANCH  10  13
ENDBRANCH   9  10
BRANCH   9  20
HETATM   20  O2  UNL     1      59.992  29.114  47.680  1.00  0.00    -0.374 OA
ATOM     21  H2  UNL     1      59.590  28.367  47.253  1.00  0.00     0.212 HD
ENDBRANCH   9  20
ENDBRANCH   7   9
ENDBRANCH   6   7
ENDBRANCH   5   6
ENDBRANCH   1   5
TORSDOF 8
ENDMDL
MODEL 2
REMARK VINA RESULT: -4.969996675      1.072      1.295
REMARK  8 active torsions:
REMARK  status: ('A' for Active; 'I' for Inactive)
REMARK    1  A    between atoms: O1_2  and  C2_3 
REMARK    2  A    between atoms: C2_3  and  C3_4 
REMARK    3  A    between atoms: C2_3  and  C7_11 
REMARK    4  A    between atoms: C7_11  and  O2_12 
REMARK    5  A    between atoms: C7_11  and  N2_14 
REMARK    6  A    between atoms: N2_14  and  C8_16 
REMARK    7  A    between atoms: C8_16  and  C9_17 
REMARK    8  A    between atoms: C9_17  and  C10_18 
ROOT
HETATM    1  C10 UNL     1      55.115  29.750  49.122  1.00  0.00    -0.011 C 
HETATM    2  C11 UNL     1      54.517  30.203  50.211  1.00  0.00     0.090 C 
HETATM    3  C12 UNL     1      55.317  30.725  51.301  1.00  0.00     0.087 C 
HETATM    4  N3  UNL     1      55.964  31.123  52.175  1.00  0.00    -0.192 NA
ENDROOT
BRANCH   1   5
HETATM    5  C9  UNL     1      56.581  29.760  48.986  1.00  0.00     0.072 C 
BRANCH   5   6
HETATM    6  C8  UNL     1      57.021  30.149  47.567  1.00  0.00     0.062 C 
BRANCH   6   7
HETATM    7  N2  UNL     1      58.295  30.689  47.466  1.00  0.00    -0.374 N 
ATOM      8  H2  UNL     1      58.762  30.665  46.559  1.00  0.00     0.161 HD
BRANCH   7   9
HETATM    9  C7  UNL     1      58.963  31.260  48.537  1.00  0.00     0.246 C 
BRANCH   9  10
HETATM   10  C2  UNL     1      59.394  32.671  48.487  1.00  0.00     0.175 C 
BRANCH  10  11
HETATM   11  O1  UNL     1      58.340  33.558  48.708  1.00  0.00    -0.386 OA
HETATM   12  C1  UNL     1      57.545  33.284  49.760  1.00  0.00     0.202 C 
ENDBRANCH  10  11
BRANCH  10  13
HETATM   13  C3  UNL     1      60.050  33.104  47.219  1.00  0.00     0.046 C 
HETATM   14  C4  UNL     1      59.228  33.960  46.307  1.00  0.00     0.036 C 
HETATM   15  C5  UNL     1      60.020  33.867  44.999  1.00  0.00     0.232 C 
HETATM   16  N1  UNL     1      61.086  32.907  45.223  1.00  0.00    -0.075 N 
HETATM   17  C6  UNL     1      60.540  32.048  46.300  1.00  0.00     0.239 C 
ATOM     18  H12 UNL     1      61.387  32.403  44.389  1.00  0.00     0.277 HD
ATOM     19  H11 UNL     1      61.996  33.321  45.429  1.00  0.00     0.277 HD
ENDBRANCH  10  13
ENDBRANCH   9  10
BRANCH   9  20
HETATM   20  O2  UNL     1      60.013  30.423  48.929  1.00  0.00    -0.374 OA
ATOM     21  H2  UNL     1      60.764  30.521  48.354  1.00  0.00     0.212 HD
ENDBRANCH   9  20
ENDBRANCH   7   9
ENDBRANCH   6   7
ENDBRANCH   5   6
ENDBRANCH   1   5
TORSDOF 8
ENDMDL
MODEL 3
REMARK VINA RESULT: -4.509372265      1.106      1.947
REMARK  8 active torsions:
REMARK  status: ('A' for Active; 'I' for Inactive)
REMARK    1  A    between atoms: O1_2  and  C2_3 
REMARK    2  A    between atoms: C2_3  and  C3_4 
REMARK    3  A    between atoms: C2_3  and  C7_11 
REMARK    4  A    between atoms: C7_11  and  O2_12 
REMARK    5  A    between atoms: C7_11  and  N2_14 
REMARK    6  A    between atoms: N2_14  and  C8_16 
REMARK    7  A    between atoms: C8_16  and  C9_17 
REMARK    8  A    between atoms: C9_17  and  C10_18 
ROOT
HETATM    1  C10 UNL     1      54.383  29.881  49.604  1.00  0.00    -0.011 C 
HETATM    2  C11 UNL     1      54.181  30.635  50.671  1.00  0.00     0.090 C 
HETATM    3  C12 UNL     1      55.298  30.963  51.536  1.00  0.00     0.087 C 
HETATM    4  N3  UNL     1      56.191  31.205  52.231  1.00  0.00    -0.192 NA
ENDROOT
BRANCH   1   5
HETATM    5  C9  UNL     1      55.719  29.362  49.266  1.00  0.00     0.072 C 
BRANCH   5   6
HETATM    6  C8  UNL     1      56.296  30.038  48.014  1.00  0.00     0.062 C 
BRANCH   6   7
HETATM    7  N2  UNL     1      56.516  31.404  48.122  1.00  0.00    -0.374 N 
ATOM      8  H2  UNL     1      55.712  32.030  48.077  1.00  0.00     0.161 HD
BRANCH   7   9
HETATM    9  C7  UNL     1      57.776  31.957  48.288  1.00  0.00     0.246 C 
BRANCH   9  10
HETATM   10  C2  UNL     1      58.925  31.454  47.509  1.00  0.00     0.175 C 
BRANCH  10  11
HETATM   11  O1  UNL     1      59.739  30.598  48.253  1.00  0.00    -0.386 OA
HETATM   12  C1  UNL     1      59.504  29.281  48.105  1.00  0.00     0.202 C 
ENDBRANCH  10  11
BRANCH  10  13
HETATM   13  C3  UNL     1      59.825  32.497  46.934  1.00  0.00     0.046 C 
HETATM   14  C4  UNL     1      59.182  33.800  46.575  1.00  0.00     0.036 C 
HETATM   15  C5  UNL     1      60.251  34.436  45.682  1.00  0.00     0.232 C 
HETATM   16  N1  UNL     1      61.292  33.439  45.502  1.00  0.00    -0.075 N 
HETATM   17  C6  UNL     1      60.567  32.161  45.695  1.00  0.00     0.239 C 
ATOM     18  H12 UNL     1      61.801  33.510  44.621  1.00  0.00     0.277 HD
ATOM     19  H11 UNL     1      62.108  33.561  46.103  1.00  0.00     0.277 HD
ENDBRANCH  10  13
ENDBRANCH   9  10
BRANCH   9  20
HETATM   20  O2  UNL     1      58.079  32.025  49.651  1.00  0.00    -0.374 OA
ATOM     21  H2  UNL     1      58.803  31.451  49.872  1.00  0.00     0.212 HD
ENDBRANCH   9  20
ENDBRANCH   7   9
ENDBRANCH   6   7
ENDBRANCH   5   6
ENDBRANCH   1   5
TORSDOF 8
ENDMDL
MODEL 4
REMARK VINA RESULT: -4.306887542      1.796      5.607
REMARK  8 active torsions:
REMARK  status: ('A' for Active; 'I' for Inactive)
REMARK    1  A    between atoms: O1_2  and  C2_3 
REMARK    2  A    between atoms: C2_3  and  C3_4 
REMARK    3  A    between atoms: C2_3  and  C7_11 
REMARK    4  A    between atoms: C7_11  and  O2_12 
REMARK    5  A    between atoms: C7_11  and  N2_14 
REMARK    6  A    between atoms: N2_14  and  C8_16 
REMARK    7  A    between atoms: C8_16  and  C9_17 
REMARK    8  A    between atoms: C9_17  and  C10_18 
ROOT
HETATM    1  C10 UNL     1      58.588  34.552  46.459  1.00  0.00    -0.011 C 
HETATM    2  C11 UNL     1      59.650  34.499  45.674  1.00  0.00     0.090 C 
HETATM    3  C12 UNL     1      60.349  33.241  45.502  1.00  0.00     0.087 C 
HETATM    4  N3  UNL     1      60.913  32.236  45.384  1.00  0.00    -0.192 NA
ENDROOT
BRANCH   1   5
HETATM    5  C9  UNL     1      58.091  33.361  47.168  1.00  0.00     0.072 C 
BRANCH   5   6
HETATM    6  C8  UNL     1      58.385  33.427  48.674  1.00  0.00     0.062 C 
BRANCH   6   7
HETATM    7  N2  UNL     1      58.771  32.230  49.259  1.00  0.00    -0.374 N 
ATOM      8  H2  UNL     1      58.985  32.225  50.256  1.00  0.00     0.161 HD
BRANCH   7   9
HETATM    9  C7  UNL     1      58.880  31.042  48.553  1.00  0.00     0.246 C 
BRANCH   9  10
HETATM   10  C2  UNL     1      58.382  29.778  49.131  1.00  0.00     0.175 C 
BRANCH  10  11
HETATM   11  O1  UNL     1      58.934  28.656  48.512  1.00  0.00    -0.386 OA
HETATM   12  C1  UNL     1      58.957  27.527  49.245  1.00  0.00     0.202 C 
ENDBRANCH  10  11
BRANCH  10  13
HETATM   13  C3  UNL     1      56.901  29.591  49.100  1.00  0.00     0.046 C 
HETATM   14  C4  UNL     1      56.178  30.226  47.953  1.00  0.00     0.036 C 
HETATM   15  C5  UNL     1      54.728  30.188  48.444  1.00  0.00     0.232 C 
HETATM   16  N1  UNL     1      54.762  29.695  49.810  1.00  0.00    -0.075 N 
HETATM   17  C6  UNL     1      56.121  30.070  50.266  1.00  0.00     0.239 C 
ATOM     18  H12 UNL     1      54.005  30.035  50.404  1.00  0.00     0.277 HD
ATOM     19  H11 UNL     1      54.536  28.705  49.911  1.00  0.00     0.277 HD
ENDBRANCH  10  13
ENDBRANCH   9  10
BRANCH   9  20
HETATM   20  O2  UNL     1      60.188  30.902  48.079  1.00  0.00    -0.374 OA
ATOM     21  H2  UNL     1      60.598  31.748  47.946  1.00  0.00     0.212 HD
ENDBRANCH   9  20
ENDBRANCH   7   9
ENDBRANCH   6   7
ENDBRANCH   5   6
ENDBRANCH   1   5
TORSDOF 8
ENDMDL
MODEL 5
REMARK VINA RESULT: -4.036157747      1.795      5.836
REMARK  8 active torsions:
REMARK  status: ('A' for Active; 'I' for Inactive)
REMARK    1  A    between atoms: O1_2  and  C2_3 
REMARK    2  A    between atoms: C2_3  and  C3_4 
REMARK    3  A    between atoms: C2_3  and  C7_11 
REMARK    4  A    between atoms: C7_11  and  O2_12 
REMARK    5  A    between atoms: C7_11  and  N2_14 
REMARK    6  A    between atoms: N2_14  and  C8_16 
REMARK    7  A    between atoms: C8_16  and  C9_17 
REMARK    8  A    between atoms: C9_17  and  C10_18 
ROOT
HETATM    1  C10 UNL     1      58.692  34.089  46.787  1.00  0.00    -0.011 C 
HETATM    2  C11 UNL     1      59.130  33.935  45.549  1.00  0.00     0.090 C 
HETATM    3  C12 UNL     1      60.392  33.261  45.317  1.00  0.00     0.087 C 
HETATM    4  N3  UNL     1      61.410  32.737  45.142  1.00  0.00    -0.192 NA
ENDROOT
BRANCH   1   5
HETATM    5  C9  UNL     1      59.454  33.592  47.944  1.00  0.00     0.072 C 
BRANCH   5   6
HETATM    6  C8  UNL     1      58.562  33.403  49.179  1.00  0.00     0.062 C 
BRANCH   6   7
HETATM    7  N2  UNL     1      58.491  32.107  49.670  1.00  0.00    -0.374 N 
ATOM      8  H2  UNL     1      58.259  31.973  50.654  1.00  0.00     0.161 HD
BRANCH   7   9
HETATM    9  C7  UNL     1      58.719  30.987  48.886  1.00  0.00     0.246 C 
BRANCH   9  10
HETATM   10  C2  UNL     1      57.651  29.989  48.675  1.00  0.00     0.175 C 
BRANCH  10  11
HETATM   11  O1  UNL     1      57.432  29.722  47.322  1.00  0.00    -0.386 OA
HETATM   12  C1  UNL     1      58.271  30.322  46.457  1.00  0.00     0.202 C 
ENDBRANCH  10  11
BRANCH  10  13
HETATM   13  C3  UNL     1      56.321  30.330  49.258  1.00  0.00     0.046 C 
HETATM   14  C4  UNL     1      56.135  30.016  50.710  1.00  0.00     0.036 C 
HETATM   15  C5  UNL     1      54.612  30.104  50.852  1.00  0.00     0.232 C 
HETATM   16  N1  UNL     1      54.079  30.308  49.517  1.00  0.00    -0.075 N 
HETATM   17  C6  UNL     1      55.120  29.712  48.647  1.00  0.00     0.239 C 
ATOM     18  H12 UNL     1      53.140  29.937  49.373  1.00  0.00     0.277 HD
ATOM     19  H11 UNL     1      53.843  31.277  49.296  1.00  0.00     0.277 HD
ENDBRANCH  10  13
ENDBRANCH   9  10
BRANCH   9  20
HETATM   20  O2  UNL     1      59.911  30.375  49.286  1.00  0.00    -0.374 OA
ATOM     21  H2  UNL     1      60.297  30.825  50.028  1.00  0.00     0.212 HD
ENDBRANCH   9  20
ENDBRANCH   7   9
ENDBRANCH   6   7
ENDBRANCH   5   6
ENDBRANCH   1   5
TORSDOF 8
ENDMDL
