MODEL 1
REMARK VINA RESULT: -8.460750196      0.000      0.000
REMARK  17 active torsions:
REMARK  status: ('A' for Active; 'I' for Inactive)
REMARK    1  A    between atoms: C2_2  and  C3_3 
REMARK    2  A    between atoms: C3_3  and  C4_4 
REMARK    3  A    between atoms: C4_4  and  C5_5 
REMARK    4  A    between atoms: C5_5  and  C6_6 
REMARK    5  A    between atoms: C6_6  and  O1_7 
REMARK    6  A    between atoms: O1_7  and  C7_8 
REMARK       I    between atoms: C7_8  and  N1_10 
REMARK       I    between atoms: N2_13  and  C10_14 
REMARK    7  A    between atoms: C10_14  and  C11_16 
REMARK    8  A    between atoms: C11_16  and  C12_17 
REMARK    9  A    between atoms: C14_19  and  C15_20 
REMARK   10  A    between atoms: C15_20  and  C16_21 
REMARK   11  A    between atoms: C16_21  and  C17_22 
REMARK   12  A    between atoms: C17_22  and  N3_23 
REMARK   13  A    between atoms: N3_23  and  C18_25 
REMARK   14  A    between atoms: C20_30  and  C21_31 
REMARK   15  A    between atoms: C21_31  and  C22_32 
REMARK       I    between atoms: C22_32  and  N5_34 
REMARK       I    between atoms: N6_37  and  C25_38 
REMARK   16  A    between atoms: C25_38  and  O6_40 
REMARK   17  A    between atoms: O6_40  and  C26_41 
ROOT
HETATM    1  C12 UNL     1      18.331  29.747  13.715  1.00  0.00     0.131 C 
HETATM    2  C13 UNL     1      18.549  31.074  13.096  1.00  0.00     0.039 C 
HETATM    3  C14 UNL     1      18.660  32.021  14.252  1.00  0.00     0.017 C 
HETATM    4  C20 UNL     1      18.420  31.127  15.438  1.00  0.00     0.134 C 
HETATM    5  O7  UNL     1      17.721  30.021  14.950  1.00  0.00    -0.379 OA
ENDROOT
BRANCH   1   6
HETATM    6  C11 UNL     1      17.561  28.818  12.846  1.00  0.00     0.135 C 
BRANCH   6   7
HETATM    7  C10 UNL     1      17.866  27.398  12.905  1.00  0.00     0.222 C 
HETATM    8  N2  UNL     1      18.119  26.718  11.692  1.00  0.00    -0.349 N 
HETATM    9  C9  UNL     1      18.076  27.435  10.441  1.00  0.00     0.145 C 
HETATM   10  C31 UNL     1      18.421  25.322  11.666  1.00  0.00     0.145 C 
HETATM   11  C8  UNL     1      19.507  27.365   9.887  1.00  0.00     0.148 C 
HETATM   12  N1  UNL     1      19.860  25.974   9.764  1.00  0.00    -0.325 N 
HETATM   13  C7  UNL     1      20.360  25.454   8.515  1.00  0.00     0.362 C 
HETATM   14  C32 UNL     1      19.714  25.097  10.907  1.00  0.00     0.148 C 
HETATM   15  O2  UNL     1      20.479  26.253   7.553  1.00  0.00    -0.238 OA
HETATM   16  O3  UNL     1      17.922  26.735  13.951  1.00  0.00    -0.273 OA
BRANCH  13  17
HETATM   17  O1  UNL     1      20.680  24.118   8.439  1.00  0.00    -0.304 OA
BRANCH  17  18
HETATM   18  C6  UNL     1      21.985  23.667   8.151  1.00  0.00     0.180 C 
BRANCH  18  19
HETATM   19  C5  UNL     1      23.002  24.265   9.079  1.00  0.00     0.027 C 
BRANCH  19  20
HETATM   20  C4  UNL     1      23.996  25.134   8.353  1.00  0.00     0.002 C 
BRANCH  20  21
HETATM   21  C3  UNL     1      24.962  25.724   9.342  1.00  0.00    -0.000 C 
BRANCH  21  22
HETATM   22  C2  UNL     1      24.245  26.630  10.340  1.00  0.00    -0.005 C 
HETATM   23  C1  UNL     1      24.789  26.445  11.731  1.00  0.00     0.005 C 
ENDBRANCH  21  22
ENDBRANCH  20  21
ENDBRANCH  19  20
ENDBRANCH  18  19
ENDBRANCH  17  18
ENDBRANCH  13  17
ENDBRANCH   6   7
ENDBRANCH   1   6
BRANCH   3  24
HETATM   24  C15 UNL     1      19.864  32.855  14.361  1.00  0.00     0.009 C 
BRANCH  24  25
HETATM   25  C16 UNL     1      21.141  32.367  14.850  1.00  0.00     0.020 C 
BRANCH  25  26
HETATM   26  C17 UNL     1      21.948  31.417  14.027  1.00  0.00     0.121 C 
BRANCH  26  27
HETATM   27  N3  UNL     1      22.122  30.195  14.850  1.00  0.00    -0.380 N 
ATOM     28  H3  UNL     1      22.585  30.246  15.757  1.00  0.00     0.160 HD
BRANCH  27  29
HETATM   29  C18 UNL     1      21.639  28.961  14.365  1.00  0.00     0.066 C 
HETATM   30  C19 UNL     1      21.831  28.643  12.928  1.00  0.00     0.088 C 
HETATM   31  N4  UNL     1      21.056  28.147  15.142  1.00  0.00    -0.389 N 
ATOM     32  H42 UNL     1      20.923  28.366  16.130  1.00  0.00     0.157 HD
ATOM     33  H41 UNL     1      20.707  27.255  14.791  1.00  0.00     0.157 HD
ENDBRANCH  27  29
ENDBRANCH  26  27
ENDBRANCH  25  26
ENDBRANCH  24  25
ENDBRANCH   3  24
BRANCH   4  34
HETATM   34  C21 UNL     1      17.817  31.705  16.637  1.00  0.00     0.135 C 
BRANCH  34  35
HETATM   35  C22 UNL     1      16.775  32.719  16.491  1.00  0.00     0.222 C 
HETATM   36  O4  UNL     1      15.707  32.464  15.884  1.00  0.00    -0.273 OA
HETATM   37  N5  UNL     1      16.914  34.045  17.029  1.00  0.00    -0.349 N 
HETATM   38  C23 UNL     1      15.843  34.979  16.837  1.00  0.00     0.145 C 
HETATM   39  C30 UNL     1      18.096  34.455  17.756  1.00  0.00     0.145 C 
HETATM   40  C24 UNL     1      15.979  36.212  17.658  1.00  0.00     0.148 C 
HETATM   41  N6  UNL     1      17.301  36.759  17.466  1.00  0.00    -0.325 N 
HETATM   42  C25 UNL     1      17.481  38.144  17.227  1.00  0.00     0.363 C 
HETATM   43  C29 UNL     1      18.438  35.903  17.516  1.00  0.00     0.148 C 
HETATM   44  O5  UNL     1      18.632  38.634  17.057  1.00  0.00    -0.238 OA
BRANCH  42  45
HETATM   45  O6  UNL     1      16.427  39.050  17.162  1.00  0.00    -0.299 OA
BRANCH  45  46
HETATM   46  C26 UNL     1      16.227  40.021  18.200  1.00  0.00     0.125 C 
HETATM   47  C27 UNL     1      15.009  39.563  18.979  1.00  0.00     0.040 C 
HETATM   48  C28 UNL     1      15.844  41.316  17.484  1.00  0.00     0.040 C 
ENDBRANCH  45  46
ENDBRANCH  42  45
ENDBRANCH  34  35
ENDBRANCH   4  34
TORSDOF 17
ENDMDL
MODEL 2
REMARK VINA RESULT: -8.224673019      2.065      3.052
REMARK  17 active torsions:
REMARK  status: ('A' for Active; 'I' for Inactive)
REMARK    1  A    between atoms: C2_2  and  C3_3 
REMARK    2  A    between atoms: C3_3  and  C4_4 
REMARK    3  A    between atoms: C4_4  and  C5_5 
REMARK    4  A    between atoms: C5_5  and  C6_6 
REMARK    5  A    between atoms: C6_6  and  O1_7 
REMARK    6  A    between atoms: O1_7  and  C7_8 
REMARK       I    between atoms: C7_8  and  N1_10 
REMARK       I    between atoms: N2_13  and  C10_14 
REMARK    7  A    between atoms: C10_14  and  C11_16 
REMARK    8  A    between atoms: C11_16  and  C12_17 
REMARK    9  A    between atoms: C14_19  and  C15_20 
REMARK   10  A    between atoms: C15_20  and  C16_21 
REMARK   11  A    between atoms: C16_21  and  C17_22 
REMARK   12  A    between atoms: C17_22  and  N3_23 
REMARK   13  A    between atoms: N3_23  and  C18_25 
REMARK   14  A    between atoms: C20_30  and  C21_31 
REMARK   15  A    between atoms: C21_31  and  C22_32 
REMARK       I    between atoms: C22_32  and  N5_34 
REMARK       I    between atoms: N6_37  and  C25_38 
REMARK   16  A    between atoms: C25_38  and  O6_40 
REMARK   17  A    between atoms: O6_40  and  C26_41 
ROOT
HETATM    1  C12 UNL     1      18.993  29.888  13.284  1.00  0.00     0.131 C 
HETATM    2  C13 UNL     1      19.422  31.294  13.109  1.00  0.00     0.039 C 
HETATM    3  C14 UNL     1      19.229  31.923  14.455  1.00  0.00     0.017 C 
HETATM    4  C20 UNL     1      18.630  30.804  15.262  1.00  0.00     0.134 C 
HETATM    5  O7  UNL     1      18.064  29.924  14.338  1.00  0.00    -0.379 OA
ENDROOT
BRANCH   1   6
HETATM    6  C11 UNL     1      18.472  29.277  12.033  1.00  0.00     0.135 C 
BRANCH   6   7
HETATM    7  C10 UNL     1      18.732  27.868  11.788  1.00  0.00     0.222 C 
HETATM    8  N2  UNL     1      20.030  27.488  11.374  1.00  0.00    -0.349 N 
HETATM    9  C9  UNL     1      21.055  28.490  11.213  1.00  0.00     0.145 C 
HETATM   10  C31 UNL     1      20.362  26.125  11.109  1.00  0.00     0.145 C 
HETATM   11  C8  UNL     1      22.123  28.146  12.262  1.00  0.00     0.148 C 
HETATM   12  N1  UNL     1      22.563  26.797  12.013  1.00  0.00    -0.325 N 
HETATM   13  C7  UNL     1      23.966  26.502  11.863  1.00  0.00     0.362 C 
HETATM   14  C32 UNL     1      21.584  25.735  11.916  1.00  0.00     0.148 C 
HETATM   15  O2  UNL     1      24.780  27.453  11.963  1.00  0.00    -0.238 OA
HETATM   16  O3  UNL     1      17.890  26.966  11.918  1.00  0.00    -0.273 OA
BRANCH  13  17
HETATM   17  O1  UNL     1      24.343  25.201  11.620  1.00  0.00    -0.304 OA
BRANCH  17  18
HETATM   18  C6  UNL     1      24.267  24.617  10.339  1.00  0.00     0.180 C 
BRANCH  18  19
HETATM   19  C5  UNL     1      24.621  25.594   9.256  1.00  0.00     0.027 C 
BRANCH  19  20
HETATM   20  C4  UNL     1      23.996  25.232   7.934  1.00  0.00     0.002 C 
BRANCH  20  21
HETATM   21  C3  UNL     1      23.390  23.859   8.025  1.00  0.00    -0.000 C 
BRANCH  21  22
HETATM   22  C2  UNL     1      21.954  23.855   7.509  1.00  0.00    -0.005 C 
HETATM   23  C1  UNL     1      21.370  25.242   7.514  1.00  0.00     0.005 C 
ENDBRANCH  21  22
ENDBRANCH  20  21
ENDBRANCH  19  20
ENDBRANCH  18  19
ENDBRANCH  17  18
ENDBRANCH  13  17
ENDBRANCH   6   7
ENDBRANCH   1   6
BRANCH   3  24
HETATM   24  C15 UNL     1      20.378  32.578  15.093  1.00  0.00     0.009 C 
BRANCH  24  25
HETATM   25  C16 UNL     1      21.551  31.865  15.567  1.00  0.00     0.020 C 
BRANCH  25  26
HETATM   26  C17 UNL     1      22.535  32.546  16.460  1.00  0.00     0.121 C 
BRANCH  26  27
HETATM   27  N3  UNL     1      21.801  32.893  17.703  1.00  0.00    -0.380 N 
ATOM     28  H3  UNL     1      21.312  32.171  18.231  1.00  0.00     0.160 HD
BRANCH  27  29
HETATM   29  C18 UNL     1      21.786  34.233  18.145  1.00  0.00     0.066 C 
HETATM   30  C19 UNL     1      22.113  35.302  17.170  1.00  0.00     0.088 C 
HETATM   31  N4  UNL     1      21.500  34.510  19.348  1.00  0.00    -0.389 N 
ATOM     32  H42 UNL     1      21.275  33.775  20.019  1.00  0.00     0.157 HD
ATOM     33  H41 UNL     1      21.489  35.479  19.668  1.00  0.00     0.157 HD
ENDBRANCH  27  29
ENDBRANCH  26  27
ENDBRANCH  25  26
ENDBRANCH  24  25
ENDBRANCH   3  24
BRANCH   4  34
HETATM   34  C21 UNL     1      17.729  31.141  16.362  1.00  0.00     0.135 C 
BRANCH  34  35
HETATM   35  C22 UNL     1      16.732  32.192  16.168  1.00  0.00     0.222 C 
HETATM   36  O4  UNL     1      15.729  32.003  15.437  1.00  0.00    -0.273 OA
HETATM   37  N5  UNL     1      16.842  33.480  16.796  1.00  0.00    -0.349 N 
HETATM   38  C23 UNL     1      15.819  34.454  16.548  1.00  0.00     0.145 C 
HETATM   39  C30 UNL     1      17.948  33.813  17.667  1.00  0.00     0.145 C 
HETATM   40  C24 UNL     1      15.895  35.633  17.451  1.00  0.00     0.148 C 
HETATM   41  N6  UNL     1      17.242  36.152  17.433  1.00  0.00    -0.325 N 
HETATM   42  C25 UNL     1      17.478  37.543  17.298  1.00  0.00     0.363 C 
HETATM   43  C29 UNL     1      18.347  35.262  17.552  1.00  0.00     0.148 C 
HETATM   44  O5  UNL     1      18.651  38.008  17.281  1.00  0.00    -0.238 OA
BRANCH  42  45
HETATM   45  O6  UNL     1      16.457  38.482  17.178  1.00  0.00    -0.299 OA
BRANCH  45  46
HETATM   46  C26 UNL     1      16.278  39.504  18.168  1.00  0.00     0.125 C 
HETATM   47  C27 UNL     1      15.084  39.082  19.001  1.00  0.00     0.040 C 
HETATM   48  C28 UNL     1      15.868  40.758  17.395  1.00  0.00     0.040 C 
ENDBRANCH  45  46
ENDBRANCH  42  45
ENDBRANCH  34  35
ENDBRANCH   4  34
TORSDOF 17
ENDMDL
MODEL 3
REMARK VINA RESULT: -7.985985867      2.658     12.162
REMARK  17 active torsions:
REMARK  status: ('A' for Active; 'I' for Inactive)
REMARK    1  A    between atoms: C2_2  and  C3_3 
REMARK    2  A    between atoms: C3_3  and  C4_4 
REMARK    3  A    between atoms: C4_4  and  C5_5 
REMARK    4  A    between atoms: C5_5  and  C6_6 
REMARK    5  A    between atoms: C6_6  and  O1_7 
REMARK    6  A    between atoms: O1_7  and  C7_8 
REMARK       I    between atoms: C7_8  and  N1_10 
REMARK       I    between atoms: N2_13  and  C10_14 
REMARK    7  A    between atoms: C10_14  and  C11_16 
REMARK    8  A    between atoms: C11_16  and  C12_17 
REMARK    9  A    between atoms: C14_19  and  C15_20 
REMARK   10  A    between atoms: C15_20  and  C16_21 
REMARK   11  A    between atoms: C16_21  and  C17_22 
REMARK   12  A    between atoms: C17_22  and  N3_23 
REMARK   13  A    between atoms: N3_23  and  C18_25 
REMARK   14  A    between atoms: C20_30  and  C21_31 
REMARK   15  A    between atoms: C21_31  and  C22_32 
REMARK       I    between atoms: C22_32  and  N5_34 
REMARK       I    between atoms: N6_37  and  C25_38 
REMARK   16  A    between atoms: C25_38  and  O6_40 
REMARK   17  A    between atoms: O6_40  and  C26_41 
ROOT
HETATM    1  C12 UNL     1      21.508  29.649  13.066  1.00  0.00     0.131 C 
HETATM    2  C13 UNL     1      22.422  28.508  13.299  1.00  0.00     0.039 C 
HETATM    3  C14 UNL     1      21.920  27.425  12.394  1.00  0.00     0.017 C 
HETATM    4  C20 UNL     1      20.700  28.050  11.772  1.00  0.00     0.134 C 
HETATM    5  O7  UNL     1      20.302  29.064  12.645  1.00  0.00    -0.379 OA
ENDROOT
BRANCH   1   6
HETATM    6  C11 UNL     1      21.374  30.540  14.249  1.00  0.00     0.135 C 
BRANCH   6   7
HETATM    7  C10 UNL     1      20.351  30.235  15.236  1.00  0.00     0.222 C 
HETATM    8  N2  UNL     1      19.508  31.284  15.672  1.00  0.00    -0.349 N 
HETATM    9  C9  UNL     1      19.673  32.611  15.133  1.00  0.00     0.145 C 
HETATM   10  C31 UNL     1      18.483  31.066  16.642  1.00  0.00     0.145 C 
HETATM   11  C8  UNL     1      18.367  32.906  14.381  1.00  0.00     0.148 C 
HETATM   12  N1  UNL     1      17.283  32.775  15.320  1.00  0.00    -0.325 N 
HETATM   13  C7  UNL     1      16.324  33.840  15.483  1.00  0.00     0.362 C 
HETATM   14  C32 UNL     1      17.158  31.562  16.100  1.00  0.00     0.148 C 
HETATM   15  O2  UNL     1      16.466  34.870  14.780  1.00  0.00    -0.238 OA
HETATM   16  O3  UNL     1      20.161  29.112  15.726  1.00  0.00    -0.273 OA
BRANCH  13  17
HETATM   17  O1  UNL     1      15.307  33.676  16.396  1.00  0.00    -0.304 OA
BRANCH  17  18
HETATM   18  C6  UNL     1      15.342  34.255  17.681  1.00  0.00     0.180 C 
BRANCH  18  19
HETATM   19  C5  UNL     1      14.548  35.527  17.744  1.00  0.00     0.027 C 
BRANCH  19  20
HETATM   20  C4  UNL     1      15.230  36.585  18.571  1.00  0.00     0.002 C 
BRANCH  20  21
HETATM   21  C3  UNL     1      16.688  36.643  18.208  1.00  0.00    -0.000 C 
BRANCH  21  22
HETATM   22  C2  UNL     1      16.926  37.586  17.032  1.00  0.00    -0.005 C 
HETATM   23  C1  UNL     1      16.586  39.007  17.397  1.00  0.00     0.005 C 
ENDBRANCH  21  22
ENDBRANCH  20  21
ENDBRANCH  19  20
ENDBRANCH  18  19
ENDBRANCH  17  18
ENDBRANCH  13  17
ENDBRANCH   6   7
ENDBRANCH   1   6
BRANCH   3  24
HETATM   24  C15 UNL     1      22.852  26.833  11.425  1.00  0.00     0.009 C 
BRANCH  24  25
HETATM   25  C16 UNL     1      24.296  26.858  11.578  1.00  0.00     0.020 C 
BRANCH  25  26
HETATM   26  C17 UNL     1      25.177  26.368  10.476  1.00  0.00     0.121 C 
BRANCH  26  27
HETATM   27  N3  UNL     1      24.325  26.288   9.264  1.00  0.00    -0.380 N 
ATOM     28  H3  UNL     1      23.878  27.126   8.893  1.00  0.00     0.160 HD
BRANCH  27  29
HETATM   29  C18 UNL     1      24.140  25.042   8.630  1.00  0.00     0.066 C 
HETATM   30  C19 UNL     1      23.733  25.028   7.203  1.00  0.00     0.088 C 
HETATM   31  N4  UNL     1      24.321  23.962   9.268  1.00  0.00    -0.389 N 
ATOM     32  H42 UNL     1      24.601  23.971  10.249  1.00  0.00     0.157 HD
ATOM     33  H41 UNL     1      24.188  23.060   8.810  1.00  0.00     0.157 HD
ENDBRANCH  27  29
ENDBRANCH  26  27
ENDBRANCH  25  26
ENDBRANCH  24  25
ENDBRANCH   3  24
BRANCH   4  34
HETATM   34  C21 UNL     1      19.601  27.179  11.363  1.00  0.00     0.135 C 
BRANCH  34  35
HETATM   35  C22 UNL     1      18.871  27.485  10.134  1.00  0.00     0.222 C 
HETATM   36  O4  UNL     1      17.906  28.288  10.140  1.00  0.00    -0.273 OA
HETATM   37  N5  UNL     1      19.213  26.892   8.870  1.00  0.00    -0.349 N 
HETATM   38  C23 UNL     1      18.441  27.246   7.715  1.00  0.00     0.145 C 
HETATM   39  C30 UNL     1      20.310  25.959   8.736  1.00  0.00     0.145 C 
HETATM   40  C24 UNL     1      19.047  26.790   6.436  1.00  0.00     0.148 C 
HETATM   41  N6  UNL     1      19.368  25.387   6.543  1.00  0.00    -0.325 N 
HETATM   42  C25 UNL     1      19.028  24.488   5.502  1.00  0.00     0.363 C 
HETATM   43  C29 UNL     1      20.031  24.896   7.704  1.00  0.00     0.148 C 
HETATM   44  O5  UNL     1      19.303  23.259   5.584  1.00  0.00    -0.238 OA
BRANCH  42  45
HETATM   45  O6  UNL     1      18.380  24.882   4.334  1.00  0.00    -0.299 OA
BRANCH  45  46
HETATM   46  C26 UNL     1      17.091  24.351   3.993  1.00  0.00     0.125 C 
HETATM   47  C27 UNL     1      16.770  24.878   2.608  1.00  0.00     0.040 C 
HETATM   48  C28 UNL     1      16.108  25.002   4.965  1.00  0.00     0.040 C 
ENDBRANCH  45  46
ENDBRANCH  42  45
ENDBRANCH  34  35
ENDBRANCH   4  34
TORSDOF 17
ENDMDL
MODEL 4
REMARK VINA RESULT: -7.977622920      2.337      8.109
REMARK  17 active torsions:
REMARK  status: ('A' for Active; 'I' for Inactive)
REMARK    1  A    between atoms: C2_2  and  C3_3 
REMARK    2  A    between atoms: C3_3  and  C4_4 
REMARK    3  A    between atoms: C4_4  and  C5_5 
REMARK    4  A    between atoms: C5_5  and  C6_6 
REMARK    5  A    between atoms: C6_6  and  O1_7 
REMARK    6  A    between atoms: O1_7  and  C7_8 
REMARK       I    between atoms: C7_8  and  N1_10 
REMARK       I    between atoms: N2_13  and  C10_14 
REMARK    7  A    between atoms: C10_14  and  C11_16 
REMARK    8  A    between atoms: C11_16  and  C12_17 
REMARK    9  A    between atoms: C14_19  and  C15_20 
REMARK   10  A    between atoms: C15_20  and  C16_21 
REMARK   11  A    between atoms: C16_21  and  C17_22 
REMARK   12  A    between atoms: C17_22  and  N3_23 
REMARK   13  A    between atoms: N3_23  and  C18_25 
REMARK   14  A    between atoms: C20_30  and  C21_31 
REMARK   15  A    between atoms: C21_31  and  C22_32 
REMARK       I    between atoms: C22_32  and  N5_34 
REMARK       I    between atoms: N6_37  and  C25_38 
REMARK   16  A    between atoms: C25_38  and  O6_40 
REMARK   17  A    between atoms: O6_40  and  C26_41 
ROOT
HETATM    1  C12 UNL     1      20.895  26.693  12.149  1.00  0.00     0.131 C 
HETATM    2  C13 UNL     1      21.835  26.888  11.022  1.00  0.00     0.039 C 
HETATM    3  C14 UNL     1      22.897  27.795  11.563  1.00  0.00     0.017 C 
HETATM    4  C20 UNL     1      22.408  28.088  12.955  1.00  0.00     0.134 C 
HETATM    5  O7  UNL     1      21.032  27.849  12.936  1.00  0.00    -0.379 OA
ENDROOT
BRANCH   1   6
HETATM    6  C11 UNL     1      19.502  26.418  11.707  1.00  0.00     0.135 C 
BRANCH   6   7
HETATM    7  C10 UNL     1      18.650  27.542  11.356  1.00  0.00     0.222 C 
HETATM    8  N2  UNL     1      17.935  28.188  12.391  1.00  0.00    -0.349 N 
HETATM    9  C9  UNL     1      18.069  27.731  13.752  1.00  0.00     0.145 C 
HETATM   10  C31 UNL     1      17.074  29.296  12.126  1.00  0.00     0.145 C 
HETATM   11  C8  UNL     1      18.711  28.903  14.510  1.00  0.00     0.148 C 
HETATM   12  N1  UNL     1      17.855  30.050  14.348  1.00  0.00    -0.325 N 
HETATM   13  C7  UNL     1      17.397  30.789  15.498  1.00  0.00     0.362 C 
HETATM   14  C32 UNL     1      17.457  30.460  13.018  1.00  0.00     0.148 C 
HETATM   15  O2  UNL     1      17.774  30.402  16.632  1.00  0.00    -0.238 OA
HETATM   16  O3  UNL     1      18.504  27.980  10.205  1.00  0.00    -0.273 OA
BRANCH  13  17
HETATM   17  O1  UNL     1      16.575  31.874  15.299  1.00  0.00    -0.304 OA
BRANCH  17  18
HETATM   18  C6  UNL     1      15.616  32.282  16.248  1.00  0.00     0.180 C 
BRANCH  18  19
HETATM   19  C5  UNL     1      15.670  33.761  16.500  1.00  0.00     0.027 C 
BRANCH  19  20
HETATM   20  C4  UNL     1      14.997  34.145  17.792  1.00  0.00     0.002 C 
BRANCH  20  21
HETATM   21  C3  UNL     1      14.679  35.615  17.774  1.00  0.00    -0.000 C 
BRANCH  21  22
HETATM   22  C2  UNL     1      15.328  36.333  18.954  1.00  0.00    -0.005 C 
HETATM   23  C1  UNL     1      15.343  37.823  18.742  1.00  0.00     0.005 C 
ENDBRANCH  21  22
ENDBRANCH  20  21
ENDBRANCH  19  20
ENDBRANCH  18  19
ENDBRANCH  17  18
ENDBRANCH  13  17
ENDBRANCH   6   7
ENDBRANCH   1   6
BRANCH   3  24
HETATM   24  C15 UNL     1      24.296  27.353  11.498  1.00  0.00     0.009 C 
BRANCH  24  25
HETATM   25  C16 UNL     1      24.697  25.992  11.188  1.00  0.00     0.020 C 
BRANCH  25  26
HETATM   26  C17 UNL     1      25.064  25.617   9.790  1.00  0.00     0.121 C 
BRANCH  26  27
HETATM   27  N3  UNL     1      24.415  24.309   9.525  1.00  0.00    -0.380 N 
ATOM     28  H3  UNL     1      24.697  23.478  10.045  1.00  0.00     0.160 HD
BRANCH  27  29
HETATM   29  C18 UNL     1      23.403  24.226   8.545  1.00  0.00     0.066 C 
HETATM   30  C19 UNL     1      23.679  24.779   7.196  1.00  0.00     0.088 C 
HETATM   31  N4  UNL     1      22.286  23.690   8.816  1.00  0.00    -0.389 N 
ATOM     32  H42 UNL     1      22.096  23.310   9.744  1.00  0.00     0.157 HD
ATOM     33  H41 UNL     1      21.555  23.630   8.108  1.00  0.00     0.157 HD
ENDBRANCH  27  29
ENDBRANCH  26  27
ENDBRANCH  25  26
ENDBRANCH  24  25
ENDBRANCH   3  24
BRANCH   4  34
HETATM   34  C21 UNL     1      22.761  29.368  13.564  1.00  0.00     0.135 C 
BRANCH  34  35
HETATM   35  C22 UNL     1      21.818  30.482  13.477  1.00  0.00     0.222 C 
HETATM   36  O4  UNL     1      21.265  30.775  12.389  1.00  0.00    -0.273 OA
HETATM   37  N5  UNL     1      21.477  31.290  14.615  1.00  0.00    -0.349 N 
HETATM   38  C23 UNL     1      20.545  32.366  14.439  1.00  0.00     0.145 C 
HETATM   39  C30 UNL     1      22.043  31.045  15.924  1.00  0.00     0.145 C 
HETATM   40  C24 UNL     1      20.068  32.951  15.720  1.00  0.00     0.148 C 
HETATM   41  N6  UNL     1      21.210  33.268  16.544  1.00  0.00    -0.325 N 
HETATM   42  C25 UNL     1      21.297  34.519  17.205  1.00  0.00     0.363 C 
HETATM   43  C29 UNL     1      22.260  32.319  16.699  1.00  0.00     0.148 C 
HETATM   44  O5  UNL     1      22.291  34.808  17.928  1.00  0.00    -0.238 OA
BRANCH  42  45
HETATM   45  O6  UNL     1      20.317  35.503  17.109  1.00  0.00    -0.299 OA
BRANCH  45  46
HETATM   46  C26 UNL     1      19.667  36.010  18.284  1.00  0.00     0.125 C 
HETATM   47  C27 UNL     1      18.618  34.984  18.664  1.00  0.00     0.040 C 
HETATM   48  C28 UNL     1      18.926  37.269  17.832  1.00  0.00     0.040 C 
ENDBRANCH  45  46
ENDBRANCH  42  45
ENDBRANCH  34  35
ENDBRANCH   4  34
TORSDOF 17
ENDMDL
MODEL 5
REMARK VINA RESULT: -7.940382904      2.668      4.773
REMARK  17 active torsions:
REMARK  status: ('A' for Active; 'I' for Inactive)
REMARK    1  A    between atoms: C2_2  and  C3_3 
REMARK    2  A    between atoms: C3_3  and  C4_4 
REMARK    3  A    between atoms: C4_4  and  C5_5 
REMARK    4  A    between atoms: C5_5  and  C6_6 
REMARK    5  A    between atoms: C6_6  and  O1_7 
REMARK    6  A    between atoms: O1_7  and  C7_8 
REMARK       I    between atoms: C7_8  and  N1_10 
REMARK       I    between atoms: N2_13  and  C10_14 
REMARK    7  A    between atoms: C10_14  and  C11_16 
REMARK    8  A    between atoms: C11_16  and  C12_17 
REMARK    9  A    between atoms: C14_19  and  C15_20 
REMARK   10  A    between atoms: C15_20  and  C16_21 
REMARK   11  A    between atoms: C16_21  and  C17_22 
REMARK   12  A    between atoms: C17_22  and  N3_23 
REMARK   13  A    between atoms: N3_23  and  C18_25 
REMARK   14  A    between atoms: C20_30  and  C21_31 
REMARK   15  A    between atoms: C21_31  and  C22_32 
REMARK       I    between atoms: C22_32  and  N5_34 
REMARK       I    between atoms: N6_37  and  C25_38 
REMARK   16  A    between atoms: C25_38  and  O6_40 
REMARK   17  A    between atoms: O6_40  and  C26_41 
ROOT
HETATM    1  C12 UNL     1      19.472  27.381  12.657  1.00  0.00     0.131 C 
HETATM    2  C13 UNL     1      20.551  27.151  11.670  1.00  0.00     0.039 C 
HETATM    3  C14 UNL     1      21.589  28.183  11.990  1.00  0.00     0.017 C 
HETATM    4  C20 UNL     1      20.951  28.959  13.110  1.00  0.00     0.134 C 
HETATM    5  O7  UNL     1      19.577  28.741  12.994  1.00  0.00    -0.379 OA
ENDROOT
BRANCH   1   6
HETATM    6  C11 UNL     1      18.130  26.977  12.160  1.00  0.00     0.135 C 
BRANCH   6   7
HETATM    7  C10 UNL     1      18.021  25.769  11.360  1.00  0.00     0.222 C 
HETATM    8  N2  UNL     1      17.772  25.904   9.974  1.00  0.00    -0.349 N 
HETATM    9  C9  UNL     1      17.641  27.217   9.391  1.00  0.00     0.145 C 
HETATM   10  C31 UNL     1      17.647  24.765   9.122  1.00  0.00     0.145 C 
HETATM   11  C8  UNL     1      18.817  27.342   8.411  1.00  0.00     0.148 C 
HETATM   12  N1  UNL     1      18.717  26.258   7.468  1.00  0.00    -0.325 N 
HETATM   13  C7  UNL     1      18.735  26.520   6.050  1.00  0.00     0.362 C 
HETATM   14  C32 UNL     1      18.601  24.899   7.953  1.00  0.00     0.148 C 
HETATM   15  O2  UNL     1      18.846  27.713   5.674  1.00  0.00    -0.238 OA
HETATM   16  O3  UNL     1      18.132  24.618  11.808  1.00  0.00    -0.273 OA
BRANCH  13  17
HETATM   17  O1  UNL     1      18.631  25.456   5.183  1.00  0.00    -0.304 OA
BRANCH  17  18
HETATM   18  C6  UNL     1      19.688  25.064   4.335  1.00  0.00     0.180 C 
BRANCH  18  19
HETATM   19  C5  UNL     1      21.007  25.058   5.051  1.00  0.00     0.027 C 
BRANCH  19  20
HETATM   20  C4  UNL     1      22.058  24.278   4.304  1.00  0.00     0.002 C 
BRANCH  20  21
HETATM   21  C3  UNL     1      23.350  24.313   5.072  1.00  0.00    -0.000 C 
BRANCH  21  22
HETATM   22  C2  UNL     1      24.551  24.318   4.129  1.00  0.00    -0.005 C 
HETATM   23  C1  UNL     1      24.112  24.327   2.689  1.00  0.00     0.005 C 
ENDBRANCH  21  22
ENDBRANCH  20  21
ENDBRANCH  19  20
ENDBRANCH  18  19
ENDBRANCH  17  18
ENDBRANCH  13  17
ENDBRANCH   6   7
ENDBRANCH   1   6
BRANCH   3  24
HETATM   24  C15 UNL     1      22.958  27.734  12.273  1.00  0.00     0.009 C 
BRANCH  24  25
HETATM   25  C16 UNL     1      23.508  26.476  11.801  1.00  0.00     0.020 C 
BRANCH  25  26
HETATM   26  C17 UNL     1      24.742  26.464  10.960  1.00  0.00     0.121 C 
BRANCH  26  27
HETATM   27  N3  UNL     1      24.292  26.624   9.555  1.00  0.00    -0.380 N 
ATOM     28  H3  UNL     1      24.206  27.553   9.144  1.00  0.00     0.160 HD
BRANCH  27  29
HETATM   29  C18 UNL     1      23.984  25.477   8.794  1.00  0.00     0.066 C 
HETATM   30  C19 UNL     1      22.556  25.149   8.555  1.00  0.00     0.088 C 
HETATM   31  N4  UNL     1      24.909  24.747   8.325  1.00  0.00    -0.389 N 
ATOM     32  H42 UNL     1      25.891  24.972   8.489  1.00  0.00     0.157 HD
ATOM     33  H41 UNL     1      24.687  23.918   7.775  1.00  0.00     0.157 HD
ENDBRANCH  27  29
ENDBRANCH  26  27
ENDBRANCH  25  26
ENDBRANCH  24  25
ENDBRANCH   3  24
BRANCH   4  34
HETATM   34  C21 UNL     1      21.298  30.370  13.267  1.00  0.00     0.135 C 
BRANCH  34  35
HETATM   35  C22 UNL     1      20.250  31.380  13.131  1.00  0.00     0.222 C 
HETATM   36  O4  UNL     1      20.005  31.911  12.020  1.00  0.00    -0.273 OA
HETATM   37  N5  UNL     1      19.453  31.813  14.245  1.00  0.00    -0.349 N 
HETATM   38  C23 UNL     1      18.448  32.812  14.023  1.00  0.00     0.145 C 
HETATM   39  C30 UNL     1      19.635  31.269  15.574  1.00  0.00     0.145 C 
HETATM   40  C24 UNL     1      17.518  32.981  15.171  1.00  0.00     0.148 C 
HETATM   41  N6  UNL     1      18.291  33.157  16.378  1.00  0.00    -0.325 N 
HETATM   42  C25 UNL     1      17.964  34.183  17.301  1.00  0.00     0.363 C 
HETATM   43  C29 UNL     1      19.392  32.296  16.649  1.00  0.00     0.148 C 
HETATM   44  O5  UNL     1      18.632  34.347  18.359  1.00  0.00    -0.238 OA
BRANCH  42  45
HETATM   45  O6  UNL     1      16.905  35.067  17.115  1.00  0.00    -0.299 OA
BRANCH  45  46
HETATM   46  C26 UNL     1      15.975  35.334  18.175  1.00  0.00     0.125 C 
HETATM   47  C27 UNL     1      14.689  34.626  17.797  1.00  0.00     0.040 C 
HETATM   48  C28 UNL     1      15.700  36.836  18.112  1.00  0.00     0.040 C 
ENDBRANCH  45  46
ENDBRANCH  42  45
ENDBRANCH  34  35
ENDBRANCH   4  34
TORSDOF 17
ENDMDL
