MODEL 1
REMARK VINA RESULT: -8.943236229      0.000      0.000
REMARK  19 active torsions:
REMARK  status: ('A' for Active; 'I' for Inactive)
REMARK    1  A    between atoms: C2_2  and  C3_3 
REMARK    2  A    between atoms: C3_3  and  N1_4 
REMARK    3  A    between atoms: C3_3  and  C9_12 
REMARK       I    between atoms: N1_4  and  C4_5 
REMARK    4  A    between atoms: C4_5  and  O2_7 
REMARK    5  A    between atoms: O2_7  and  C5_8 
REMARK    6  A    between atoms: C9_12  and  C10_14 
REMARK    7  A    between atoms: C10_14  and  O4_15 
REMARK    8  A    between atoms: C15_22  and  O5_23 
REMARK    9  A    between atoms: C15_22  and  N3_25 
REMARK   10  A    between atoms: N3_25  and  C16_26 
REMARK   11  A    between atoms: N3_25  and  C28_43 
REMARK   12  A    between atoms: C16_26  and  C17_27 
REMARK   13  A    between atoms: C17_27  and  C18_29 
REMARK   14  A    between atoms: C18_29  and  C19_30 
REMARK   15  A    between atoms: C18_29  and  N4_33 
REMARK   16  A    between atoms: C19_30  and  C20_31 
REMARK       I    between atoms: N4_33  and  C22_35 
REMARK   17  A    between atoms: C22_35  and  O8_37 
REMARK   18  A    between atoms: O8_37  and  C23_38 
REMARK   19  A    between atoms: C28_43  and  C29_44 
ROOT
HETATM    1  N3  UNL     1      18.636  30.849  15.490  1.00  0.00    -0.353 N 
ENDROOT
BRANCH   1   2
HETATM    2  C15 UNL     1      18.275  32.035  16.143  1.00  0.00     0.162 C 
HETATM    3  C14 UNL     1      17.512  33.132  15.694  1.00  0.00     0.064 C 
HETATM    4  N2  UNL     1      17.254  34.298  16.530  1.00  0.00    -0.324 N 
HETATM    5  C13 UNL     1      17.500  33.687  14.328  1.00  0.00     0.063 C 
HETATM    6  C10 UNL     1      17.740  35.055  17.515  1.00  0.00     0.193 C 
HETATM    7  C11 UNL     1      15.946  34.720  15.810  1.00  0.00     0.131 C 
HETATM    8  C12 UNL     1      16.573  34.933  14.473  1.00  0.00     0.026 C 
BRANCH   6   9
HETATM    9  C9  UNL     1      18.573  35.424  18.571  1.00  0.00     0.239 C 
HETATM   10  O3  UNL     1      18.661  34.717  19.621  1.00  0.00    -0.285 OA
BRANCH   9  11
HETATM   11  C3  UNL     1      19.472  36.685  18.595  1.00  0.00     0.269 C 
BRANCH  11  12
HETATM   12  C2  UNL     1      20.911  36.191  18.518  1.00  0.00     0.010 C 
HETATM   13  C1  UNL     1      21.516  35.897  17.355  1.00  0.00     0.010 C 
ENDBRANCH  11  12
BRANCH  11  14
HETATM   14  N1  UNL     1      19.284  37.646  17.758  1.00  0.00    -0.373 NA
HETATM   15  C4  UNL     1      18.996  38.728  16.811  1.00  0.00     0.436 C 
HETATM   16  O1  UNL     1      17.885  39.098  16.440  1.00  0.00    -0.221 OA
BRANCH  15  17
HETATM   17  O2  UNL     1      19.999  39.404  16.281  1.00  0.00    -0.283 OA
BRANCH  17  18
HETATM   18  C5  UNL     1      20.968  40.064  15.816  1.00  0.00     0.062 C 
HETATM   19  C6  UNL     1      20.873  41.605  15.873  1.00  0.00     0.046 C 
HETATM   20  C7  UNL     1      22.310  39.741  16.556  1.00  0.00     0.046 C 
HETATM   21  C8  UNL     1      21.352  39.745  14.340  1.00  0.00     0.046 C 
ENDBRANCH  17  18
ENDBRANCH  15  17
ENDBRANCH  11  14
ENDBRANCH   9  11
ENDBRANCH   6   9
BRANCH   6  22
HETATM   22  O4  UNL     1      16.864  36.237  17.449  1.00  0.00    -0.343 OA
ATOM     23  H4  UNL     1      16.050  35.829  17.180  1.00  0.00     0.219 HD
ENDBRANCH   6  22
BRANCH   2  24
HETATM   24  O5  UNL     1      18.703  32.089  17.376  1.00  0.00    -0.345 OA
ATOM     25  H5  UNL     1      19.580  32.427  17.505  1.00  0.00     0.219 HD
ENDBRANCH   2  24
ENDBRANCH   1   2
BRANCH   1  26
HETATM   26  C16 UNL     1      17.837  30.122  14.567  1.00  0.00     0.210 C 
BRANCH  26  27
HETATM   27  C17 UNL     1      18.500  29.574  13.331  1.00  0.00     0.189 C 
HETATM   28  O6  UNL     1      18.887  30.389  12.507  1.00  0.00    -0.289 OA
BRANCH  27  29
HETATM   29  C18 UNL     1      18.768  28.189  12.976  1.00  0.00     0.061 C 
BRANCH  29  30
HETATM   30  C19 UNL     1      17.777  27.127  13.082  1.00  0.00     0.061 C 
BRANCH  30  31
HETATM   31  C20 UNL     1      18.012  26.055  11.996  1.00  0.00     0.002 C 
HETATM   32  C21 UNL     1      17.788  26.629  10.630  1.00  0.00     0.005 C 
ENDBRANCH  30  31
ENDBRANCH  29  30
BRANCH  29  33
HETATM   33  N4  UNL     1      20.151  27.826  13.180  1.00  0.00    -0.303 N 
HETATM   34  C22 UNL     1      21.177  27.827  12.248  1.00  0.00     0.365 C 
HETATM   35  O7  UNL     1      20.967  28.186  11.060  1.00  0.00    -0.238 OA
ATOM     36  H4  UNL     1      20.402  27.533  14.123  1.00  0.00     0.171 HD
BRANCH  34  37
HETATM   37  O8  UNL     1      22.457  27.433  12.588  1.00  0.00    -0.298 OA
BRANCH  37  38
HETATM   38  C23 UNL     1      23.359  27.114  11.546  1.00  0.00     0.133 C 
HETATM   39  C24 UNL     1      23.203  25.592  11.218  1.00  0.00     0.032 C 
HETATM   40  C25 UNL     1      24.501  25.276  10.516  1.00  0.00     0.002 C 
HETATM   41  C26 UNL     1      25.460  26.333  10.926  1.00  0.00     0.002 C 
HETATM   42  C27 UNL     1      24.767  27.152  12.007  1.00  0.00     0.032 C 
ENDBRANCH  37  38
ENDBRANCH  34  37
ENDBRANCH  29  33
ENDBRANCH  27  29
ENDBRANCH  26  27
ENDBRANCH   1  26
BRANCH   1  43
HETATM   43  C28 UNL     1      19.978  30.317  15.817  1.00  0.00     0.130 C 
BRANCH  43  44
HETATM   44  C29 UNL     1      21.135  31.133  15.436  1.00  0.00     0.004 C 
HETATM   45  C30 UNL     1      20.884  32.260  14.441  1.00  0.00     0.006 C 
HETATM   46  C31 UNL     1      22.267  32.465  13.768  1.00  0.00     0.000 C 
HETATM   47  C32 UNL     1      23.396  32.302  14.741  1.00  0.00     0.000 C 
HETATM   48  C33 UNL     1      22.941  32.670  16.119  1.00  0.00     0.000 C 
HETATM   49  C34 UNL     1      21.753  31.890  16.620  1.00  0.00     0.006 C 
ENDBRANCH  43  44
ENDBRANCH   1  43
TORSDOF 19
ENDMDL
MODEL 2
REMARK VINA RESULT: -8.918393526      1.744      4.018
REMARK  19 active torsions:
REMARK  status: ('A' for Active; 'I' for Inactive)
REMARK    1  A    between atoms: C2_2  and  C3_3 
REMARK    2  A    between atoms: C3_3  and  N1_4 
REMARK    3  A    between atoms: C3_3  and  C9_12 
REMARK       I    between atoms: N1_4  and  C4_5 
REMARK    4  A    between atoms: C4_5  and  O2_7 
REMARK    5  A    between atoms: O2_7  and  C5_8 
REMARK    6  A    between atoms: C9_12  and  C10_14 
REMARK    7  A    between atoms: C10_14  and  O4_15 
REMARK    8  A    between atoms: C15_22  and  O5_23 
REMARK    9  A    between atoms: C15_22  and  N3_25 
REMARK   10  A    between atoms: N3_25  and  C16_26 
REMARK   11  A    between atoms: N3_25  and  C28_43 
REMARK   12  A    between atoms: C16_26  and  C17_27 
REMARK   13  A    between atoms: C17_27  and  C18_29 
REMARK   14  A    between atoms: C18_29  and  C19_30 
REMARK   15  A    between atoms: C18_29  and  N4_33 
REMARK   16  A    between atoms: C19_30  and  C20_31 
REMARK       I    between atoms: N4_33  and  C22_35 
REMARK   17  A    between atoms: C22_35  and  O8_37 
REMARK   18  A    between atoms: O8_37  and  C23_38 
REMARK   19  A    between atoms: C28_43  and  C29_44 
ROOT
HETATM    1  N3  UNL     1      18.705  31.659  14.726  1.00  0.00    -0.353 N 
ENDROOT
BRANCH   1   2
HETATM    2  C15 UNL     1      18.506  32.457  15.859  1.00  0.00     0.162 C 
HETATM    3  C14 UNL     1      17.349  33.113  16.326  1.00  0.00     0.064 C 
HETATM    4  N2  UNL     1      17.344  33.923  17.538  1.00  0.00    -0.324 N 
HETATM    5  C13 UNL     1      16.309  33.747  15.494  1.00  0.00     0.063 C 
HETATM    6  C10 UNL     1      18.088  34.704  18.323  1.00  0.00     0.193 C 
HETATM    7  C11 UNL     1      15.828  33.762  17.828  1.00  0.00     0.131 C 
HETATM    8  C12 UNL     1      15.366  34.391  16.556  1.00  0.00     0.026 C 
BRANCH   6   9
HETATM    9  C9  UNL     1      19.240  35.298  18.835  1.00  0.00     0.239 C 
HETATM   10  O3  UNL     1      19.886  34.773  19.793  1.00  0.00    -0.285 OA
BRANCH   9  11
HETATM   11  C3  UNL     1      19.866  36.617  18.316  1.00  0.00     0.269 C 
BRANCH  11  12
HETATM   12  C2  UNL     1      20.881  36.224  17.250  1.00  0.00     0.010 C 
HETATM   13  C1  UNL     1      22.207  36.296  17.450  1.00  0.00     0.010 C 
ENDBRANCH  11  12
BRANCH  11  14
HETATM   14  N1  UNL     1      19.121  37.579  17.892  1.00  0.00    -0.373 NA
HETATM   15  C4  UNL     1      18.319  38.679  17.348  1.00  0.00     0.436 C 
HETATM   16  O1  UNL     1      18.504  39.263  16.284  1.00  0.00    -0.221 OA
BRANCH  15  17
HETATM   17  O2  UNL     1      17.279  39.118  18.034  1.00  0.00    -0.283 OA
BRANCH  17  18
HETATM   18  C5  UNL     1      16.258  39.520  18.658  1.00  0.00     0.062 C 
HETATM   19  C6  UNL     1      16.482  40.189  20.031  1.00  0.00     0.046 C 
HETATM   20  C7  UNL     1      15.453  40.589  17.844  1.00  0.00     0.046 C 
HETATM   21  C8  UNL     1      15.161  38.445  18.915  1.00  0.00     0.046 C 
ENDBRANCH  17  18
ENDBRANCH  15  17
ENDBRANCH  11  14
ENDBRANCH   9  11
ENDBRANCH   6   9
BRANCH   6  22
HETATM   22  O4  UNL     1      17.067  35.339  19.173  1.00  0.00    -0.343 OA
ATOM     23  H4  UNL     1      16.399  34.664  19.167  1.00  0.00     0.219 HD
ENDBRANCH   6  22
BRANCH   2  24
HETATM   24  O5  UNL     1      19.576  32.567  16.601  1.00  0.00    -0.345 OA
ATOM     25  H5  UNL     1      20.397  32.311  16.198  1.00  0.00     0.219 HD
ENDBRANCH   2  24
ENDBRANCH   1   2
BRANCH   1  26
HETATM   26  C16 UNL     1      19.074  32.115  13.431  1.00  0.00     0.210 C 
BRANCH  26  27
HETATM   27  C17 UNL     1      20.341  31.576  12.822  1.00  0.00     0.189 C 
HETATM   28  O6  UNL     1      20.441  31.643  11.606  1.00  0.00    -0.289 OA
BRANCH  27  29
HETATM   29  C18 UNL     1      21.497  30.991  13.486  1.00  0.00     0.061 C 
BRANCH  29  30
HETATM   30  C19 UNL     1      22.559  31.783  14.093  1.00  0.00     0.061 C 
BRANCH  30  31
HETATM   31  C20 UNL     1      22.540  31.627  15.629  1.00  0.00     0.002 C 
HETATM   32  C21 UNL     1      23.033  32.876  16.293  1.00  0.00     0.005 C 
ENDBRANCH  30  31
ENDBRANCH  29  30
BRANCH  29  33
HETATM   33  N4  UNL     1      21.863  29.711  12.929  1.00  0.00    -0.303 N 
HETATM   34  C22 UNL     1      21.815  28.470  13.545  1.00  0.00     0.365 C 
HETATM   35  O7  UNL     1      21.403  28.355  14.729  1.00  0.00    -0.238 OA
ATOM     36  H4  UNL     1      22.197  29.720  11.966  1.00  0.00     0.171 HD
BRANCH  34  37
HETATM   37  O8  UNL     1      22.218  27.324  12.887  1.00  0.00    -0.298 OA
BRANCH  37  38
HETATM   38  C23 UNL     1      23.139  27.451  11.821  1.00  0.00     0.133 C 
HETATM   39  C24 UNL     1      22.841  26.319  10.783  1.00  0.00     0.032 C 
HETATM   40  C25 UNL     1      24.136  26.234  10.013  1.00  0.00     0.002 C 
HETATM   41  C26 UNL     1      25.177  26.828  10.890  1.00  0.00     0.002 C 
HETATM   42  C27 UNL     1      24.515  27.087  12.236  1.00  0.00     0.032 C 
ENDBRANCH  37  38
ENDBRANCH  34  37
ENDBRANCH  29  33
ENDBRANCH  27  29
ENDBRANCH  26  27
ENDBRANCH   1  26
BRANCH   1  43
HETATM   43  C28 UNL     1      18.495  30.206  14.916  1.00  0.00     0.130 C 
BRANCH  43  44
HETATM   44  C29 UNL     1      18.266  29.398  13.715  1.00  0.00     0.004 C 
HETATM   45  C30 UNL     1      17.973  27.917  13.927  1.00  0.00     0.006 C 
HETATM   46  C31 UNL     1      18.429  27.261  12.597  1.00  0.00     0.000 C 
HETATM   47  C32 UNL     1      18.117  28.121  11.409  1.00  0.00     0.000 C 
HETATM   48  C33 UNL     1      16.916  28.969  11.693  1.00  0.00     0.000 C 
HETATM   49  C34 UNL     1      17.039  29.849  12.910  1.00  0.00     0.006 C 
ENDBRANCH  43  44
ENDBRANCH   1  43
TORSDOF 19
ENDMDL
MODEL 3
REMARK VINA RESULT: -8.873275575      2.778     10.742
REMARK  19 active torsions:
REMARK  status: ('A' for Active; 'I' for Inactive)
REMARK    1  A    between atoms: C2_2  and  C3_3 
REMARK    2  A    between atoms: C3_3  and  N1_4 
REMARK    3  A    between atoms: C3_3  and  C9_12 
REMARK       I    between atoms: N1_4  and  C4_5 
REMARK    4  A    between atoms: C4_5  and  O2_7 
REMARK    5  A    between atoms: O2_7  and  C5_8 
REMARK    6  A    between atoms: C9_12  and  C10_14 
REMARK    7  A    between atoms: C10_14  and  O4_15 
REMARK    8  A    between atoms: C15_22  and  O5_23 
REMARK    9  A    between atoms: C15_22  and  N3_25 
REMARK   10  A    between atoms: N3_25  and  C16_26 
REMARK   11  A    between atoms: N3_25  and  C28_43 
REMARK   12  A    between atoms: C16_26  and  C17_27 
REMARK   13  A    between atoms: C17_27  and  C18_29 
REMARK   14  A    between atoms: C18_29  and  C19_30 
REMARK   15  A    between atoms: C18_29  and  N4_33 
REMARK   16  A    between atoms: C19_30  and  C20_31 
REMARK       I    between atoms: N4_33  and  C22_35 
REMARK   17  A    between atoms: C22_35  and  O8_37 
REMARK   18  A    between atoms: O8_37  and  C23_38 
REMARK   19  A    between atoms: C28_43  and  C29_44 
ROOT
HETATM    1  N3  UNL     1      19.038  30.130  14.630  1.00  0.00    -0.353 N 
ENDROOT
BRANCH   1   2
HETATM    2  C15 UNL     1      19.244  28.975  13.866  1.00  0.00     0.162 C 
HETATM    3  C14 UNL     1      20.315  28.612  13.024  1.00  0.00     0.064 C 
HETATM    4  N2  UNL     1      20.341  27.353  12.290  1.00  0.00    -0.324 N 
HETATM    5  C13 UNL     1      21.095  29.521  12.163  1.00  0.00     0.063 C 
HETATM    6  C10 UNL     1      19.585  26.423  11.705  1.00  0.00     0.193 C 
HETATM    7  C11 UNL     1      21.886  27.273  12.172  1.00  0.00     0.131 C 
HETATM    8  C12 UNL     1      22.044  28.543  11.403  1.00  0.00     0.026 C 
BRANCH   6   9
HETATM    9  C9  UNL     1      18.426  25.724  11.369  1.00  0.00     0.239 C 
HETATM   10  O3  UNL     1      18.030  24.731  12.053  1.00  0.00    -0.285 OA
BRANCH   9  11
HETATM   11  C3  UNL     1      17.500  26.061  10.174  1.00  0.00     0.269 C 
BRANCH  11  12
HETATM   12  C2  UNL     1      17.630  27.561   9.936  1.00  0.00     0.010 C 
HETATM   13  C1  UNL     1      16.968  28.470  10.670  1.00  0.00     0.010 C 
ENDBRANCH  11  12
BRANCH  11  14
HETATM   14  N1  UNL     1      17.601  25.421   9.059  1.00  0.00    -0.373 NA
HETATM   15  C4  UNL     1      17.707  24.629   7.830  1.00  0.00     0.436 C 
HETATM   16  O1  UNL     1      17.618  23.408   7.737  1.00  0.00    -0.221 OA
BRANCH  15  17
HETATM   17  O2  UNL     1      17.914  25.248   6.681  1.00  0.00    -0.283 OA
BRANCH  17  18
HETATM   18  C5  UNL     1      18.153  25.845   5.596  1.00  0.00     0.062 C 
HETATM   19  C6  UNL     1      19.240  25.244   4.678  1.00  0.00     0.046 C 
HETATM   20  C7  UNL     1      16.887  25.928   4.677  1.00  0.00     0.046 C 
HETATM   21  C8  UNL     1      18.532  27.350   5.726  1.00  0.00     0.046 C 
ENDBRANCH  17  18
ENDBRANCH  15  17
ENDBRANCH  11  14
ENDBRANCH   9  11
ENDBRANCH   6   9
BRANCH   6  22
HETATM   22  O4  UNL     1      20.581  25.665  10.930  1.00  0.00    -0.343 OA
ATOM     23  H4  UNL     1      20.097  25.526  10.125  1.00  0.00     0.219 HD
ENDBRANCH   6  22
BRANCH   2  24
HETATM   24  O5  UNL     1      18.287  28.096  14.000  1.00  0.00    -0.345 OA
ATOM     25  H5  UNL     1      17.444  28.330  13.631  1.00  0.00     0.219 HD
ENDBRANCH   2  24
ENDBRANCH   1   2
BRANCH   1  26
HETATM   26  C16 UNL     1      18.016  31.098  14.431  1.00  0.00     0.210 C 
BRANCH  26  27
HETATM   27  C17 UNL     1      17.223  31.551  15.629  1.00  0.00     0.189 C 
HETATM   28  O6  UNL     1      16.614  30.689  16.244  1.00  0.00    -0.289 OA
BRANCH  27  29
HETATM   29  C18 UNL     1      17.091  32.890  16.182  1.00  0.00     0.061 C 
BRANCH  29  30
HETATM   30  C19 UNL     1      15.859  33.666  16.118  1.00  0.00     0.061 C 
BRANCH  30  31
HETATM   31  C20 UNL     1      15.186  33.730  17.505  1.00  0.00     0.002 C 
HETATM   32  C21 UNL     1      14.615  35.093  17.754  1.00  0.00     0.005 C 
ENDBRANCH  30  31
ENDBRANCH  29  30
BRANCH  29  33
HETATM   33  N4  UNL     1      18.335  33.621  16.161  1.00  0.00    -0.303 N 
HETATM   34  C22 UNL     1      18.941  34.301  17.206  1.00  0.00     0.365 C 
HETATM   35  O7  UNL     1      18.415  34.322  18.350  1.00  0.00    -0.238 OA
ATOM     36  H4  UNL     1      18.828  33.640  15.269  1.00  0.00     0.171 HD
BRANCH  34  37
HETATM   37  O8  UNL     1      20.134  34.976  17.030  1.00  0.00    -0.298 OA
BRANCH  37  38
HETATM   38  C23 UNL     1      20.674  35.681  18.131  1.00  0.00     0.133 C 
HETATM   39  C24 UNL     1      21.604  36.809  17.577  1.00  0.00     0.032 C 
HETATM   40  C25 UNL     1      22.480  37.123  18.765  1.00  0.00     0.002 C 
HETATM   41  C26 UNL     1      22.417  35.931  19.649  1.00  0.00     0.002 C 
HETATM   42  C27 UNL     1      21.654  34.860  18.882  1.00  0.00     0.032 C 
ENDBRANCH  37  38
ENDBRANCH  34  37
ENDBRANCH  29  33
ENDBRANCH  27  29
ENDBRANCH  26  27
ENDBRANCH   1  26
BRANCH   1  43
HETATM   43  C28 UNL     1      19.994  30.348  15.739  1.00  0.00     0.130 C 
BRANCH  43  44
HETATM   44  C29 UNL     1      21.177  31.166  15.453  1.00  0.00     0.004 C 
HETATM   45  C30 UNL     1      20.995  32.323  14.477  1.00  0.00     0.006 C 
HETATM   46  C31 UNL     1      22.417  32.537  13.897  1.00  0.00     0.000 C 
HETATM   47  C32 UNL     1      23.484  32.339  14.932  1.00  0.00     0.000 C 
HETATM   48  C33 UNL     1      22.946  32.670  16.290  1.00  0.00     0.000 C 
HETATM   49  C34 UNL     1      21.725  31.885  16.694  1.00  0.00     0.006 C 
ENDBRANCH  43  44
ENDBRANCH   1  43
TORSDOF 19
ENDMDL
MODEL 4
REMARK VINA RESULT: -8.862019620      2.471      5.898
REMARK  19 active torsions:
REMARK  status: ('A' for Active; 'I' for Inactive)
REMARK    1  A    between atoms: C2_2  and  C3_3 
REMARK    2  A    between atoms: C3_3  and  N1_4 
REMARK    3  A    between atoms: C3_3  and  C9_12 
REMARK       I    between atoms: N1_4  and  C4_5 
REMARK    4  A    between atoms: C4_5  and  O2_7 
REMARK    5  A    between atoms: O2_7  and  C5_8 
REMARK    6  A    between atoms: C9_12  and  C10_14 
REMARK    7  A    between atoms: C10_14  and  O4_15 
REMARK    8  A    between atoms: C15_22  and  O5_23 
REMARK    9  A    between atoms: C15_22  and  N3_25 
REMARK   10  A    between atoms: N3_25  and  C16_26 
REMARK   11  A    between atoms: N3_25  and  C28_43 
REMARK   12  A    between atoms: C16_26  and  C17_27 
REMARK   13  A    between atoms: C17_27  and  C18_29 
REMARK   14  A    between atoms: C18_29  and  C19_30 
REMARK   15  A    between atoms: C18_29  and  N4_33 
REMARK   16  A    between atoms: C19_30  and  C20_31 
REMARK       I    between atoms: N4_33  and  C22_35 
REMARK   17  A    between atoms: C22_35  and  O8_37 
REMARK   18  A    between atoms: O8_37  and  C23_38 
REMARK   19  A    between atoms: C28_43  and  C29_44 
ROOT
HETATM    1  N3  UNL     1      20.552  28.951  12.419  1.00  0.00    -0.353 N 
ENDROOT
BRANCH   1   2
HETATM    2  C15 UNL     1      20.367  30.218  12.987  1.00  0.00     0.162 C 
HETATM    3  C14 UNL     1      21.253  31.032  13.721  1.00  0.00     0.064 C 
HETATM    4  N2  UNL     1      20.863  32.334  14.250  1.00  0.00    -0.324 N 
HETATM    5  C13 UNL     1      22.271  30.569  14.682  1.00  0.00     0.063 C 
HETATM    6  C10 UNL     1      19.839  33.054  14.712  1.00  0.00     0.193 C 
HETATM    7  C11 UNL     1      22.298  32.920  14.296  1.00  0.00     0.131 C 
HETATM    8  C12 UNL     1      22.845  31.906  15.244  1.00  0.00     0.026 C 
BRANCH   6   9
HETATM    9  C9  UNL     1      18.513  33.390  14.981  1.00  0.00     0.239 C 
HETATM   10  O3  UNL     1      17.766  33.897  14.089  1.00  0.00    -0.285 OA
BRANCH   9  11
HETATM   11  C3  UNL     1      17.803  33.187  16.342  1.00  0.00     0.269 C 
BRANCH  11  12
HETATM   12  C2  UNL     1      17.950  31.711  16.690  1.00  0.00     0.010 C 
HETATM   13  C1  UNL     1      17.383  30.734  15.963  1.00  0.00     0.010 C 
ENDBRANCH  11  12
BRANCH  11  14
HETATM   14  N1  UNL     1      18.103  33.919  17.359  1.00  0.00    -0.373 NA
HETATM   15  C4  UNL     1      18.370  34.763  18.528  1.00  0.00     0.436 C 
HETATM   16  O1  UNL     1      17.533  35.299  19.250  1.00  0.00    -0.221 OA
BRANCH  15  17
HETATM   17  O2  UNL     1      19.621  34.994  18.883  1.00  0.00    -0.283 OA
BRANCH  17  18
HETATM   18  C5  UNL     1      20.801  35.236  19.258  1.00  0.00     0.062 C 
HETATM   19  C6  UNL     1      21.158  34.921  20.728  1.00  0.00     0.046 C 
HETATM   20  C7  UNL     1      21.859  34.428  18.432  1.00  0.00     0.046 C 
HETATM   21  C8  UNL     1      21.293  36.697  19.035  1.00  0.00     0.046 C 
ENDBRANCH  17  18
ENDBRANCH  15  17
ENDBRANCH  11  14
ENDBRANCH   9  11
ENDBRANCH   6   9
BRANCH   6  22
HETATM   22  O4  UNL     1      20.529  34.203  15.323  1.00  0.00    -0.343 OA
ATOM     23  H4  UNL     1      21.336  34.201  14.822  1.00  0.00     0.219 HD
ENDBRANCH   6  22
BRANCH   2  24
HETATM   24  O5  UNL     1      19.179  30.712  12.756  1.00  0.00    -0.345 OA
ATOM     25  H5  UNL     1      18.621  30.214  12.171  1.00  0.00     0.219 HD
ENDBRANCH   2  24
ENDBRANCH   1   2
BRANCH   1  26
HETATM   26  C16 UNL     1      21.587  28.578  11.519  1.00  0.00     0.210 C 
BRANCH  26  27
HETATM   27  C17 UNL     1      22.650  27.632  12.011  1.00  0.00     0.189 C 
HETATM   28  O6  UNL     1      23.295  27.986  12.986  1.00  0.00    -0.289 OA
BRANCH  27  29
HETATM   29  C18 UNL     1      23.015  26.321  11.495  1.00  0.00     0.061 C 
BRANCH  29  30
HETATM   30  C19 UNL     1      24.366  25.779  11.566  1.00  0.00     0.061 C 
BRANCH  30  31
HETATM   31  C20 UNL     1      25.272  26.442  10.506  1.00  0.00     0.002 C 
HETATM   32  C21 UNL     1      25.215  25.685   9.214  1.00  0.00     0.005 C 
ENDBRANCH  30  31
ENDBRANCH  29  30
BRANCH  29  33
HETATM   33  N4  UNL     1      22.203  25.926  10.369  1.00  0.00    -0.303 N 
HETATM   34  C22 UNL     1      21.361  24.829  10.271  1.00  0.00     0.365 C 
HETATM   35  O7  UNL     1      21.220  24.038  11.240  1.00  0.00    -0.238 OA
ATOM     36  H4  UNL     1      22.255  26.526   9.546  1.00  0.00     0.171 HD
BRANCH  34  37
HETATM   37  O8  UNL     1      20.653  24.566   9.113  1.00  0.00    -0.298 OA
BRANCH  37  38
HETATM   38  C23 UNL     1      21.167  25.054   7.889  1.00  0.00     0.133 C 
HETATM   39  C24 UNL     1      19.998  25.082   6.849  1.00  0.00     0.032 C 
HETATM   40  C25 UNL     1      20.734  25.106   5.532  1.00  0.00     0.002 C 
HETATM   41  C26 UNL     1      22.094  24.578   5.810  1.00  0.00     0.002 C 
HETATM   42  C27 UNL     1      22.080  24.078   7.248  1.00  0.00     0.032 C 
ENDBRANCH  37  38
ENDBRANCH  34  37
ENDBRANCH  29  33
ENDBRANCH  27  29
ENDBRANCH  26  27
ENDBRANCH   1  26
BRANCH   1  43
HETATM   43  C28 UNL     1      19.557  27.923  12.798  1.00  0.00     0.130 C 
BRANCH  43  44
HETATM   44  C29 UNL     1      18.787  27.303  11.716  1.00  0.00     0.004 C 
HETATM   45  C30 UNL     1      17.866  26.151  12.099  1.00  0.00     0.006 C 
HETATM   46  C31 UNL     1      17.741  25.333  10.787  1.00  0.00     0.000 C 
HETATM   47  C32 UNL     1      17.690  26.215   9.576  1.00  0.00     0.000 C 
HETATM   48  C33 UNL     1      17.095  27.542   9.934  1.00  0.00     0.000 C 
HETATM   49  C34 UNL     1      17.810  28.275  11.039  1.00  0.00     0.006 C 
ENDBRANCH  43  44
ENDBRANCH   1  43
TORSDOF 19
ENDMDL
MODEL 5
REMARK VINA RESULT: -8.852744697      3.662      7.988
REMARK  19 active torsions:
REMARK  status: ('A' for Active; 'I' for Inactive)
REMARK    1  A    between atoms: C2_2  and  C3_3 
REMARK    2  A    between atoms: C3_3  and  N1_4 
REMARK    3  A    between atoms: C3_3  and  C9_12 
REMARK       I    between atoms: N1_4  and  C4_5 
REMARK    4  A    between atoms: C4_5  and  O2_7 
REMARK    5  A    between atoms: O2_7  and  C5_8 
REMARK    6  A    between atoms: C9_12  and  C10_14 
REMARK    7  A    between atoms: C10_14  and  O4_15 
REMARK    8  A    between atoms: C15_22  and  O5_23 
REMARK    9  A    between atoms: C15_22  and  N3_25 
REMARK   10  A    between atoms: N3_25  and  C16_26 
REMARK   11  A    between atoms: N3_25  and  C28_43 
REMARK   12  A    between atoms: C16_26  and  C17_27 
REMARK   13  A    between atoms: C17_27  and  C18_29 
REMARK   14  A    between atoms: C18_29  and  C19_30 
REMARK   15  A    between atoms: C18_29  and  N4_33 
REMARK   16  A    between atoms: C19_30  and  C20_31 
REMARK       I    between atoms: N4_33  and  C22_35 
REMARK   17  A    between atoms: C22_35  and  O8_37 
REMARK   18  A    between atoms: O8_37  and  C23_38 
REMARK   19  A    between atoms: C28_43  and  C29_44 
ROOT
HETATM    1  N3  UNL     1      20.014  26.378   9.622  1.00  0.00    -0.353 N 
ENDROOT
BRANCH   1   2
HETATM    2  C15 UNL     1      19.756  27.387  10.560  1.00  0.00     0.162 C 
HETATM    3  C14 UNL     1      18.536  27.926  11.013  1.00  0.00     0.064 C 
HETATM    4  N2  UNL     1      18.473  28.999  11.998  1.00  0.00    -0.324 N 
HETATM    5  C13 UNL     1      17.322  28.141  10.204  1.00  0.00     0.063 C 
HETATM    6  C10 UNL     1      19.109  30.069  12.479  1.00  0.00     0.193 C 
HETATM    7  C11 UNL     1      17.051  28.654  12.515  1.00  0.00     0.131 C 
HETATM    8  C12 UNL     1      16.363  28.855  11.206  1.00  0.00     0.026 C 
BRANCH   6   9
HETATM    9  C9  UNL     1      20.158  30.964  12.685  1.00  0.00     0.239 C 
HETATM   10  O3  UNL     1      20.726  31.552  11.714  1.00  0.00    -0.285 OA
BRANCH   9  11
HETATM   11  C3  UNL     1      20.737  31.351  14.068  1.00  0.00     0.269 C 
BRANCH  11  12
HETATM   12  C2  UNL     1      22.227  31.596  13.861  1.00  0.00     0.010 C 
HETATM   13  C1  UNL     1      23.023  32.081  14.828  1.00  0.00     0.010 C 
ENDBRANCH  11  12
BRANCH  11  14
HETATM   14  N1  UNL     1      20.218  32.310  14.756  1.00  0.00    -0.373 NA
HETATM   15  C4  UNL     1      19.697  33.422  15.557  1.00  0.00     0.436 C 
HETATM   16  O1  UNL     1      20.360  34.263  16.158  1.00  0.00    -0.221 OA
BRANCH  15  17
HETATM   17  O2  UNL     1      18.391  33.580  15.667  1.00  0.00    -0.283 OA
BRANCH  17  18
HETATM   18  C5  UNL     1      17.139  33.689  15.790  1.00  0.00     0.062 C 
HETATM   19  C6  UNL     1      16.301  32.394  15.715  1.00  0.00     0.046 C 
HETATM   20  C7  UNL     1      16.735  34.320  17.166  1.00  0.00     0.046 C 
HETATM   21  C8  UNL     1      16.449  34.667  14.794  1.00  0.00     0.046 C 
ENDBRANCH  17  18
ENDBRANCH  15  17
ENDBRANCH  11  14
ENDBRANCH   9  11
ENDBRANCH   6   9
BRANCH   6  22
HETATM   22  O4  UNL     1      18.058  30.707  13.289  1.00  0.00    -0.343 OA
ATOM     23  H4  UNL     1      17.284  30.399  12.834  1.00  0.00     0.219 HD
ENDBRANCH   6  22
BRANCH   2  24
HETATM   24  O5  UNL     1      20.843  27.863  11.108  1.00  0.00    -0.345 OA
ATOM     25  H5  UNL     1      21.660  27.453  10.852  1.00  0.00     0.219 HD
ENDBRANCH   2  24
ENDBRANCH   1   2
BRANCH   1  26
HETATM   26  C16 UNL     1      20.566  25.098   9.897  1.00  0.00     0.210 C 
BRANCH  26  27
HETATM   27  C17 UNL     1      21.954  25.032  10.478  1.00  0.00     0.189 C 
HETATM   28  O6  UNL     1      22.040  24.986  11.695  1.00  0.00    -0.289 OA
BRANCH  27  29
HETATM   29  C18 UNL     1      23.233  24.996   9.785  1.00  0.00     0.061 C 
BRANCH  29  30
HETATM   30  C19 UNL     1      24.505  25.284  10.434  1.00  0.00     0.061 C 
BRANCH  30  31
HETATM   31  C20 UNL     1      24.711  26.808  10.570  1.00  0.00     0.002 C 
HETATM   32  C21 UNL     1      24.797  27.203  12.013  1.00  0.00     0.005 C 
ENDBRANCH  30  31
ENDBRANCH  29  30
BRANCH  29  33
HETATM   33  N4  UNL     1      23.113  25.336   8.387  1.00  0.00    -0.303 N 
HETATM   34  C22 UNL     1      23.544  24.602   7.293  1.00  0.00     0.365 C 
HETATM   35  O7  UNL     1      24.108  23.487   7.448  1.00  0.00    -0.238 OA
ATOM     36  H4  UNL     1      22.655  26.223   8.179  1.00  0.00     0.171 HD
BRANCH  34  37
HETATM   37  O8  UNL     1      23.374  25.067   6.003  1.00  0.00    -0.298 OA
BRANCH  37  38
HETATM   38  C23 UNL     1      22.624  24.278   5.099  1.00  0.00     0.133 C 
HETATM   39  C24 UNL     1      23.305  24.369   3.694  1.00  0.00     0.032 C 
HETATM   40  C25 UNL     1      22.191  23.953   2.765  1.00  0.00     0.002 C 
HETATM   41  C26 UNL     1      20.927  24.170   3.514  1.00  0.00     0.002 C 
HETATM   42  C27 UNL     1      21.304  24.883   4.805  1.00  0.00     0.032 C 
ENDBRANCH  37  38
ENDBRANCH  34  37
ENDBRANCH  29  33
ENDBRANCH  27  29
ENDBRANCH  26  27
ENDBRANCH   1  26
BRANCH   1  43
HETATM   43  C28 UNL     1      19.682  26.705   8.217  1.00  0.00     0.130 C 
BRANCH  43  44
HETATM   44  C29 UNL     1      18.804  25.774   7.502  1.00  0.00     0.004 C 
HETATM   45  C30 UNL     1      17.535  25.332   8.222  1.00  0.00     0.006 C 
HETATM   46  C31 UNL     1      17.211  23.958   7.580  1.00  0.00     0.000 C 
HETATM   47  C32 UNL     1      17.515  23.937   6.111  1.00  0.00     0.000 C 
HETATM   48  C33 UNL     1      17.376  25.315   5.541  1.00  0.00     0.000 C 
HETATM   49  C34 UNL     1      18.238  26.360   6.200  1.00  0.00     0.006 C 
ENDBRANCH  43  44
ENDBRANCH   1  43
TORSDOF 19
ENDMDL
