MODEL 1
REMARK VINA RESULT: -8.659552334      0.000      0.000
REMARK  18 active torsions:
REMARK  status: ('A' for Active; 'I' for Inactive)
REMARK    1  A    between atoms: O1_2  and  C2_3 
REMARK       I    between atoms: C2_3  and  N1_5 
REMARK    2  A    between atoms: N1_5  and  C3_6 
REMARK    3  A    between atoms: N1_5  and  C13_20 
REMARK    4  A    between atoms: C3_6  and  C4_7 
REMARK    5  A    between atoms: C4_7  and  N2_8 
REMARK       I    between atoms: N2_8  and  C5_10 
REMARK    6  A    between atoms: C5_10  and  C6_12 
REMARK    7  A    between atoms: C6_12  and  N3_14 
REMARK    8  A    between atoms: C13_20  and  C14_21 
REMARK    9  A    between atoms: C13_20  and  C17_26 
REMARK   10  A    between atoms: C14_21  and  C15_22 
REMARK   11  A    between atoms: C15_22  and  C16_23 
REMARK   12  A    between atoms: C17_26  and  O6_27 
REMARK   13  A    between atoms: C17_26  and  N4_29 
REMARK       I    between atoms: N5_32  and  C20_33 
REMARK   14  A    between atoms: C20_33  and  O8_35 
REMARK   15  A    between atoms: O8_35  and  C21_36 
REMARK   16  A    between atoms: C21_36  and  C22_37 
REMARK   17  A    between atoms: C22_37  and  C23_38 
REMARK   18  A    between atoms: C23_38  and  C24_39 
ROOT
HETATM    1  C13 UNL     1      20.818  27.268  12.377  1.00  0.00     0.086 C 
ENDROOT
BRANCH   1   2
HETATM    2  N1  UNL     1      19.783  27.375  11.426  1.00  0.00    -0.288 N 
HETATM    3  C2  UNL     1      18.413  27.462  11.973  1.00  0.00     0.367 C 
HETATM    4  O2  UNL     1      17.481  27.620  11.168  1.00  0.00    -0.238 OA
BRANCH   3   5
HETATM    5  O1  UNL     1      18.167  27.374  13.315  1.00  0.00    -0.309 OA
HETATM    6  C1  UNL     1      17.619  28.502  13.968  1.00  0.00     0.215 C 
ENDBRANCH   3   5
BRANCH   2   7
HETATM    7  C3  UNL     1      19.810  27.493   9.996  1.00  0.00     0.154 C 
BRANCH   7   8
HETATM    8  C4  UNL     1      19.654  26.257   9.192  1.00  0.00     0.143 C 
BRANCH   8   9
HETATM    9  N2  UNL     1      20.886  25.974   8.417  1.00  0.00    -0.358 N 
HETATM   10  C5  UNL     1      21.668  24.832   8.686  1.00  0.00     0.251 C 
HETATM   11  O3  UNL     1      21.294  24.065   9.595  1.00  0.00    -0.271 OA
ATOM     12  H2  UNL     1      21.172  26.615   7.677  1.00  0.00     0.162 HD
BRANCH  10  13
HETATM   13  C6  UNL     1      22.873  24.563   7.925  1.00  0.00     0.310 C 
HETATM   14  C7  UNL     1      23.915  25.633   8.292  1.00  0.00     0.053 C 
BRANCH  13  15
HETATM   15  N3  UNL     1      22.748  24.587   6.517  1.00  0.00     0.101 N 
HETATM   16  C8  UNL     1      21.771  23.753   5.915  1.00  0.00     0.273 C 
HETATM   17  C9  UNL     1      21.504  24.330   4.517  1.00  0.00     0.030 C 
HETATM   18  C10 UNL     1      22.728  24.210   3.650  1.00  0.00     0.003 C 
HETATM   19  C11 UNL     1      23.879  23.743   4.498  1.00  0.00     0.030 C 
HETATM   20  C12 UNL     1      23.993  24.457   5.815  1.00  0.00     0.273 C 
ENDBRANCH  13  15
ENDBRANCH  10  13
ENDBRANCH   8   9
ENDBRANCH   7   8
ENDBRANCH   2   7
ENDBRANCH   1   2
BRANCH   1  21
HETATM   21  C14 UNL     1      22.064  26.535  12.088  1.00  0.00     0.018 C 
BRANCH  21  22
HETATM   22  C15 UNL     1      23.380  27.153  11.978  1.00  0.00     0.142 C 
BRANCH  22  23
HETATM   23  C16 UNL     1      24.516  26.283  11.623  1.00  0.00     0.176 C 
HETATM   24  O4  UNL     1      24.493  25.011  11.683  1.00  0.00    -0.648 OA
HETATM   25  O5  UNL     1      25.727  26.846  11.183  1.00  0.00    -0.648 OA
ENDBRANCH  22  23
ENDBRANCH  21  22
ENDBRANCH   1  21
BRANCH   1  26
HETATM   26  C17 UNL     1      21.062  28.411  13.279  1.00  0.00     0.165 C 
BRANCH  26  27
HETATM   27  O6  UNL     1      21.053  28.061  14.534  1.00  0.00    -0.344 OA
ATOM     28  H6  UNL     1      21.862  28.289  14.979  1.00  0.00     0.219 HD
ENDBRANCH  26  27
BRANCH  26  29
HETATM   29  N4  UNL     1      21.296  29.763  13.081  1.00  0.00    -0.357 N 
HETATM   30  C18 UNL     1      20.756  30.699  12.156  1.00  0.00     0.145 C 
HETATM   31  C19 UNL     1      19.806  31.592  12.976  1.00  0.00     0.148 C 
HETATM   32  N5  UNL     1      20.169  31.544  14.372  1.00  0.00    -0.325 N 
HETATM   33  C20 UNL     1      19.117  31.665  15.364  1.00  0.00     0.362 C 
HETATM   34  C31 UNL     1      21.513  31.376  14.842  1.00  0.00     0.148 C 
HETATM   35  O7  UNL     1      19.418  31.640  16.583  1.00  0.00    -0.238 OA
HETATM   36  C32 UNL     1      22.308  30.415  14.004  1.00  0.00     0.145 C 
BRANCH  33  37
HETATM   37  O8  UNL     1      17.816  31.804  15.012  1.00  0.00    -0.304 OA
BRANCH  37  38
HETATM   38  C21 UNL     1      16.661  31.768  15.730  1.00  0.00     0.180 C 
BRANCH  38  39
HETATM   39  C22 UNL     1      15.805  32.971  15.670  1.00  0.00     0.027 C 
BRANCH  39  40
HETATM   40  C23 UNL     1      16.396  34.246  15.253  1.00  0.00     0.007 C 
BRANCH  40  41
HETATM   41  C24 UNL     1      16.187  35.277  16.393  1.00  0.00    -0.014 C 
HETATM   42  C25 UNL     1      17.477  35.479  17.124  1.00  0.00     0.004 C 
HETATM   43  C26 UNL     1      17.602  36.946  17.470  1.00  0.00     0.000 C 
HETATM   44  C27 UNL     1      16.297  37.580  17.833  1.00  0.00     0.000 C 
HETATM   45  C28 UNL     1      15.473  36.744  18.756  1.00  0.00     0.000 C 
HETATM   46  C29 UNL     1      14.422  35.908  18.042  1.00  0.00     0.000 C 
HETATM   47  C30 UNL     1      15.085  34.779  17.263  1.00  0.00     0.004 C 
ENDBRANCH  40  41
ENDBRANCH  39  40
ENDBRANCH  38  39
ENDBRANCH  37  38
ENDBRANCH  33  37
ENDBRANCH  26  29
ENDBRANCH   1  26
TORSDOF 18
ENDMDL
MODEL 2
REMARK VINA RESULT: -8.578516966      1.621      2.642
REMARK  18 active torsions:
REMARK  status: ('A' for Active; 'I' for Inactive)
REMARK    1  A    between atoms: O1_2  and  C2_3 
REMARK       I    between atoms: C2_3  and  N1_5 
REMARK    2  A    between atoms: N1_5  and  C3_6 
REMARK    3  A    between atoms: N1_5  and  C13_20 
REMARK    4  A    between atoms: C3_6  and  C4_7 
REMARK    5  A    between atoms: C4_7  and  N2_8 
REMARK       I    between atoms: N2_8  and  C5_10 
REMARK    6  A    between atoms: C5_10  and  C6_12 
REMARK    7  A    between atoms: C6_12  and  N3_14 
REMARK    8  A    between atoms: C13_20  and  C14_21 
REMARK    9  A    between atoms: C13_20  and  C17_26 
REMARK   10  A    between atoms: C14_21  and  C15_22 
REMARK   11  A    between atoms: C15_22  and  C16_23 
REMARK   12  A    between atoms: C17_26  and  O6_27 
REMARK   13  A    between atoms: C17_26  and  N4_29 
REMARK       I    between atoms: N5_32  and  C20_33 
REMARK   14  A    between atoms: C20_33  and  O8_35 
REMARK   15  A    between atoms: O8_35  and  C21_36 
REMARK   16  A    between atoms: C21_36  and  C22_37 
REMARK   17  A    between atoms: C22_37  and  C23_38 
REMARK   18  A    between atoms: C23_38  and  C24_39 
ROOT
HETATM    1  C13 UNL     1      21.104  27.281  12.281  1.00  0.00     0.086 C 
ENDROOT
BRANCH   1   2
HETATM    2  N1  UNL     1      19.907  26.698  11.821  1.00  0.00    -0.288 N 
HETATM    3  C2  UNL     1      20.009  25.299  11.356  1.00  0.00     0.367 C 
HETATM    4  O2  UNL     1      18.963  24.732  11.001  1.00  0.00    -0.238 OA
BRANCH   3   5
HETATM    5  O1  UNL     1      21.206  24.641  11.313  1.00  0.00    -0.309 OA
HETATM    6  C1  UNL     1      21.751  24.328  10.047  1.00  0.00     0.215 C 
ENDBRANCH   3   5
BRANCH   2   7
HETATM    7  C3  UNL     1      18.559  27.189  11.784  1.00  0.00     0.154 C 
BRANCH   7   8
HETATM    8  C4  UNL     1      18.171  28.078  10.663  1.00  0.00     0.143 C 
BRANCH   8   9
HETATM    9  N2  UNL     1      17.655  27.290   9.518  1.00  0.00    -0.358 N 
HETATM   10  C5  UNL     1      18.494  26.932   8.443  1.00  0.00     0.251 C 
HETATM   11  O3  UNL     1      19.686  27.298   8.483  1.00  0.00    -0.271 OA
ATOM     12  H2  UNL     1      16.676  27.001   9.508  1.00  0.00     0.162 HD
BRANCH  10  13
HETATM   13  C6  UNL     1      17.981  26.163   7.326  1.00  0.00     0.310 C 
HETATM   14  C7  UNL     1      16.960  25.152   7.875  1.00  0.00     0.053 C 
BRANCH  13  15
HETATM   15  N3  UNL     1      18.928  25.419   6.585  1.00  0.00     0.101 N 
HETATM   16  C8  UNL     1      19.289  25.888   5.296  1.00  0.00     0.273 C 
HETATM   17  C9  UNL     1      20.636  25.232   4.953  1.00  0.00     0.030 C 
HETATM   18  C10 UNL     1      20.480  23.741   4.814  1.00  0.00     0.003 C 
HETATM   19  C11 UNL     1      19.093  23.356   5.250  1.00  0.00     0.030 C 
HETATM   20  C12 UNL     1      18.653  24.012   6.528  1.00  0.00     0.273 C 
ENDBRANCH  13  15
ENDBRANCH  10  13
ENDBRANCH   8   9
ENDBRANCH   7   8
ENDBRANCH   2   7
ENDBRANCH   1   2
BRANCH   1  21
HETATM   21  C14 UNL     1      22.294  27.394  11.418  1.00  0.00     0.018 C 
BRANCH  21  22
HETATM   22  C15 UNL     1      23.670  27.379  11.899  1.00  0.00     0.142 C 
BRANCH  22  23
HETATM   23  C16 UNL     1      24.562  26.324  11.386  1.00  0.00     0.176 C 
HETATM   24  O4  UNL     1      24.580  25.126  11.816  1.00  0.00    -0.648 OA
HETATM   25  O5  UNL     1      25.472  26.609  10.353  1.00  0.00    -0.648 OA
ENDBRANCH  22  23
ENDBRANCH  21  22
ENDBRANCH   1  21
BRANCH   1  26
HETATM   26  C17 UNL     1      21.016  28.410  13.227  1.00  0.00     0.165 C 
BRANCH  26  27
HETATM   27  O6  UNL     1      20.741  28.020  14.440  1.00  0.00    -0.344 OA
ATOM     28  H6  UNL     1      20.265  27.197  14.455  1.00  0.00     0.219 HD
ENDBRANCH  26  27
BRANCH  26  29
HETATM   29  N4  UNL     1      21.160  29.784  13.105  1.00  0.00    -0.357 N 
HETATM   30  C18 UNL     1      20.559  30.732  12.232  1.00  0.00     0.145 C 
HETATM   31  C19 UNL     1      19.552  31.513  13.097  1.00  0.00     0.148 C 
HETATM   32  N5  UNL     1      19.919  31.412  14.489  1.00  0.00    -0.325 N 
HETATM   33  C20 UNL     1      18.862  31.408  15.483  1.00  0.00     0.362 C 
HETATM   34  C31 UNL     1      21.271  31.307  14.954  1.00  0.00     0.148 C 
HETATM   35  O7  UNL     1      19.165  31.336  16.700  1.00  0.00    -0.238 OA
HETATM   36  C32 UNL     1      22.128  30.449  14.066  1.00  0.00     0.145 C 
BRANCH  33  37
HETATM   37  O8  UNL     1      17.554  31.481  15.136  1.00  0.00    -0.304 OA
BRANCH  37  38
HETATM   38  C21 UNL     1      16.404  31.333  15.847  1.00  0.00     0.180 C 
BRANCH  38  39
HETATM   39  C22 UNL     1      15.709  32.572  16.249  1.00  0.00     0.027 C 
BRANCH  39  40
HETATM   40  C23 UNL     1      16.054  33.832  15.583  1.00  0.00     0.007 C 
BRANCH  40  41
HETATM   41  C24 UNL     1      16.121  34.950  16.656  1.00  0.00    -0.014 C 
HETATM   42  C25 UNL     1      17.396  34.821  17.430  1.00  0.00     0.004 C 
HETATM   43  C26 UNL     1      17.928  36.211  17.703  1.00  0.00     0.000 C 
HETATM   44  C27 UNL     1      16.851  37.212  17.975  1.00  0.00     0.000 C 
HETATM   45  C28 UNL     1      15.798  36.706  18.905  1.00  0.00     0.000 C 
HETATM   46  C29 UNL     1      14.570  36.161  18.192  1.00  0.00     0.000 C 
HETATM   47  C30 UNL     1      14.900  34.844  17.504  1.00  0.00     0.004 C 
ENDBRANCH  40  41
ENDBRANCH  39  40
ENDBRANCH  38  39
ENDBRANCH  37  38
ENDBRANCH  33  37
ENDBRANCH  26  29
ENDBRANCH   1  26
TORSDOF 18
ENDMDL
MODEL 3
REMARK VINA RESULT: -8.472124286      3.281     11.134
REMARK  18 active torsions:
REMARK  status: ('A' for Active; 'I' for Inactive)
REMARK    1  A    between atoms: O1_2  and  C2_3 
REMARK       I    between atoms: C2_3  and  N1_5 
REMARK    2  A    between atoms: N1_5  and  C3_6 
REMARK    3  A    between atoms: N1_5  and  C13_20 
REMARK    4  A    between atoms: C3_6  and  C4_7 
REMARK    5  A    between atoms: C4_7  and  N2_8 
REMARK       I    between atoms: N2_8  and  C5_10 
REMARK    6  A    between atoms: C5_10  and  C6_12 
REMARK    7  A    between atoms: C6_12  and  N3_14 
REMARK    8  A    between atoms: C13_20  and  C14_21 
REMARK    9  A    between atoms: C13_20  and  C17_26 
REMARK   10  A    between atoms: C14_21  and  C15_22 
REMARK   11  A    between atoms: C15_22  and  C16_23 
REMARK   12  A    between atoms: C17_26  and  O6_27 
REMARK   13  A    between atoms: C17_26  and  N4_29 
REMARK       I    between atoms: N5_32  and  C20_33 
REMARK   14  A    between atoms: C20_33  and  O8_35 
REMARK   15  A    between atoms: O8_35  and  C21_36 
REMARK   16  A    between atoms: C21_36  and  C22_37 
REMARK   17  A    between atoms: C22_37  and  C23_38 
REMARK   18  A    between atoms: C23_38  and  C24_39 
ROOT
HETATM    1  C13 UNL     1      20.689  29.609  13.765  1.00  0.00     0.086 C 
ENDROOT
BRANCH   1   2
HETATM    2  N1  UNL     1      20.726  30.152  15.064  1.00  0.00    -0.288 N 
HETATM    3  C2  UNL     1      21.720  31.223  15.287  1.00  0.00     0.367 C 
HETATM    4  O2  UNL     1      21.739  31.767  16.402  1.00  0.00    -0.238 OA
BRANCH   3   5
HETATM    5  O1  UNL     1      22.593  31.608  14.308  1.00  0.00    -0.309 OA
HETATM    6  C1  UNL     1      23.671  32.449  14.669  1.00  0.00     0.215 C 
ENDBRANCH   3   5
BRANCH   2   7
HETATM    7  C3  UNL     1      19.913  29.911  16.222  1.00  0.00     0.154 C 
BRANCH   7   8
HETATM    8  C4  UNL     1      18.538  30.464  16.237  1.00  0.00     0.143 C 
BRANCH   8   9
HETATM    9  N2  UNL     1      18.532  31.851  16.759  1.00  0.00    -0.358 N 
HETATM   10  C5  UNL     1      18.462  32.957  15.887  1.00  0.00     0.251 C 
HETATM   11  O3  UNL     1      18.403  32.735  14.661  1.00  0.00    -0.271 OA
ATOM     12  H2  UNL     1      18.580  32.009  17.766  1.00  0.00     0.162 HD
BRANCH  10  13
HETATM   13  C6  UNL     1      18.460  34.312  16.406  1.00  0.00     0.310 C 
HETATM   14  C7  UNL     1      19.618  34.437  17.410  1.00  0.00     0.053 C 
BRANCH  13  15
HETATM   15  N3  UNL     1      17.290  34.725  17.084  1.00  0.00     0.101 N 
HETATM   16  C8  UNL     1      16.041  34.552  16.434  1.00  0.00     0.273 C 
HETATM   17  C9  UNL     1      14.967  34.590  17.533  1.00  0.00     0.030 C 
HETATM   18  C10 UNL     1      14.908  35.952  18.170  1.00  0.00     0.003 C 
HETATM   19  C11 UNL     1      16.056  36.778  17.658  1.00  0.00     0.030 C 
HETATM   20  C12 UNL     1      17.368  36.047  17.637  1.00  0.00     0.273 C 
ENDBRANCH  13  15
ENDBRANCH  10  13
ENDBRANCH   8   9
ENDBRANCH   7   8
ENDBRANCH   2   7
ENDBRANCH   1   2
BRANCH   1  21
HETATM   21  C14 UNL     1      21.339  28.326  13.441  1.00  0.00     0.018 C 
BRANCH  21  22
HETATM   22  C15 UNL     1      21.850  27.966  12.124  1.00  0.00     0.142 C 
BRANCH  22  23
HETATM   23  C16 UNL     1      22.974  27.015  12.063  1.00  0.00     0.176 C 
HETATM   24  O4  UNL     1      24.196  27.335  12.222  1.00  0.00    -0.648 OA
HETATM   25  O5  UNL     1      22.733  25.652  11.814  1.00  0.00    -0.648 OA
ENDBRANCH  22  23
ENDBRANCH  21  22
ENDBRANCH   1  21
BRANCH   1  26
HETATM   26  C17 UNL     1      19.475  29.816  12.952  1.00  0.00     0.165 C 
BRANCH  26  27
HETATM   27  O6  UNL     1      19.500  30.946  12.303  1.00  0.00    -0.344 OA
ATOM     28  H6  UNL     1      20.383  31.285  12.202  1.00  0.00     0.219 HD
ENDBRANCH  26  27
BRANCH  26  29
HETATM   29  N4  UNL     1      18.322  29.076  12.733  1.00  0.00    -0.357 N 
HETATM   30  C18 UNL     1      17.176  29.313  11.924  1.00  0.00     0.145 C 
HETATM   31  C19 UNL     1      17.307  28.351  10.729  1.00  0.00     0.148 C 
HETATM   32  N5  UNL     1      18.171  27.248  11.077  1.00  0.00    -0.325 N 
HETATM   33  C20 UNL     1      18.990  26.657  10.036  1.00  0.00     0.362 C 
HETATM   34  C31 UNL     1      18.276  26.702  12.399  1.00  0.00     0.148 C 
HETATM   35  O7  UNL     1      19.736  25.686  10.320  1.00  0.00    -0.238 OA
HETATM   36  C32 UNL     1      18.219  27.755  13.471  1.00  0.00     0.145 C 
BRANCH  33  37
HETATM   37  O8  UNL     1      18.974  27.121   8.763  1.00  0.00    -0.304 OA
BRANCH  37  38
HETATM   38  C21 UNL     1      19.268  26.541   7.569  1.00  0.00     0.180 C 
BRANCH  38  39
HETATM   39  C22 UNL     1      18.634  27.128   6.372  1.00  0.00     0.027 C 
BRANCH  39  40
HETATM   40  C23 UNL     1      17.543  26.403   5.714  1.00  0.00     0.007 C 
BRANCH  40  41
HETATM   41  C24 UNL     1      16.815  27.381   4.753  1.00  0.00    -0.014 C 
HETATM   42  C25 UNL     1      16.485  26.671   3.478  1.00  0.00     0.004 C 
HETATM   43  C26 UNL     1      15.118  27.130   3.020  1.00  0.00     0.000 C 
HETATM   44  C27 UNL     1      14.859  28.577   3.294  1.00  0.00     0.000 C 
HETATM   45  C28 UNL     1      16.011  29.460   2.943  1.00  0.00     0.000 C 
HETATM   46  C29 UNL     1      16.901  29.796   4.129  1.00  0.00     0.000 C 
HETATM   47  C30 UNL     1      17.693  28.570   4.561  1.00  0.00     0.004 C 
ENDBRANCH  40  41
ENDBRANCH  39  40
ENDBRANCH  38  39
ENDBRANCH  37  38
ENDBRANCH  33  37
ENDBRANCH  26  29
ENDBRANCH   1  26
TORSDOF 18
ENDMDL
MODEL 4
REMARK VINA RESULT: -8.451303646      3.408      9.444
REMARK  18 active torsions:
REMARK  status: ('A' for Active; 'I' for Inactive)
REMARK    1  A    between atoms: O1_2  and  C2_3 
REMARK       I    between atoms: C2_3  and  N1_5 
REMARK    2  A    between atoms: N1_5  and  C3_6 
REMARK    3  A    between atoms: N1_5  and  C13_20 
REMARK    4  A    between atoms: C3_6  and  C4_7 
REMARK    5  A    between atoms: C4_7  and  N2_8 
REMARK       I    between atoms: N2_8  and  C5_10 
REMARK    6  A    between atoms: C5_10  and  C6_12 
REMARK    7  A    between atoms: C6_12  and  N3_14 
REMARK    8  A    between atoms: C13_20  and  C14_21 
REMARK    9  A    between atoms: C13_20  and  C17_26 
REMARK   10  A    between atoms: C14_21  and  C15_22 
REMARK   11  A    between atoms: C15_22  and  C16_23 
REMARK   12  A    between atoms: C17_26  and  O6_27 
REMARK   13  A    between atoms: C17_26  and  N4_29 
REMARK       I    between atoms: N5_32  and  C20_33 
REMARK   14  A    between atoms: C20_33  and  O8_35 
REMARK   15  A    between atoms: O8_35  and  C21_36 
REMARK   16  A    between atoms: C21_36  and  C22_37 
REMARK   17  A    between atoms: C22_37  and  C23_38 
REMARK   18  A    between atoms: C23_38  and  C24_39 
ROOT
HETATM    1  C13 UNL     1      18.000  34.704  16.444  1.00  0.00     0.086 C 
ENDROOT
BRANCH   1   2
HETATM    2  N1  UNL     1      17.365  33.663  15.739  1.00  0.00    -0.288 N 
HETATM    3  C2  UNL     1      16.223  33.023  16.425  1.00  0.00     0.367 C 
HETATM    4  O2  UNL     1      15.601  32.143  15.808  1.00  0.00    -0.238 OA
BRANCH   3   5
HETATM    5  O1  UNL     1      15.855  33.378  17.692  1.00  0.00    -0.309 OA
HETATM    6  C1  UNL     1      14.651  34.101  17.860  1.00  0.00     0.215 C 
ENDBRANCH   3   5
BRANCH   2   7
HETATM    7  C3  UNL     1      17.573  33.139  14.419  1.00  0.00     0.154 C 
BRANCH   7   8
HETATM    8  C4  UNL     1      18.557  32.043  14.250  1.00  0.00     0.143 C 
BRANCH   8   9
HETATM    9  N2  UNL     1      17.871  30.745  14.043  1.00  0.00    -0.358 N 
HETATM   10  C5  UNL     1      18.183  29.925  12.939  1.00  0.00     0.251 C 
HETATM   11  O3  UNL     1      19.054  30.322  12.141  1.00  0.00    -0.271 OA
ATOM     12  H2  UNL     1      17.162  30.440  14.710  1.00  0.00     0.162 HD
BRANCH  10  13
HETATM   13  C6  UNL     1      17.505  28.658  12.743  1.00  0.00     0.310 C 
HETATM   14  C7  UNL     1      17.723  27.803  14.003  1.00  0.00     0.053 C 
BRANCH  13  15
HETATM   15  N3  UNL     1      17.935  27.877  11.645  1.00  0.00     0.101 N 
HETATM   16  C8  UNL     1      17.214  27.977  10.427  1.00  0.00     0.273 C 
HETATM   17  C9  UNL     1      18.149  27.463   9.322  1.00  0.00     0.030 C 
HETATM   18  C10 UNL     1      18.432  25.996   9.506  1.00  0.00     0.003 C 
HETATM   19  C11 UNL     1      17.864  25.555  10.827  1.00  0.00     0.030 C 
HETATM   20  C12 UNL     1      18.160  26.495  11.960  1.00  0.00     0.273 C 
ENDBRANCH  13  15
ENDBRANCH  10  13
ENDBRANCH   8   9
ENDBRANCH   7   8
ENDBRANCH   2   7
ENDBRANCH   1   2
BRANCH   1  21
HETATM   21  C14 UNL     1      17.266  35.910  16.872  1.00  0.00     0.018 C 
BRANCH  21  22
HETATM   22  C15 UNL     1      17.892  37.108  17.418  1.00  0.00     0.142 C 
BRANCH  22  23
HETATM   23  C16 UNL     1      17.229  38.400  17.166  1.00  0.00     0.176 C 
HETATM   24  O4  UNL     1      17.600  39.238  16.282  1.00  0.00    -0.648 OA
HETATM   25  O5  UNL     1      16.109  38.780  17.926  1.00  0.00    -0.648 OA
ENDBRANCH  22  23
ENDBRANCH  21  22
ENDBRANCH   1  21
BRANCH   1  26
HETATM   26  C17 UNL     1      19.066  34.355  17.403  1.00  0.00     0.165 C 
BRANCH  26  27
HETATM   27  O6  UNL     1      18.602  33.745  18.458  1.00  0.00    -0.344 OA
ATOM     28  H6  UNL     1      18.702  32.802  18.403  1.00  0.00     0.219 HD
ENDBRANCH  26  27
BRANCH  26  29
HETATM   29  N4  UNL     1      20.441  34.534  17.425  1.00  0.00    -0.357 N 
HETATM   30  C18 UNL     1      21.467  33.947  18.216  1.00  0.00     0.145 C 
HETATM   31  C19 UNL     1      22.207  32.974  17.280  1.00  0.00     0.148 C 
HETATM   32  N5  UNL     1      21.993  33.357  15.904  1.00  0.00    -0.325 N 
HETATM   33  C20 UNL     1      21.943  32.314  14.897  1.00  0.00     0.362 C 
HETATM   34  C31 UNL     1      21.818  34.713  15.470  1.00  0.00     0.148 C 
HETATM   35  O7  UNL     1      21.772  32.632  13.693  1.00  0.00    -0.238 OA
HETATM   36  C32 UNL     1      21.006  35.533  16.433  1.00  0.00     0.145 C 
BRANCH  33  37
HETATM   37  O8  UNL     1      22.075  31.004  15.217  1.00  0.00    -0.304 OA
BRANCH  37  38
HETATM   38  C21 UNL     1      21.406  29.888  14.821  1.00  0.00     0.180 C 
BRANCH  38  39
HETATM   39  C22 UNL     1      22.096  29.008  13.857  1.00  0.00     0.027 C 
BRANCH  39  40
HETATM   40  C23 UNL     1      21.371  27.869  13.286  1.00  0.00     0.007 C 
BRANCH  40  41
HETATM   41  C24 UNL     1      22.311  27.143  12.287  1.00  0.00    -0.014 C 
HETATM   42  C25 UNL     1      23.604  27.888  12.189  1.00  0.00     0.004 C 
HETATM   43  C26 UNL     1      24.728  26.880  12.095  1.00  0.00     0.000 C 
HETATM   44  C27 UNL     1      24.368  25.668  11.296  1.00  0.00     0.000 C 
HETATM   45  C28 UNL     1      23.653  25.992  10.025  1.00  0.00     0.000 C 
HETATM   46  C29 UNL     1      22.140  25.888  10.136  1.00  0.00     0.000 C 
HETATM   47  C30 UNL     1      21.593  27.026  10.986  1.00  0.00     0.004 C 
ENDBRANCH  40  41
ENDBRANCH  39  40
ENDBRANCH  38  39
ENDBRANCH  37  38
ENDBRANCH  33  37
ENDBRANCH  26  29
ENDBRANCH   1  26
TORSDOF 18
ENDMDL
MODEL 5
REMARK VINA RESULT: -8.423047796      2.049     10.769
REMARK  18 active torsions:
REMARK  status: ('A' for Active; 'I' for Inactive)
REMARK    1  A    between atoms: O1_2  and  C2_3 
REMARK       I    between atoms: C2_3  and  N1_5 
REMARK    2  A    between atoms: N1_5  and  C3_6 
REMARK    3  A    between atoms: N1_5  and  C13_20 
REMARK    4  A    between atoms: C3_6  and  C4_7 
REMARK    5  A    between atoms: C4_7  and  N2_8 
REMARK       I    between atoms: N2_8  and  C5_10 
REMARK    6  A    between atoms: C5_10  and  C6_12 
REMARK    7  A    between atoms: C6_12  and  N3_14 
REMARK    8  A    between atoms: C13_20  and  C14_21 
REMARK    9  A    between atoms: C13_20  and  C17_26 
REMARK   10  A    between atoms: C14_21  and  C15_22 
REMARK   11  A    between atoms: C15_22  and  C16_23 
REMARK   12  A    between atoms: C17_26  and  O6_27 
REMARK   13  A    between atoms: C17_26  and  N4_29 
REMARK       I    between atoms: N5_32  and  C20_33 
REMARK   14  A    between atoms: C20_33  and  O8_35 
REMARK   15  A    between atoms: O8_35  and  C21_36 
REMARK   16  A    between atoms: C21_36  and  C22_37 
REMARK   17  A    between atoms: C22_37  and  C23_38 
REMARK   18  A    between atoms: C23_38  and  C24_39 
ROOT
HETATM    1  C13 UNL     1      20.938  28.935  12.490  1.00  0.00     0.086 C 
ENDROOT
BRANCH   1   2
HETATM    2  N1  UNL     1      20.924  29.171  13.879  1.00  0.00    -0.288 N 
HETATM    3  C2  UNL     1      21.484  30.467  14.317  1.00  0.00     0.367 C 
HETATM    4  O2  UNL     1      21.432  30.736  15.529  1.00  0.00    -0.238 OA
BRANCH   3   5
HETATM    5  O1  UNL     1      22.043  31.345  13.432  1.00  0.00    -0.309 OA
HETATM    6  C1  UNL     1      22.501  32.588  13.925  1.00  0.00     0.215 C 
ENDBRANCH   3   5
BRANCH   2   7
HETATM    7  C3  UNL     1      20.389  28.409  14.971  1.00  0.00     0.154 C 
BRANCH   7   8
HETATM    8  C4  UNL     1      18.923  28.435  15.189  1.00  0.00     0.143 C 
BRANCH   8   9
HETATM    9  N2  UNL     1      18.333  29.688  14.660  1.00  0.00    -0.358 N 
HETATM   10  C5  UNL     1      18.047  30.775  15.512  1.00  0.00     0.251 C 
HETATM   11  O3  UNL     1      18.306  30.652  16.726  1.00  0.00    -0.271 OA
ATOM     12  H2  UNL     1      18.131  29.766  13.663  1.00  0.00     0.162 HD
BRANCH  10  13
HETATM   13  C6  UNL     1      17.469  31.996  14.987  1.00  0.00     0.310 C 
HETATM   14  C7  UNL     1      18.565  32.746  14.212  1.00  0.00     0.053 C 
BRANCH  13  15
HETATM   15  N3  UNL     1      16.950  32.906  15.937  1.00  0.00     0.101 N 
HETATM   16  C8  UNL     1      15.560  32.865  16.217  1.00  0.00     0.273 C 
HETATM   17  C9  UNL     1      15.367  33.551  17.578  1.00  0.00     0.030 C 
HETATM   18  C10 UNL     1      15.720  35.011  17.492  1.00  0.00     0.003 C 
HETATM   19  C11 UNL     1      16.336  35.282  16.147  1.00  0.00     0.030 C 
HETATM   20  C12 UNL     1      17.361  34.266  15.732  1.00  0.00     0.273 C 
ENDBRANCH  13  15
ENDBRANCH  10  13
ENDBRANCH   8   9
ENDBRANCH   7   8
ENDBRANCH   2   7
ENDBRANCH   1   2
BRANCH   1  21
HETATM   21  C14 UNL     1      21.918  28.026  11.868  1.00  0.00     0.018 C 
BRANCH  21  22
HETATM   22  C15 UNL     1      23.189  27.643  12.469  1.00  0.00     0.142 C 
BRANCH  22  23
HETATM   23  C16 UNL     1      24.120  26.845  11.650  1.00  0.00     0.176 C 
HETATM   24  O4  UNL     1      24.662  27.255  10.574  1.00  0.00    -0.648 OA
HETATM   25  O5  UNL     1      24.463  25.539  12.042  1.00  0.00    -0.648 OA
ENDBRANCH  22  23
ENDBRANCH  21  22
ENDBRANCH   1  21
BRANCH   1  26
HETATM   26  C17 UNL     1      19.650  28.913  11.769  1.00  0.00     0.165 C 
BRANCH  26  27
HETATM   27  O6  UNL     1      19.088  30.088  11.725  1.00  0.00    -0.344 OA
ATOM     28  H6  UNL     1      18.392  30.132  11.078  1.00  0.00     0.219 HD
ENDBRANCH  26  27
BRANCH  26  29
HETATM   29  N4  UNL     1      18.916  27.922  11.136  1.00  0.00    -0.357 N 
HETATM   30  C18 UNL     1      18.661  27.654   9.762  1.00  0.00     0.145 C 
HETATM   31  C19 UNL     1      19.509  26.416   9.416  1.00  0.00     0.148 C 
HETATM   32  N5  UNL     1      19.815  25.679  10.619  1.00  0.00    -0.325 N 
HETATM   33  C20 UNL     1      21.080  24.974  10.694  1.00  0.00     0.362 C 
HETATM   34  C31 UNL     1      18.943  25.606  11.755  1.00  0.00     0.148 C 
HETATM   35  O7  UNL     1      21.355  24.315  11.728  1.00  0.00    -0.238 OA
HETATM   36  C32 UNL     1      18.240  26.905  12.035  1.00  0.00     0.145 C 
BRANCH  33  37
HETATM   37  O8  UNL     1      21.977  25.005   9.678  1.00  0.00    -0.304 OA
BRANCH  37  38
HETATM   38  C21 UNL     1      22.311  24.101   8.718  1.00  0.00     0.180 C 
BRANCH  38  39
HETATM   39  C22 UNL     1      21.899  24.417   7.336  1.00  0.00     0.027 C 
BRANCH  39  40
HETATM   40  C23 UNL     1      20.902  23.568   6.678  1.00  0.00     0.007 C 
BRANCH  40  41
HETATM   41  C24 UNL     1      19.615  24.407   6.456  1.00  0.00    -0.014 C 
HETATM   42  C25 UNL     1      18.508  23.509   6.001  1.00  0.00     0.004 C 
HETATM   43  C26 UNL     1      17.226  23.962   6.665  1.00  0.00     0.000 C 
HETATM   44  C27 UNL     1      17.129  25.448   6.807  1.00  0.00     0.000 C 
HETATM   45  C28 UNL     1      17.540  26.186   5.576  1.00  0.00     0.000 C 
HETATM   46  C29 UNL     1      18.982  26.669   5.612  1.00  0.00     0.000 C 
HETATM   47  C30 UNL     1      19.938  25.490   5.485  1.00  0.00     0.004 C 
ENDBRANCH  40  41
ENDBRANCH  39  40
ENDBRANCH  38  39
ENDBRANCH  37  38
ENDBRANCH  33  37
ENDBRANCH  26  29
ENDBRANCH   1  26
TORSDOF 18
ENDMDL
