MODEL 1
REMARK VINA RESULT: -6.528754384      0.000      0.000
REMARK  3 active torsions:
REMARK  status: ('A' for Active; 'I' for Inactive)
REMARK    1  A    between atoms: C9_11  and  N2_12 
REMARK       I    between atoms: N2_12  and  C10_14 
REMARK    2  A    between atoms: C10_14  and  O2_16 
REMARK    3  A    between atoms: O2_16  and  C11_17 
ROOT
HETATM    1  C1  UNL     1      80.070  40.855  72.230  1.00  0.00     0.089 C 
HETATM    2  C2  UNL     1      79.197  40.763  71.018  1.00  0.00     0.078 A 
HETATM    3  N1  UNL     1      79.475  41.201  69.777  1.00  0.00    -0.344 N 
ATOM      4  H1  UNL     1      80.333  41.665  69.478  1.00  0.00     0.167 HD
HETATM    5  C3  UNL     1      78.398  40.910  68.993  1.00  0.00     0.069 A 
HETATM    6  C4  UNL     1      78.180  41.147  67.655  1.00  0.00    -0.027 A 
HETATM    7  C5  UNL     1      79.178  41.815  66.794  1.00  0.00     0.051 C 
HETATM    8  C6  UNL     1      76.978  40.731  67.140  1.00  0.00    -0.051 A 
HETATM    9  C7  UNL     1      76.726  40.978  65.703  1.00  0.00     0.049 C 
HETATM   10  C8  UNL     1      76.001  40.093  67.920  1.00  0.00     0.039 A 
HETATM   11  C9  UNL     1      76.204  39.849  69.257  1.00  0.00     0.066 A 
HETATM   12  C15 UNL     1      77.445  40.286  69.755  1.00  0.00     0.088 A 
HETATM   13  N3  UNL     1      77.967  40.215  70.984  1.00  0.00    -0.343 N 
ATOM     14  H3  UNL     1      77.496  39.801  71.788  1.00  0.00     0.167 HD
ENDROOT
BRANCH  11  15
HETATM   15  N2  UNL     1      75.293  39.217  70.130  1.00  0.00    -0.300 N 
HETATM   16  C10 UNL     1      75.052  37.846  70.175  1.00  0.00     0.366 C 
HETATM   17  O1  UNL     1      75.541  36.933  69.516  1.00  0.00    -0.238 OA
ATOM     18  H2  UNL     1      74.771  39.808  70.776  1.00  0.00     0.171 HD
BRANCH  16  19
HETATM   19  O2  UNL     1      74.103  37.412  71.118  1.00  0.00    -0.294 OA
BRANCH  19  20
HETATM   20  C11 UNL     1      74.385  37.252  72.476  1.00  0.00     0.061 C 
HETATM   21  C12 UNL     1      73.850  38.455  73.220  1.00  0.00     0.046 C 
HETATM   22  C13 UNL     1      73.646  36.017  72.965  1.00  0.00     0.046 C 
HETATM   23  C14 UNL     1      75.826  37.095  72.812  1.00  0.00     0.046 C 
ENDBRANCH  19  20
ENDBRANCH  16  19
ENDBRANCH  11  15
TORSDOF 3
ENDMDL
MODEL 2
REMARK VINA RESULT: -6.454236247      1.886      3.557
REMARK  3 active torsions:
REMARK  status: ('A' for Active; 'I' for Inactive)
REMARK    1  A    between atoms: C9_11  and  N2_12 
REMARK       I    between atoms: N2_12  and  C10_14 
REMARK    2  A    between atoms: C10_14  and  O2_16 
REMARK    3  A    between atoms: O2_16  and  C11_17 
ROOT
HETATM    1  C1  UNL     1      74.706  41.227  66.397  1.00  0.00     0.089 C 
HETATM    2  C2  UNL     1      75.558  41.120  67.622  1.00  0.00     0.078 A 
HETATM    3  N1  UNL     1      76.812  41.579  67.786  1.00  0.00    -0.344 N 
ATOM      4  H1  UNL     1      77.370  42.072  67.090  1.00  0.00     0.167 HD
HETATM    5  C3  UNL     1      77.197  41.261  69.055  1.00  0.00     0.069 A 
HETATM    6  C4  UNL     1      78.381  41.504  69.713  1.00  0.00    -0.027 A 
HETATM    7  C5  UNL     1      79.512  42.213  69.079  1.00  0.00     0.051 C 
HETATM    8  C6  UNL     1      78.473  41.056  71.007  1.00  0.00    -0.051 A 
HETATM    9  C7  UNL     1      79.739  41.309  71.731  1.00  0.00     0.049 C 
HETATM   10  C8  UNL     1      77.426  40.379  71.650  1.00  0.00     0.039 A 
HETATM   11  C9  UNL     1      76.238  40.129  71.006  1.00  0.00     0.066 A 
HETATM   12  C15 UNL     1      76.174  40.601  69.682  1.00  0.00     0.088 A 
HETATM   13  N3  UNL     1      75.192  40.532  68.778  1.00  0.00    -0.343 N 
ATOM     14  H3  UNL     1      74.285  40.094  68.941  1.00  0.00     0.167 HD
ENDROOT
BRANCH  11  15
HETATM   15  N2  UNL     1      75.124  39.459  71.556  1.00  0.00    -0.300 N 
HETATM   16  C10 UNL     1      75.194  38.413  72.472  1.00  0.00     0.366 C 
HETATM   17  O1  UNL     1      76.170  37.868  72.979  1.00  0.00    -0.238 OA
ATOM     18  H2  UNL     1      74.197  39.765  71.261  1.00  0.00     0.171 HD
BRANCH  16  19
HETATM   19  O2  UNL     1      73.966  37.878  72.900  1.00  0.00    -0.294 OA
BRANCH  19  20
HETATM   20  C11 UNL     1      73.449  36.669  72.432  1.00  0.00     0.061 C 
HETATM   21  C12 UNL     1      74.112  35.541  73.187  1.00  0.00     0.046 C 
HETATM   22  C13 UNL     1      71.960  36.646  72.743  1.00  0.00     0.046 C 
HETATM   23  C14 UNL     1      73.622  36.425  70.974  1.00  0.00     0.046 C 
ENDBRANCH  19  20
ENDBRANCH  16  19
ENDBRANCH  11  15
TORSDOF 3
ENDMDL
MODEL 3
REMARK VINA RESULT: -6.451794178      1.179      1.490
REMARK  3 active torsions:
REMARK  status: ('A' for Active; 'I' for Inactive)
REMARK    1  A    between atoms: C9_11  and  N2_12 
REMARK       I    between atoms: N2_12  and  C10_14 
REMARK    2  A    between atoms: C10_14  and  O2_16 
REMARK    3  A    between atoms: O2_16  and  C11_17 
ROOT
HETATM    1  C1  UNL     1      80.207  40.863  72.071  1.00  0.00     0.089 C 
HETATM    2  C2  UNL     1      79.067  40.823  71.103  1.00  0.00     0.078 A 
HETATM    3  N1  UNL     1      79.049  41.298  69.845  1.00  0.00    -0.344 N 
ATOM      4  H1  UNL     1      79.819  41.760  69.362  1.00  0.00     0.167 HD
HETATM    5  C3  UNL     1      77.809  41.048  69.334  1.00  0.00     0.069 A 
HETATM    6  C4  UNL     1      77.281  41.332  68.096  1.00  0.00    -0.027 A 
HETATM    7  C5  UNL     1      78.057  42.014  67.039  1.00  0.00     0.051 C 
HETATM    8  C6  UNL     1      75.982  40.950  67.874  1.00  0.00    -0.051 A 
HETATM    9  C7  UNL     1      75.398  41.247  66.547  1.00  0.00     0.049 C 
HETATM   10  C8  UNL     1      75.208  40.300  68.847  1.00  0.00     0.039 A 
HETATM   11  C9  UNL     1      75.720  40.009  70.088  1.00  0.00     0.066 A 
HETATM   12  C15 UNL     1      77.054  40.413  70.285  1.00  0.00     0.088 A 
HETATM   13  N3  UNL     1      77.853  40.294  71.350  1.00  0.00    -0.343 N 
ATOM     14  H3  UNL     1      77.580  39.859  72.231  1.00  0.00     0.167 HD
ENDROOT
BRANCH  11  15
HETATM   15  N2  UNL     1      75.032  39.361  71.136  1.00  0.00    -0.300 N 
HETATM   16  C10 UNL     1      75.376  38.122  71.670  1.00  0.00     0.366 C 
HETATM   17  O1  UNL     1      76.292  37.360  71.377  1.00  0.00    -0.238 OA
ATOM     18  H2  UNL     1      74.221  39.835  71.532  1.00  0.00     0.171 HD
BRANCH  16  19
HETATM   19  O2  UNL     1      74.561  37.646  72.712  1.00  0.00    -0.294 OA
BRANCH  19  20
HETATM   20  C11 UNL     1      73.566  36.683  72.532  1.00  0.00     0.061 C 
HETATM   21  C12 UNL     1      73.990  35.420  73.245  1.00  0.00     0.046 C 
HETATM   22  C13 UNL     1      72.293  37.199  73.184  1.00  0.00     0.046 C 
HETATM   23  C14 UNL     1      73.258  36.344  71.117  1.00  0.00     0.046 C 
ENDBRANCH  19  20
ENDBRANCH  16  19
ENDBRANCH  11  15
TORSDOF 3
ENDMDL
MODEL 4
REMARK VINA RESULT: -6.384510313      1.902      3.683
REMARK  3 active torsions:
REMARK  status: ('A' for Active; 'I' for Inactive)
REMARK    1  A    between atoms: C9_11  and  N2_12 
REMARK       I    between atoms: N2_12  and  C10_14 
REMARK    2  A    between atoms: C10_14  and  O2_16 
REMARK    3  A    between atoms: O2_16  and  C11_17 
ROOT
HETATM    1  C1  UNL     1      74.682  41.181  67.350  1.00  0.00     0.089 C 
HETATM    2  C2  UNL     1      75.716  40.962  68.410  1.00  0.00     0.078 A 
HETATM    3  N1  UNL     1      76.789  41.729  68.673  1.00  0.00    -0.344 N 
ATOM      4  H1  UNL     1      77.057  42.582  68.183  1.00  0.00     0.167 HD
HETATM    5  C3  UNL     1      77.452  41.154  69.717  1.00  0.00     0.069 A 
HETATM    6  C4  UNL     1      78.603  41.543  70.363  1.00  0.00    -0.027 A 
HETATM    7  C5  UNL     1      79.358  42.756  69.983  1.00  0.00     0.051 C 
HETATM    8  C6  UNL     1      79.032  40.747  71.396  1.00  0.00    -0.051 A 
HETATM    9  C7  UNL     1      80.268  41.150  72.104  1.00  0.00     0.049 C 
HETATM   10  C8  UNL     1      78.349  39.587  71.791  1.00  0.00     0.039 A 
HETATM   11  C9  UNL     1      77.199  39.186  71.156  1.00  0.00     0.066 A 
HETATM   12  C15 UNL     1      76.784  40.022  70.102  1.00  0.00     0.088 A 
HETATM   13  N3  UNL     1      75.732  39.936  69.283  1.00  0.00    -0.343 N 
ATOM     14  H3  UNL     1      75.033  39.194  69.315  1.00  0.00     0.167 HD
ENDROOT
BRANCH  11  15
HETATM   15  N2  UNL     1      76.435  38.041  71.472  1.00  0.00    -0.300 N 
HETATM   16  C10 UNL     1      75.789  37.824  72.685  1.00  0.00     0.366 C 
HETATM   17  O1  UNL     1      75.734  38.525  73.691  1.00  0.00    -0.238 OA
ATOM     18  H2  UNL     1      76.350  37.319  70.757  1.00  0.00     0.171 HD
BRANCH  16  19
HETATM   19  O2  UNL     1      75.077  36.616  72.803  1.00  0.00    -0.294 OA
BRANCH  19  20
HETATM   20  C11 UNL     1      73.734  36.477  72.450  1.00  0.00     0.061 C 
HETATM   21  C12 UNL     1      73.194  35.228  73.107  1.00  0.00     0.046 C 
HETATM   22  C13 UNL     1      72.979  37.676  73.002  1.00  0.00     0.046 C 
HETATM   23  C14 UNL     1      73.466  36.393  70.988  1.00  0.00     0.046 C 
ENDBRANCH  19  20
ENDBRANCH  16  19
ENDBRANCH  11  15
TORSDOF 3
ENDMDL
MODEL 5
REMARK VINA RESULT: -6.326674986      2.475      6.250
REMARK  3 active torsions:
REMARK  status: ('A' for Active; 'I' for Inactive)
REMARK    1  A    between atoms: C9_11  and  N2_12 
REMARK       I    between atoms: N2_12  and  C10_14 
REMARK    2  A    between atoms: C10_14  and  O2_16 
REMARK    3  A    between atoms: O2_16  and  C11_17 
ROOT
HETATM    1  C1  UNL     1      74.876  39.915  66.479  1.00  0.00     0.089 C 
HETATM    2  C2  UNL     1      75.036  39.446  67.891  1.00  0.00     0.078 A 
HETATM    3  N1  UNL     1      74.434  38.395  68.475  1.00  0.00    -0.344 N 
ATOM      4  H1  UNL     1      73.772  37.756  68.034  1.00  0.00     0.167 HD
HETATM    5  C3  UNL     1      74.872  38.341  69.765  1.00  0.00     0.069 A 
HETATM    6  C4  UNL     1      74.561  37.460  70.775  1.00  0.00    -0.027 A 
HETATM    7  C5  UNL     1      73.618  36.337  70.589  1.00  0.00     0.051 C 
HETATM    8  C6  UNL     1      75.172  37.666  71.987  1.00  0.00    -0.051 A 
HETATM    9  C7  UNL     1      74.851  36.727  73.085  1.00  0.00     0.049 C 
HETATM   10  C8  UNL     1      76.074  38.718  72.210  1.00  0.00     0.039 A 
HETATM   11  C9  UNL     1      76.394  39.605  71.212  1.00  0.00     0.066 A 
HETATM   12  C15 UNL     1      75.752  39.368  69.982  1.00  0.00     0.088 A 
HETATM   13  N3  UNL     1      75.827  40.021  68.818  1.00  0.00    -0.343 N 
ATOM     14  H3  UNL     1      76.406  40.844  68.654  1.00  0.00     0.167 HD
ENDROOT
BRANCH  11  15
HETATM   15  N2  UNL     1      77.285  40.694  71.327  1.00  0.00    -0.300 N 
HETATM   16  C10 UNL     1      78.673  40.599  71.269  1.00  0.00     0.366 C 
HETATM   17  O1  UNL     1      79.394  39.618  71.114  1.00  0.00    -0.238 OA
ATOM     18  H2  UNL     1      76.882  41.621  71.463  1.00  0.00     0.171 HD
BRANCH  16  19
HETATM   19  O2  UNL     1      79.385  41.804  71.407  1.00  0.00    -0.294 OA
BRANCH  19  20
HETATM   20  C11 UNL     1      79.329  42.841  70.475  1.00  0.00     0.061 C 
HETATM   21  C12 UNL     1      79.297  42.238  69.090  1.00  0.00     0.046 C 
HETATM   22  C13 UNL     1      78.030  43.600  70.699  1.00  0.00     0.046 C 
HETATM   23  C14 UNL     1      80.452  43.815  70.538  1.00  0.00     0.046 C 
ENDBRANCH  19  20
ENDBRANCH  16  19
ENDBRANCH  11  15
TORSDOF 3
ENDMDL
