MODEL 1
REMARK VINA RESULT: -7.583266180      0.000      0.000
REMARK  1 active torsions:
REMARK  status: ('A' for Active; 'I' for Inactive)
REMARK    1  A    between atoms: C9_12  and  C10_13 
ROOT
HETATM    1  C1  UNL     1      80.221  43.047  67.852  1.00  0.00     0.049 C 
HETATM    2  C2  UNL     1      79.247  42.104  68.459  1.00  0.00    -0.053 A 
HETATM    3  C3  UNL     1      79.200  41.923  69.824  1.00  0.00     0.015 A 
HETATM    4  C4  UNL     1      78.291  41.043  70.382  1.00  0.00    -0.048 A 
HETATM    5  C5  UNL     1      78.255  40.861  71.853  1.00  0.00     0.049 C 
HETATM    6  C6  UNL     1      77.418  40.330  69.590  1.00  0.00     0.010 A 
HETATM    7  C7  UNL     1      77.484  40.530  68.204  1.00  0.00     0.051 A 
HETATM    8  N1  UNL     1      76.555  39.742  67.651  1.00  0.00    -0.349 N 
ATOM      9  H1  UNL     1      76.359  39.664  66.653  1.00  0.00     0.166 HD
HETATM   10  C8  UNL     1      75.911  39.058  68.647  1.00  0.00     0.086 A 
HETATM   11  S1  UNL     1      74.699  37.918  69.031  1.00  0.00    -0.068 SA
HETATM   12  C9  UNL     1      74.860  37.895  70.723  1.00  0.00     0.053 A 
HETATM   13  C12 UNL     1      75.872  38.789  70.951  1.00  0.00     0.038 A 
HETATM   14  C13 UNL     1      76.413  39.391  69.870  1.00  0.00     0.012 A 
HETATM   15  C14 UNL     1      78.386  41.404  67.646  1.00  0.00    -0.028 A 
HETATM   16  C15 UNL     1      78.437  41.597  66.173  1.00  0.00     0.051 C 
ENDROOT
BRANCH  12  17
HETATM   17  C10 UNL     1      74.090  37.097  71.698  1.00  0.00     0.138 A 
HETATM   18  N2  UNL     1      73.408  36.000  71.426  1.00  0.00    -0.335 N 
HETATM   19  C11 UNL     1      72.864  35.606  72.609  1.00  0.00     0.199 A 
ATOM     20  H2  UNL     1      73.308  35.544  70.519  1.00  0.00     0.168 HD
HETATM   21  N3  UNL     1      73.216  36.457  73.587  1.00  0.00    -0.295 N 
HETATM   22  N4  UNL     1      73.979  37.375  72.988  1.00  0.00    -0.283 N 
ATOM     23  H3  UNL     1      72.957  36.412  74.572  1.00  0.00     0.187 HD
ATOM     24  H4  UNL     1      74.412  38.172  73.455  1.00  0.00     0.188 HD
ENDBRANCH  12  17
TORSDOF 1
ENDMDL
MODEL 2
REMARK VINA RESULT: -7.251661640      3.063      7.276
REMARK  1 active torsions:
REMARK  status: ('A' for Active; 'I' for Inactive)
REMARK    1  A    between atoms: C9_12  and  C10_13 
ROOT
HETATM    1  C1  UNL     1      73.492  36.320  70.102  1.00  0.00     0.049 C 
HETATM    2  C2  UNL     1      74.494  37.416  70.067  1.00  0.00    -0.053 A 
HETATM    3  C3  UNL     1      74.717  38.127  68.909  1.00  0.00     0.015 A 
HETATM    4  C4  UNL     1      75.651  39.147  68.883  1.00  0.00    -0.048 A 
HETATM    5  C5  UNL     1      75.878  39.902  67.628  1.00  0.00     0.049 C 
HETATM    6  C6  UNL     1      76.376  39.471  70.009  1.00  0.00     0.010 A 
HETATM    7  C7  UNL     1      76.133  38.733  71.176  1.00  0.00     0.051 A 
HETATM    8  N1  UNL     1      76.943  39.221  72.123  1.00  0.00    -0.349 N 
ATOM      9  H1  UNL     1      76.999  38.889  73.086  1.00  0.00     0.166 HD
HETATM   10  C8  UNL     1      77.683  40.239  71.584  1.00  0.00     0.086 A 
HETATM   11  S1  UNL     1      78.883  41.420  71.863  1.00  0.00    -0.068 SA
HETATM   12  C9  UNL     1      78.950  42.124  70.316  1.00  0.00     0.053 A 
HETATM   13  C12 UNL     1      78.021  41.408  69.610  1.00  0.00     0.038 A 
HETATM   14  C13 UNL     1      77.365  40.431  70.273  1.00  0.00     0.012 A 
HETATM   15  C14 UNL     1      75.205  37.719  71.204  1.00  0.00    -0.028 A 
HETATM   16  C15 UNL     1      74.966  36.951  72.454  1.00  0.00     0.051 C 
ENDROOT
BRANCH  12  17
HETATM   17  C10 UNL     1      79.808  43.236  69.860  1.00  0.00     0.138 A 
HETATM   18  N2  UNL     1      80.221  44.244  70.606  1.00  0.00    -0.335 N 
HETATM   19  C11 UNL     1      80.980  45.018  69.783  1.00  0.00     0.199 A 
ATOM     20  H2  UNL     1      80.015  44.409  71.591  1.00  0.00     0.168 HD
HETATM   21  N3  UNL     1      81.025  44.481  68.552  1.00  0.00    -0.295 N 
HETATM   22  N4  UNL     1      80.285  43.372  68.632  1.00  0.00    -0.283 N 
ATOM     23  H3  UNL     1      81.516  44.842  67.735  1.00  0.00     0.187 HD
ATOM     24  H4  UNL     1      80.113  42.726  67.862  1.00  0.00     0.188 HD
ENDBRANCH  12  17
TORSDOF 1
ENDMDL
MODEL 3
REMARK VINA RESULT: -7.236022260      3.505      7.140
REMARK  1 active torsions:
REMARK  status: ('A' for Active; 'I' for Inactive)
REMARK    1  A    between atoms: C9_12  and  C10_13 
ROOT
HETATM    1  C1  UNL     1      73.568  37.140  68.674  1.00  0.00     0.049 C 
HETATM    2  C2  UNL     1      74.573  38.201  68.939  1.00  0.00    -0.053 A 
HETATM    3  C3  UNL     1      74.568  39.372  68.214  1.00  0.00     0.015 A 
HETATM    4  C4  UNL     1      75.508  40.355  68.466  1.00  0.00    -0.048 A 
HETATM    5  C5  UNL     1      75.487  41.609  67.676  1.00  0.00     0.049 C 
HETATM    6  C6  UNL     1      76.465  40.186  69.442  1.00  0.00     0.010 A 
HETATM    7  C7  UNL     1      76.451  38.986  70.167  1.00  0.00     0.051 A 
HETATM    8  N1  UNL     1      77.458  39.049  71.046  1.00  0.00    -0.349 N 
ATOM      9  H1  UNL     1      77.707  38.323  71.719  1.00  0.00     0.166 HD
HETATM   10  C8  UNL     1      78.099  40.249  70.892  1.00  0.00     0.086 A 
HETATM   11  S1  UNL     1      79.369  41.257  71.428  1.00  0.00    -0.068 SA
HETATM   12  C9  UNL     1      79.128  42.585  70.394  1.00  0.00     0.053 A 
HETATM   13  C12 UNL     1      78.048  42.203  69.644  1.00  0.00     0.038 A 
HETATM   14  C13 UNL     1      77.517  40.989  69.908  1.00  0.00     0.012 A 
HETATM   15  C14 UNL     1      75.519  38.007  69.919  1.00  0.00    -0.028 A 
HETATM   16  C15 UNL     1      75.526  36.743  70.702  1.00  0.00     0.051 C 
ENDROOT
BRANCH  12  17
HETATM   17  C10 UNL     1      79.905  43.840  70.330  1.00  0.00     0.138 A 
HETATM   18  N2  UNL     1      80.783  44.153  69.395  1.00  0.00    -0.335 N 
HETATM   19  C11 UNL     1      81.249  45.386  69.731  1.00  0.00     0.199 A 
ATOM     20  H2  UNL     1      81.055  43.589  68.589  1.00  0.00     0.168 HD
HETATM   21  N3  UNL     1      80.657  45.813  70.859  1.00  0.00    -0.295 N 
HETATM   22  N4  UNL     1      79.826  44.827  71.208  1.00  0.00    -0.283 N 
ATOM     23  H3  UNL     1      80.809  46.697  71.344  1.00  0.00     0.187 HD
ATOM     24  H4  UNL     1      79.220  44.835  72.028  1.00  0.00     0.188 HD
ENDBRANCH  12  17
TORSDOF 1
ENDMDL
MODEL 4
REMARK VINA RESULT: -7.042243056      2.567      6.814
REMARK  1 active torsions:
REMARK  status: ('A' for Active; 'I' for Inactive)
REMARK    1  A    between atoms: C9_12  and  C10_13 
ROOT
HETATM    1  C1  UNL     1      72.728  35.646  72.383  1.00  0.00     0.049 C 
HETATM    2  C2  UNL     1      73.699  36.697  71.986  1.00  0.00    -0.053 A 
HETATM    3  C3  UNL     1      74.254  37.534  72.929  1.00  0.00     0.015 A 
HETATM    4  C4  UNL     1      75.158  38.511  72.553  1.00  0.00    -0.048 A 
HETATM    5  C5  UNL     1      75.744  39.402  73.581  1.00  0.00     0.049 C 
HETATM    6  C6  UNL     1      75.522  38.668  71.234  1.00  0.00     0.010 A 
HETATM    7  C7  UNL     1      74.945  37.805  70.291  1.00  0.00     0.051 A 
HETATM    8  N1  UNL     1      75.441  38.143  69.096  1.00  0.00    -0.349 N 
ATOM      9  H1  UNL     1      75.212  37.696  68.208  1.00  0.00     0.166 HD
HETATM   10  C8  UNL     1      76.310  39.189  69.262  1.00  0.00     0.086 A 
HETATM   11  S1  UNL     1      77.378  40.280  68.499  1.00  0.00    -0.068 SA
HETATM   12  C9  UNL     1      77.899  41.160  69.858  1.00  0.00     0.053 A 
HETATM   13  C12 UNL     1      77.215  40.573  70.888  1.00  0.00     0.038 A 
HETATM   14  C13 UNL     1      76.393  39.549  70.574  1.00  0.00     0.012 A 
HETATM   15  C14 UNL     1      74.046  36.833  70.662  1.00  0.00    -0.028 A 
HETATM   16  C15 UNL     1      73.448  35.931  69.643  1.00  0.00     0.051 C 
ENDROOT
BRANCH  12  17
HETATM   17  C10 UNL     1      78.856  42.284  69.900  1.00  0.00     0.138 A 
HETATM   18  N2  UNL     1      79.700  42.612  68.938  1.00  0.00    -0.335 N 
HETATM   19  C11 UNL     1      80.376  43.697  69.402  1.00  0.00     0.199 A 
ATOM     20  H2  UNL     1      79.819  42.149  68.038  1.00  0.00     0.168 HD
HETATM   21  N3  UNL     1      79.944  44.022  70.633  1.00  0.00    -0.295 N 
HETATM   22  N4  UNL     1      78.997  43.123  70.914  1.00  0.00    -0.283 N 
ATOM     23  H3  UNL     1      80.268  44.788  71.222  1.00  0.00     0.187 HD
ATOM     24  H4  UNL     1      78.463  43.088  71.782  1.00  0.00     0.188 HD
ENDBRANCH  12  17
TORSDOF 1
ENDMDL
MODEL 5
REMARK VINA RESULT: -6.843977113      1.572      2.467
REMARK  1 active torsions:
REMARK  status: ('A' for Active; 'I' for Inactive)
REMARK    1  A    between atoms: C9_12  and  C10_13 
ROOT
HETATM    1  C1  UNL     1      79.598  42.733  67.259  1.00  0.00     0.049 C 
HETATM    2  C2  UNL     1      78.734  41.808  68.035  1.00  0.00    -0.053 A 
HETATM    3  C3  UNL     1      77.913  40.908  67.393  1.00  0.00     0.015 A 
HETATM    4  C4  UNL     1      77.111  40.049  68.123  1.00  0.00    -0.048 A 
HETATM    5  C5  UNL     1      76.233  39.087  67.415  1.00  0.00     0.049 C 
HETATM    6  C6  UNL     1      77.114  40.076  69.500  1.00  0.00     0.010 A 
HETATM    7  C7  UNL     1      77.958  41.001  70.132  1.00  0.00     0.051 A 
HETATM    8  N1  UNL     1      77.792  40.843  71.450  1.00  0.00    -0.349 N 
ATOM      9  H1  UNL     1      78.272  41.375  72.177  1.00  0.00     0.166 HD
HETATM   10  C8  UNL     1      76.873  39.851  71.661  1.00  0.00     0.086 A 
HETATM   11  S1  UNL     1      76.013  38.937  72.819  1.00  0.00    -0.068 SA
HETATM   12  C9  UNL     1      75.111  37.941  71.777  1.00  0.00     0.053 A 
HETATM   13  C12 UNL     1      75.509  38.352  70.533  1.00  0.00     0.038 A 
HETATM   14  C13 UNL     1      76.424  39.343  70.478  1.00  0.00     0.012 A 
HETATM   15  C14 UNL     1      78.756  41.855  69.410  1.00  0.00    -0.028 A 
HETATM   16  C15 UNL     1      79.642  42.827  70.103  1.00  0.00     0.051 C 
ENDROOT
BRANCH  12  17
HETATM   17  C10 UNL     1      74.137  36.892  72.140  1.00  0.00     0.138 A 
HETATM   18  N2  UNL     1      73.068  36.559  71.440  1.00  0.00    -0.335 N 
HETATM   19  C11 UNL     1      72.470  35.558  72.141  1.00  0.00     0.199 A 
ATOM     20  H2  UNL     1      72.756  36.967  70.558  1.00  0.00     0.168 HD
HETATM   21  N3  UNL     1      73.173  35.289  73.255  1.00  0.00    -0.295 N 
HETATM   22  N4  UNL     1      74.204  36.137  73.226  1.00  0.00    -0.283 N 
ATOM     23  H3  UNL     1      72.963  34.590  73.966  1.00  0.00     0.187 HD
ATOM     24  H4  UNL     1      74.935  36.194  73.935  1.00  0.00     0.188 HD
ENDBRANCH  12  17
TORSDOF 1
ENDMDL
