MODEL 1
REMARK VINA RESULT: -7.560180499      0.000      0.000
REMARK  7 active torsions:
REMARK  status: ('A' for Active; 'I' for Inactive)
REMARK    1  A    between atoms: N1_1  and  C1_4 
REMARK    2  A    between atoms: C2_9  and  C3_10 
REMARK    3  A    between atoms: C3_10  and  S1_11 
REMARK    4  A    between atoms: S1_11  and  C4_12 
REMARK    5  A    between atoms: C4_12  and  C5_13 
REMARK    6  A    between atoms: C5_13  and  C6_14 
REMARK    7  A    between atoms: C9_21  and  N7_22 
ROOT
HETATM    1  C5  UNL     1      17.977  44.790  46.427  1.00  0.00     0.087 C 
ENDROOT
BRANCH   1   2
HETATM    2  C4  UNL     1      17.979  45.701  47.657  1.00  0.00     0.082 C 
BRANCH   2   3
HETATM    3  S1  UNL     1      19.671  45.960  48.254  1.00  0.00    -0.161 SA
BRANCH   3   4
HETATM    4  C3  UNL     1      20.739  46.121  46.787  1.00  0.00     0.160 C 
BRANCH   4   5
HETATM    5  C2  UNL     1      20.759  47.565  46.431  1.00  0.00     0.151 A 
HETATM    6  N3  UNL     1      20.560  48.632  47.211  1.00  0.00    -0.279 N 
HETATM    7  N2  UNL     1      20.665  49.733  46.496  1.00  0.00    -0.263 N 
ATOM      8  H3  UNL     1      20.358  48.599  48.211  1.00  0.00     0.189 HD
HETATM    9  C1  UNL     1      20.939  49.324  45.241  1.00  0.00     0.238 A 
ATOM     10  H2  UNL     1      20.562  50.694  46.823  1.00  0.00     0.190 HD
HETATM   11  O1  UNL     1      20.990  48.014  45.228  1.00  0.00    -0.263 OA
BRANCH   9  12
HETATM   12  N1  UNL     1      21.110  50.131  44.258  1.00  0.00    -0.364 N 
ATOM     13  H12 UNL     1      20.496  50.885  43.949  1.00  0.00     0.159 HD
ATOM     14  H11 UNL     1      21.926  50.104  43.647  1.00  0.00     0.159 HD
ENDBRANCH   9  12
ENDBRANCH   4   5
ENDBRANCH   3   4
ENDBRANCH   2   3
ENDBRANCH   1   2
BRANCH   1  15
HETATM   15  C6  UNL     1      16.585  44.325  46.170  1.00  0.00     0.084 A 
HETATM   16  N4  UNL     1      16.289  43.028  46.283  1.00  0.00    -0.333 N 
HETATM   17  C7  UNL     1      15.067  42.532  46.067  1.00  0.00     0.145 A 
ATOM     18  H4  UNL     1      17.033  42.383  46.547  1.00  0.00     0.168 HD
HETATM   19  N5  UNL     1      14.894  41.142  46.222  1.00  0.00    -0.081 NA
HETATM   20  C8  UNL     1      14.060  43.394  45.712  1.00  0.00     0.131 A 
HETATM   21  N6  UNL     1      12.762  42.887  45.479  1.00  0.00    -0.095 NA
HETATM   22  C9  UNL     1      14.367  44.731  45.597  1.00  0.00     0.128 A 
HETATM   23  N8  UNL     1      15.624  45.179  45.827  1.00  0.00    -0.331 N 
ATOM     24  H8  UNL     1      15.834  46.173  45.737  1.00  0.00     0.168 HD
BRANCH  22  25
HETATM   25  N7  UNL     1      13.467  45.590  45.266  1.00  0.00    -0.384 N 
ATOM     26  H72 UNL     1      13.350  45.808  44.276  1.00  0.00     0.157 HD
ATOM     27  H71 UNL     1      12.886  46.040  45.975  1.00  0.00     0.157 HD
ENDBRANCH  22  25
ENDBRANCH   1  15
TORSDOF 7
ENDMDL
MODEL 2
REMARK VINA RESULT: -7.408948935      1.380      2.379
REMARK  7 active torsions:
REMARK  status: ('A' for Active; 'I' for Inactive)
REMARK    1  A    between atoms: N1_1  and  C1_4 
REMARK    2  A    between atoms: C2_9  and  C3_10 
REMARK    3  A    between atoms: C3_10  and  S1_11 
REMARK    4  A    between atoms: S1_11  and  C4_12 
REMARK    5  A    between atoms: C4_12  and  C5_13 
REMARK    6  A    between atoms: C5_13  and  C6_14 
REMARK    7  A    between atoms: C9_21  and  N7_22 
ROOT
HETATM    1  C5  UNL     1      17.835  44.431  46.400  1.00  0.00     0.087 C 
ENDROOT
BRANCH   1   2
HETATM    2  C4  UNL     1      18.566  45.208  47.498  1.00  0.00     0.082 C 
BRANCH   2   3
HETATM    3  S1  UNL     1      20.063  45.987  46.835  1.00  0.00    -0.161 SA
BRANCH   3   4
HETATM    4  C3  UNL     1      20.108  47.693  47.472  1.00  0.00     0.160 C 
BRANCH   4   5
HETATM    5  C2  UNL     1      20.624  48.546  46.370  1.00  0.00     0.151 A 
HETATM    6  N3  UNL     1      20.882  49.859  46.364  1.00  0.00    -0.279 N 
HETATM    7  N2  UNL     1      21.328  50.220  45.179  1.00  0.00    -0.263 N 
ATOM      8  H3  UNL     1      20.752  50.485  47.158  1.00  0.00     0.189 HD
HETATM    9  C1  UNL     1      21.345  49.092  44.439  1.00  0.00     0.238 A 
ATOM     10  H2  UNL     1      21.604  51.156  44.881  1.00  0.00     0.190 HD
HETATM   11  O1  UNL     1      20.916  48.098  45.180  1.00  0.00    -0.263 OA
BRANCH   9  12
HETATM   12  N1  UNL     1      21.728  49.058  43.215  1.00  0.00    -0.364 N 
ATOM     13  H12 UNL     1      22.618  49.368  42.826  1.00  0.00     0.159 HD
ATOM     14  H11 UNL     1      21.150  48.696  42.457  1.00  0.00     0.159 HD
ENDBRANCH   9  12
ENDBRANCH   4   5
ENDBRANCH   3   4
ENDBRANCH   2   3
ENDBRANCH   1   2
BRANCH   1  15
HETATM   15  C6  UNL     1      16.413  44.875  46.358  1.00  0.00     0.084 A 
HETATM   16  N4  UNL     1      16.041  45.972  47.022  1.00  0.00    -0.333 N 
HETATM   17  C7  UNL     1      14.788  46.433  47.036  1.00  0.00     0.145 A 
ATOM     18  H4  UNL     1      16.751  46.485  47.545  1.00  0.00     0.168 HD
HETATM   19  N5  UNL     1      14.535  47.604  47.779  1.00  0.00    -0.081 NA
HETATM   20  C8  UNL     1      13.827  45.750  46.334  1.00  0.00     0.131 A 
HETATM   21  N6  UNL     1      12.496  46.222  46.338  1.00  0.00    -0.095 NA
HETATM   22  C9  UNL     1      14.211  44.619  45.649  1.00  0.00     0.128 A 
HETATM   23  N8  UNL     1      15.498  44.196  45.670  1.00  0.00    -0.331 N 
ATOM     24  H8  UNL     1      15.766  43.356  45.157  1.00  0.00     0.168 HD
BRANCH  22  25
HETATM   25  N7  UNL     1      13.357  43.934  44.972  1.00  0.00    -0.384 N 
ATOM     26  H72 UNL     1      13.641  43.015  44.631  1.00  0.00     0.157 HD
ATOM     27  H71 UNL     1      12.424  44.299  44.783  1.00  0.00     0.157 HD
ENDBRANCH  22  25
ENDBRANCH   1  15
TORSDOF 7
ENDMDL
MODEL 3
REMARK VINA RESULT: -7.389260270      2.581      3.256
REMARK  7 active torsions:
REMARK  status: ('A' for Active; 'I' for Inactive)
REMARK    1  A    between atoms: N1_1  and  C1_4 
REMARK    2  A    between atoms: C2_9  and  C3_10 
REMARK    3  A    between atoms: C3_10  and  S1_11 
REMARK    4  A    between atoms: S1_11  and  C4_12 
REMARK    5  A    between atoms: C4_12  and  C5_13 
REMARK    6  A    between atoms: C5_13  and  C6_14 
REMARK    7  A    between atoms: C9_21  and  N7_22 
ROOT
HETATM    1  C5  UNL     1      16.983  47.152  47.669  1.00  0.00     0.087 C 
ENDROOT
BRANCH   1   2
HETATM    2  C4  UNL     1      17.626  45.802  47.998  1.00  0.00     0.082 C 
BRANCH   2   3
HETATM    3  S1  UNL     1      19.221  45.636  47.153  1.00  0.00    -0.161 SA
BRANCH   3   4
HETATM    4  C3  UNL     1      20.367  46.820  47.929  1.00  0.00     0.160 C 
BRANCH   4   5
HETATM    5  C2  UNL     1      20.650  47.868  46.914  1.00  0.00     0.151 A 
HETATM    6  N3  UNL     1      20.550  49.198  47.017  1.00  0.00    -0.279 N 
HETATM    7  N2  UNL     1      20.896  49.761  45.878  1.00  0.00    -0.263 N 
ATOM      8  H3  UNL     1      20.251  49.700  47.853  1.00  0.00     0.189 HD
HETATM    9  C1  UNL     1      21.219  48.743  45.055  1.00  0.00     0.238 A 
ATOM     10  H2  UNL     1      20.916  50.758  45.664  1.00  0.00     0.190 HD
HETATM   11  O1  UNL     1      21.062  47.613  45.702  1.00  0.00    -0.263 OA
BRANCH   9  12
HETATM   12  N1  UNL     1      21.609  48.913  43.844  1.00  0.00    -0.364 N 
ATOM     13  H12 UNL     1      21.036  49.027  43.009  1.00  0.00     0.159 HD
ATOM     14  H11 UNL     1      22.591  48.955  43.573  1.00  0.00     0.159 HD
ENDBRANCH   9  12
ENDBRANCH   4   5
ENDBRANCH   3   4
ENDBRANCH   2   3
ENDBRANCH   1   2
BRANCH   1  15
HETATM   15  C6  UNL     1      15.514  47.059  47.900  1.00  0.00     0.084 A 
HETATM   16  N4  UNL     1      14.726  46.545  46.952  1.00  0.00    -0.333 N 
HETATM   17  C7  UNL     1      13.402  46.428  47.081  1.00  0.00     0.145 A 
ATOM     18  H4  UNL     1      15.157  46.225  46.085  1.00  0.00     0.168 HD
HETATM   19  N5  UNL     1      12.690  45.868  46.001  1.00  0.00    -0.081 NA
HETATM   20  C8  UNL     1      12.813  46.856  48.245  1.00  0.00     0.131 A 
HETATM   21  N6  UNL     1      11.414  46.742  48.399  1.00  0.00    -0.095 NA
HETATM   22  C9  UNL     1      13.627  47.385  49.222  1.00  0.00     0.128 A 
HETATM   23  N8  UNL     1      14.966  47.479  49.037  1.00  0.00    -0.331 N 
ATOM     24  H8  UNL     1      15.554  47.874  49.770  1.00  0.00     0.168 HD
BRANCH  22  25
HETATM   25  N7  UNL     1      13.137  47.805  50.336  1.00  0.00    -0.384 N 
ATOM     26  H72 UNL     1      12.877  47.112  51.038  1.00  0.00     0.157 HD
ATOM     27  H71 UNL     1      13.013  48.802  50.511  1.00  0.00     0.157 HD
ENDBRANCH  22  25
ENDBRANCH   1  15
TORSDOF 7
ENDMDL
MODEL 4
REMARK VINA RESULT: -7.381759030      2.568      3.336
REMARK  7 active torsions:
REMARK  status: ('A' for Active; 'I' for Inactive)
REMARK    1  A    between atoms: N1_1  and  C1_4 
REMARK    2  A    between atoms: C2_9  and  C3_10 
REMARK    3  A    between atoms: C3_10  and  S1_11 
REMARK    4  A    between atoms: S1_11  and  C4_12 
REMARK    5  A    between atoms: C4_12  and  C5_13 
REMARK    6  A    between atoms: C5_13  and  C6_14 
REMARK    7  A    between atoms: C9_21  and  N7_22 
ROOT
HETATM    1  C5  UNL     1      16.980  47.166  47.614  1.00  0.00     0.087 C 
ENDROOT
BRANCH   1   2
HETATM    2  C4  UNL     1      17.645  45.852  48.032  1.00  0.00     0.082 C 
BRANCH   2   3
HETATM    3  S1  UNL     1      19.228  45.640  47.173  1.00  0.00    -0.161 SA
BRANCH   3   4
HETATM    4  C3  UNL     1      20.409  46.805  47.927  1.00  0.00     0.160 C 
BRANCH   4   5
HETATM    5  C2  UNL     1      20.673  47.859  46.913  1.00  0.00     0.151 A 
HETATM    6  N3  UNL     1      20.569  49.188  47.025  1.00  0.00    -0.279 N 
HETATM    7  N2  UNL     1      20.898  49.759  45.885  1.00  0.00    -0.263 N 
ATOM      8  H3  UNL     1      20.278  49.684  47.868  1.00  0.00     0.189 HD
HETATM    9  C1  UNL     1      21.214  48.747  45.052  1.00  0.00     0.238 A 
ATOM     10  H2  UNL     1      20.910  50.757  45.675  1.00  0.00     0.190 HD
HETATM   11  O1  UNL     1      21.071  47.613  45.695  1.00  0.00    -0.263 OA
BRANCH   9  12
HETATM   12  N1  UNL     1      21.588  48.925  43.837  1.00  0.00    -0.364 N 
ATOM     13  H12 UNL     1      22.425  49.399  43.500  1.00  0.00     0.159 HD
ATOM     14  H11 UNL     1      21.057  48.591  43.033  1.00  0.00     0.159 HD
ENDBRANCH   9  12
ENDBRANCH   4   5
ENDBRANCH   3   4
ENDBRANCH   2   3
ENDBRANCH   1   2
BRANCH   1  15
HETATM   15  C6  UNL     1      15.506  47.040  47.788  1.00  0.00     0.084 A 
HETATM   16  N4  UNL     1      14.935  47.461  48.920  1.00  0.00    -0.333 N 
HETATM   17  C7  UNL     1      13.622  47.382  49.154  1.00  0.00     0.145 A 
ATOM     18  H4  UNL     1      15.532  47.864  49.642  1.00  0.00     0.168 HD
HETATM   19  N5  UNL     1      13.153  47.864  50.393  1.00  0.00    -0.081 NA
HETATM   20  C8  UNL     1      12.812  46.842  48.187  1.00  0.00     0.131 A 
HETATM   21  N6  UNL     1      11.422  46.749  48.418  1.00  0.00    -0.095 NA
HETATM   22  C9  UNL     1      13.402  46.409  47.020  1.00  0.00     0.128 A 
HETATM   23  N8  UNL     1      14.740  46.514  46.836  1.00  0.00    -0.331 N 
ATOM     24  H8  UNL     1      15.160  46.188  45.966  1.00  0.00     0.168 HD
BRANCH  22  25
HETATM   25  N7  UNL     1      12.697  45.893  46.075  1.00  0.00    -0.384 N 
ATOM     26  H72 UNL     1      13.175  45.331  45.371  1.00  0.00     0.157 HD
ATOM     27  H71 UNL     1      11.688  46.041  46.032  1.00  0.00     0.157 HD
ENDBRANCH  22  25
ENDBRANCH   1  15
TORSDOF 7
ENDMDL
MODEL 5
REMARK VINA RESULT: -7.305105565      3.589      6.246
REMARK  7 active torsions:
REMARK  status: ('A' for Active; 'I' for Inactive)
REMARK    1  A    between atoms: N1_1  and  C1_4 
REMARK    2  A    between atoms: C2_9  and  C3_10 
REMARK    3  A    between atoms: C3_10  and  S1_11 
REMARK    4  A    between atoms: S1_11  and  C4_12 
REMARK    5  A    between atoms: C4_12  and  C5_13 
REMARK    6  A    between atoms: C5_13  and  C6_14 
REMARK    7  A    between atoms: C9_21  and  N7_22 
ROOT
HETATM    1  C5  UNL     1      16.161  45.118  50.090  1.00  0.00     0.087 C 
ENDROOT
BRANCH   1   2
HETATM    2  C4  UNL     1      15.612  46.545  50.176  1.00  0.00     0.082 C 
BRANCH   2   3
HETATM    3  S1  UNL     1      13.920  46.536  50.828  1.00  0.00    -0.161 SA
BRANCH   3   4
HETATM    4  C3  UNL     1      13.019  45.210  49.963  1.00  0.00     0.160 C 
BRANCH   4   5
HETATM    5  C2  UNL     1      12.831  45.666  48.561  1.00  0.00     0.151 A 
HETATM    6  N3  UNL     1      12.054  46.645  48.085  1.00  0.00    -0.279 N 
HETATM    7  N2  UNL     1      12.181  46.719  46.777  1.00  0.00    -0.263 N 
ATOM      8  H3  UNL     1      11.454  47.245  48.652  1.00  0.00     0.189 HD
HETATM    9  C1  UNL     1      13.064  45.756  46.444  1.00  0.00     0.238 A 
ATOM     10  H2  UNL     1      11.710  47.369  46.146  1.00  0.00     0.190 HD
HETATM   11  O1  UNL     1      13.440  45.135  47.536  1.00  0.00    -0.263 OA
BRANCH   9  12
HETATM   12  N1  UNL     1      13.437  45.529  45.237  1.00  0.00    -0.364 N 
ATOM     13  H12 UNL     1      13.428  44.643  44.733  1.00  0.00     0.159 HD
ATOM     14  H11 UNL     1      13.804  46.252  44.619  1.00  0.00     0.159 HD
ENDBRANCH   9  12
ENDBRANCH   4   5
ENDBRANCH   3   4
ENDBRANCH   2   3
ENDBRANCH   1   2
BRANCH   1  15
HETATM   15  C6  UNL     1      16.772  44.914  48.747  1.00  0.00     0.084 A 
HETATM   16  N4  UNL     1      16.108  44.227  47.815  1.00  0.00    -0.333 N 
HETATM   17  C7  UNL     1      16.587  43.999  46.589  1.00  0.00     0.145 A 
ATOM     18  H4  UNL     1      15.187  43.857  48.050  1.00  0.00     0.168 HD
HETATM   19  N5  UNL     1      15.780  43.257  45.703  1.00  0.00    -0.081 NA
HETATM   20  C8  UNL     1      17.825  44.494  46.263  1.00  0.00     0.131 A 
HETATM   21  N6  UNL     1      18.349  44.261  44.972  1.00  0.00    -0.095 NA
HETATM   22  C9  UNL     1      18.509  45.203  47.225  1.00  0.00     0.128 A 
HETATM   23  N8  UNL     1      17.974  45.404  48.454  1.00  0.00    -0.331 N 
ATOM     24  H8  UNL     1      18.494  45.931  49.155  1.00  0.00     0.168 HD
BRANCH  22  25
HETATM   25  N7  UNL     1      19.674  45.693  46.983  1.00  0.00    -0.384 N 
ATOM     26  H72 UNL     1      19.843  46.671  47.217  1.00  0.00     0.157 HD
ATOM     27  H71 UNL     1      20.409  45.118  46.569  1.00  0.00     0.157 HD
ENDBRANCH  22  25
ENDBRANCH   1  15
TORSDOF 7
ENDMDL
