MODEL 1
REMARK VINA RESULT: -7.714225394      0.000      0.000
REMARK  7 active torsions:
REMARK  status: ('A' for Active; 'I' for Inactive)
REMARK    1  A    between atoms: C2_2  and  C3_3 
REMARK    2  A    between atoms: C3_3  and  C4_4 
REMARK    3  A    between atoms: C4_4  and  C5_5 
REMARK    4  A    between atoms: C5_5  and  C6_6 
REMARK    5  A    between atoms: N2_11  and  C8_13 
REMARK    6  A    between atoms: C9_17  and  O2_18 
REMARK    7  A    between atoms: C10_23  and  N6_24 
ROOT
HETATM    1  C8  UNL     1      19.946  46.058  47.320  1.00  0.00     0.339 C 
HETATM    2  N3  UNL     1      21.134  45.215  47.478  1.00  0.00    -0.006 N 
ATOM      3  H31 UNL     1      21.386  44.783  46.590  1.00  0.00     0.285 HD
ATOM      4  H32 UNL     1      20.911  44.379  48.018  1.00  0.00     0.285 HD
HETATM    5  C9  UNL     1      22.254  45.891  48.041  1.00  0.00     0.440 C 
HETATM    6  N4  UNL     1      21.863  46.646  49.182  1.00  0.00    -0.286 N 
ATOM      7  H4  UNL     1      22.248  46.474  50.111  1.00  0.00     0.180 HD
HETATM    8  N5  UNL     1      20.926  47.625  48.938  1.00  0.00    -0.105 NA
HETATM    9  C10 UNL     1      20.259  47.497  47.671  1.00  0.00     0.345 C 
ENDROOT
BRANCH   1  10
HETATM   10  N2  UNL     1      18.864  45.632  48.103  1.00  0.00    -0.337 N 
HETATM   11  C7  UNL     1      17.835  44.953  47.865  1.00  0.00     0.194 A 
HETATM   12  O1  UNL     1      16.916  44.665  48.797  1.00  0.00    -0.218 OA
HETATM   13  C11 UNL     1      17.377  44.358  46.723  1.00  0.00     0.123 A 
HETATM   14  N1  UNL     1      15.967  43.962  48.307  1.00  0.00    -0.261 N 
HETATM   15  C6  UNL     1      16.181  43.723  47.005  1.00  0.00     0.061 A 
ATOM     16  H1  UNL     1      15.160  43.630  48.834  1.00  0.00     0.194 HD
HETATM   17  N7  UNL     1      17.963  44.351  45.439  1.00  0.00    -0.096 NA
ATOM     18  H2  UNL     1      18.925  45.940  49.073  1.00  0.00     0.163 HD
BRANCH  15  19
HETATM   19  C5  UNL     1      15.356  42.954  46.035  1.00  0.00     0.061 C 
BRANCH  19  20
HETATM   20  C4  UNL     1      13.992  43.554  45.856  1.00  0.00     0.006 C 
BRANCH  20  21
HETATM   21  C3  UNL     1      14.045  45.008  45.461  1.00  0.00     0.000 C 
BRANCH  21  22
HETATM   22  C2  UNL     1      13.043  45.844  46.200  1.00  0.00    -0.005 C 
HETATM   23  C1  UNL     1      13.714  46.590  47.332  1.00  0.00     0.005 C 
ENDBRANCH  21  22
ENDBRANCH  20  21
ENDBRANCH  19  20
ENDBRANCH  15  19
ENDBRANCH   1  10
BRANCH   9  24
HETATM   24  N6  UNL     1      20.950  48.204  46.619  1.00  0.00    -0.056 N 
ATOM     25  H63 UNL     1      21.443  47.553  46.008  1.00  0.00     0.276 HD
ATOM     26  H62 UNL     1      20.287  48.595  45.949  1.00  0.00     0.276 HD
ATOM     27  H61 UNL     1      21.583  48.925  46.965  1.00  0.00     0.276 HD
ENDBRANCH   9  24
BRANCH   5  28
HETATM   28  O2  UNL     1      23.141  44.889  48.501  1.00  0.00    -0.354 OA
ATOM     29  H2  UNL     1      23.696  45.297  49.155  1.00  0.00     0.214 HD
ENDBRANCH   5  28
TORSDOF 7
ENDMDL
MODEL 2
REMARK VINA RESULT: -7.643213316      1.275      1.893
REMARK  7 active torsions:
REMARK  status: ('A' for Active; 'I' for Inactive)
REMARK    1  A    between atoms: C2_2  and  C3_3 
REMARK    2  A    between atoms: C3_3  and  C4_4 
REMARK    3  A    between atoms: C4_4  and  C5_5 
REMARK    4  A    between atoms: C5_5  and  C6_6 
REMARK    5  A    between atoms: N2_11  and  C8_13 
REMARK    6  A    between atoms: C9_17  and  O2_18 
REMARK    7  A    between atoms: C10_23  and  N6_24 
ROOT
HETATM    1  C8  UNL     1      19.985  46.062  47.340  1.00  0.00     0.339 C 
HETATM    2  N3  UNL     1      21.164  45.212  47.525  1.00  0.00    -0.006 N 
ATOM      3  H31 UNL     1      21.419  44.759  46.647  1.00  0.00     0.285 HD
ATOM      4  H32 UNL     1      20.929  44.390  48.081  1.00  0.00     0.285 HD
HETATM    5  C9  UNL     1      22.286  45.889  48.081  1.00  0.00     0.440 C 
HETATM    6  N4  UNL     1      21.894  46.672  49.204  1.00  0.00    -0.286 N 
ATOM      7  H4  UNL     1      22.271  46.516  50.139  1.00  0.00     0.180 HD
HETATM    8  N5  UNL     1      20.968  47.654  48.932  1.00  0.00    -0.105 NA
HETATM    9  C10 UNL     1      20.309  47.506  47.663  1.00  0.00     0.345 C 
ENDROOT
BRANCH   1  10
HETATM   10  N2  UNL     1      18.893  45.663  48.123  1.00  0.00    -0.337 N 
HETATM   11  C7  UNL     1      17.837  45.030  47.880  1.00  0.00     0.194 A 
HETATM   12  O1  UNL     1      16.914  44.760  48.815  1.00  0.00    -0.218 OA
HETATM   13  C11 UNL     1      17.346  44.479  46.730  1.00  0.00     0.123 A 
HETATM   14  N1  UNL     1      15.934  44.106  48.319  1.00  0.00    -0.261 N 
HETATM   15  C6  UNL     1      16.127  43.886  47.010  1.00  0.00     0.061 A 
ATOM     16  H1  UNL     1      15.119  43.794  48.846  1.00  0.00     0.194 HD
HETATM   17  N7  UNL     1      17.921  44.476  45.442  1.00  0.00    -0.096 NA
ATOM     18  H2  UNL     1      18.975  45.947  49.100  1.00  0.00     0.163 HD
BRANCH  15  19
HETATM   19  C5  UNL     1      15.265  43.171  46.031  1.00  0.00     0.061 C 
BRANCH  19  20
HETATM   20  C4  UNL     1      15.205  41.697  46.306  1.00  0.00     0.006 C 
BRANCH  20  21
HETATM   21  C3  UNL     1      14.433  40.942  45.253  1.00  0.00     0.000 C 
BRANCH  21  22
HETATM   22  C2  UNL     1      13.408  41.796  44.567  1.00  0.00    -0.005 C 
HETATM   23  C1  UNL     1      12.088  41.727  45.303  1.00  0.00     0.005 C 
ENDBRANCH  21  22
ENDBRANCH  20  21
ENDBRANCH  19  20
ENDBRANCH  15  19
ENDBRANCH   1  10
BRANCH   9  24
HETATM   24  N6  UNL     1      21.014  48.184  46.602  1.00  0.00    -0.056 N 
ATOM     25  H63 UNL     1      21.436  47.512  45.960  1.00  0.00     0.276 HD
ATOM     26  H62 UNL     1      20.360  48.639  45.965  1.00  0.00     0.276 HD
ATOM     27  H61 UNL     1      21.711  48.847  46.940  1.00  0.00     0.276 HD
ENDBRANCH   9  24
BRANCH   5  28
HETATM   28  O2  UNL     1      23.160  44.890  48.570  1.00  0.00    -0.354 OA
ATOM     29  H2  UNL     1      22.831  44.633  49.422  1.00  0.00     0.214 HD
ENDBRANCH   5  28
TORSDOF 7
ENDMDL
MODEL 3
REMARK VINA RESULT: -7.434657577      1.700      2.222
REMARK  7 active torsions:
REMARK  status: ('A' for Active; 'I' for Inactive)
REMARK    1  A    between atoms: C2_2  and  C3_3 
REMARK    2  A    between atoms: C3_3  and  C4_4 
REMARK    3  A    between atoms: C4_4  and  C5_5 
REMARK    4  A    between atoms: C5_5  and  C6_6 
REMARK    5  A    between atoms: N2_11  and  C8_13 
REMARK    6  A    between atoms: C9_17  and  O2_18 
REMARK    7  A    between atoms: C10_23  and  N6_24 
ROOT
HETATM    1  C8  UNL     1      19.375  46.328  47.147  1.00  0.00     0.339 C 
HETATM    2  N3  UNL     1      19.969  45.489  46.103  1.00  0.00    -0.006 N 
ATOM      3  H31 UNL     1      19.575  45.720  45.191  1.00  0.00     0.285 HD
ATOM      4  H32 UNL     1      19.645  44.526  46.191  1.00  0.00     0.285 HD
HETATM    5  C9  UNL     1      21.391  45.537  46.059  1.00  0.00     0.440 C 
HETATM    6  N4  UNL     1      21.939  45.397  47.365  1.00  0.00    -0.286 N 
ATOM      7  H4  UNL     1      22.562  44.630  47.618  1.00  0.00     0.180 HD
HETATM    8  N5  UNL     1      21.564  46.374  48.260  1.00  0.00    -0.105 NA
HETATM    9  C10 UNL     1      20.437  47.159  47.836  1.00  0.00     0.345 C 
ENDROOT
BRANCH   1  10
HETATM   10  N2  UNL     1      18.685  45.589  48.118  1.00  0.00    -0.337 N 
HETATM   11  C7  UNL     1      17.659  44.867  48.092  1.00  0.00     0.194 A 
HETATM   12  O1  UNL     1      17.174  44.245  49.176  1.00  0.00    -0.218 OA
HETATM   13  C11 UNL     1      16.810  44.521  47.078  1.00  0.00     0.123 A 
HETATM   14  N1  UNL     1      16.126  43.572  48.891  1.00  0.00    -0.261 N 
HETATM   15  C6  UNL     1      15.828  43.692  47.588  1.00  0.00     0.061 A 
ATOM     16  H1  UNL     1      15.590  43.021  49.560  1.00  0.00     0.194 HD
HETATM   17  N7  UNL     1      16.859  44.906  45.721  1.00  0.00    -0.096 NA
ATOM     18  H2  UNL     1      19.108  45.652  49.045  1.00  0.00     0.163 HD
BRANCH  15  19
HETATM   19  C5  UNL     1      14.711  43.090  46.812  1.00  0.00     0.061 C 
BRANCH  19  20
HETATM   20  C4  UNL     1      15.118  41.811  46.140  1.00  0.00     0.006 C 
BRANCH  20  21
HETATM   21  C3  UNL     1      14.147  41.387  45.067  1.00  0.00     0.000 C 
BRANCH  21  22
HETATM   22  C2  UNL     1      12.908  42.232  45.043  1.00  0.00    -0.005 C 
HETATM   23  C1  UNL     1      11.721  41.439  45.546  1.00  0.00     0.005 C 
ENDBRANCH  21  22
ENDBRANCH  20  21
ENDBRANCH  19  20
ENDBRANCH  15  19
ENDBRANCH   1  10
BRANCH   9  24
HETATM   24  N6  UNL     1      20.838  48.318  47.075  1.00  0.00    -0.056 N 
ATOM     25  H63 UNL     1      21.577  48.831  47.558  1.00  0.00     0.276 HD
ATOM     26  H62 UNL     1      21.347  48.042  46.235  1.00  0.00     0.276 HD
ATOM     27  H61 UNL     1      20.062  48.936  46.842  1.00  0.00     0.276 HD
ENDBRANCH   9  24
BRANCH   5  28
HETATM   28  O2  UNL     1      21.811  44.407  45.319  1.00  0.00    -0.354 OA
ATOM     29  H2  UNL     1      21.756  43.662  45.905  1.00  0.00     0.214 HD
ENDBRANCH   5  28
TORSDOF 7
ENDMDL
MODEL 4
REMARK VINA RESULT: -7.161292153      1.673      2.472
REMARK  7 active torsions:
REMARK  status: ('A' for Active; 'I' for Inactive)
REMARK    1  A    between atoms: C2_2  and  C3_3 
REMARK    2  A    between atoms: C3_3  and  C4_4 
REMARK    3  A    between atoms: C4_4  and  C5_5 
REMARK    4  A    between atoms: C5_5  and  C6_6 
REMARK    5  A    between atoms: N2_11  and  C8_13 
REMARK    6  A    between atoms: C9_17  and  O2_18 
REMARK    7  A    between atoms: C10_23  and  N6_24 
ROOT
HETATM    1  C8  UNL     1      19.991  46.424  49.231  1.00  0.00     0.339 C 
HETATM    2  N3  UNL     1      20.540  46.111  47.910  1.00  0.00    -0.006 N 
ATOM      3  H31 UNL     1      20.404  46.894  47.271  1.00  0.00     0.285 HD
ATOM      4  H32 UNL     1      19.968  45.407  47.443  1.00  0.00     0.285 HD
HETATM    5  C9  UNL     1      21.907  45.713  47.929  1.00  0.00     0.440 C 
HETATM    6  N4  UNL     1      22.135  44.747  48.949  1.00  0.00    -0.286 N 
ATOM      7  H4  UNL     1      22.477  43.807  48.748  1.00  0.00     0.180 HD
HETATM    8  N5  UNL     1      21.857  45.176  50.228  1.00  0.00    -0.105 NA
HETATM    9  C10 UNL     1      21.076  46.381  50.287  1.00  0.00     0.345 C 
ENDROOT
BRANCH   1  10
HETATM   10  N2  UNL     1      18.958  45.557  49.616  1.00  0.00    -0.337 N 
HETATM   11  C7  UNL     1      17.823  45.298  49.147  1.00  0.00     0.194 A 
HETATM   12  O1  UNL     1      16.988  44.408  49.701  1.00  0.00    -0.218 OA
HETATM   13  C11 UNL     1      17.155  45.776  48.055  1.00  0.00     0.123 A 
HETATM   14  N1  UNL     1      15.899  44.323  49.038  1.00  0.00    -0.261 N 
HETATM   15  C6  UNL     1      15.922  45.152  47.984  1.00  0.00     0.061 A 
ATOM     16  H1  UNL     1      15.120  43.710  49.277  1.00  0.00     0.194 HD
HETATM   17  N7  UNL     1      17.580  46.741  47.117  1.00  0.00    -0.096 NA
ATOM     18  H2  UNL     1      19.176  45.023  50.458  1.00  0.00     0.163 HD
BRANCH  15  19
HETATM   19  C5  UNL     1      14.889  45.388  46.940  1.00  0.00     0.061 C 
BRANCH  19  20
HETATM   20  C4  UNL     1      15.013  44.422  45.798  1.00  0.00     0.006 C 
BRANCH  20  21
HETATM   21  C3  UNL     1      13.764  43.603  45.593  1.00  0.00     0.000 C 
BRANCH  21  22
HETATM   22  C2  UNL     1      14.057  42.222  45.086  1.00  0.00    -0.005 C 
HETATM   23  C1  UNL     1      14.856  41.444  46.109  1.00  0.00     0.005 C 
ENDBRANCH  21  22
ENDBRANCH  20  21
ENDBRANCH  19  20
ENDBRANCH  15  19
ENDBRANCH   1  10
BRANCH   9  24
HETATM   24  N6  UNL     1      21.902  47.565  50.305  1.00  0.00    -0.056 N 
ATOM     25  H63 UNL     1      21.735  48.111  51.150  1.00  0.00     0.276 HD
ATOM     26  H62 UNL     1      22.882  47.320  50.453  1.00  0.00     0.276 HD
ATOM     27  H61 UNL     1      21.796  48.144  49.472  1.00  0.00     0.276 HD
ENDBRANCH   9  24
BRANCH   5  28
HETATM   28  O2  UNL     1      22.157  45.067  46.695  1.00  0.00    -0.354 OA
ATOM     29  H2  UNL     1      22.933  44.534  46.820  1.00  0.00     0.214 HD
ENDBRANCH   5  28
TORSDOF 7
ENDMDL
MODEL 5
REMARK VINA RESULT: -7.109000163      2.738      6.805
REMARK  7 active torsions:
REMARK  status: ('A' for Active; 'I' for Inactive)
REMARK    1  A    between atoms: C2_2  and  C3_3 
REMARK    2  A    between atoms: C3_3  and  C4_4 
REMARK    3  A    between atoms: C4_4  and  C5_5 
REMARK    4  A    between atoms: C5_5  and  C6_6 
REMARK    5  A    between atoms: N2_11  and  C8_13 
REMARK    6  A    between atoms: C9_17  and  O2_18 
REMARK    7  A    between atoms: C10_23  and  N6_24 
ROOT
HETATM    1  C8  UNL     1      15.189  44.673  46.913  1.00  0.00     0.339 C 
HETATM    2  N3  UNL     1      14.259  43.634  47.362  1.00  0.00    -0.006 N 
ATOM      3  H31 UNL     1      13.672  43.983  48.120  1.00  0.00     0.285 HD
ATOM      4  H32 UNL     1      14.759  42.896  47.858  1.00  0.00     0.285 HD
HETATM    5  C9  UNL     1      13.457  43.084  46.322  1.00  0.00     0.440 C 
HETATM    6  N4  UNL     1      14.256  42.765  45.188  1.00  0.00    -0.286 N 
ATOM      7  H4  UNL     1      14.336  41.815  44.823  1.00  0.00     0.180 HD
HETATM    8  N5  UNL     1      14.913  43.834  44.621  1.00  0.00    -0.105 NA
HETATM    9  C10 UNL     1      14.958  45.005  45.453  1.00  0.00     0.345 C 
ENDROOT
BRANCH   1  10
HETATM   10  N2  UNL     1      16.534  44.317  47.083  1.00  0.00    -0.337 N 
HETATM   11  C7  UNL     1      17.601  44.973  47.166  1.00  0.00     0.194 A 
HETATM   12  O1  UNL     1      18.801  44.399  47.333  1.00  0.00    -0.218 OA
HETATM   13  C11 UNL     1      17.855  46.315  47.121  1.00  0.00     0.123 A 
HETATM   14  N1  UNL     1      19.728  45.278  47.389  1.00  0.00    -0.261 N 
HETATM   15  C6  UNL     1      19.217  46.511  47.264  1.00  0.00     0.061 A 
ATOM     16  H1  UNL     1      20.718  45.069  47.510  1.00  0.00     0.194 HD
HETATM   17  N7  UNL     1      16.941  47.377  46.957  1.00  0.00    -0.096 NA
ATOM     18  H2  UNL     1      16.676  43.309  47.156  1.00  0.00     0.163 HD
BRANCH  15  19
HETATM   19  C5  UNL     1      19.907  47.829  47.272  1.00  0.00     0.061 C 
BRANCH  19  20
HETATM   20  C4  UNL     1      20.871  47.967  46.130  1.00  0.00     0.006 C 
BRANCH  20  21
HETATM   21  C3  UNL     1      21.035  49.397  45.681  1.00  0.00     0.000 C 
BRANCH  21  22
HETATM   22  C2  UNL     1      21.037  49.536  44.187  1.00  0.00    -0.005 C 
HETATM   23  C1  UNL     1      19.826  50.319  43.731  1.00  0.00     0.005 C 
ENDBRANCH  21  22
ENDBRANCH  20  21
ENDBRANCH  19  20
ENDBRANCH  15  19
ENDBRANCH   1  10
BRANCH   9  24
HETATM   24  N6  UNL     1      13.823  45.870  45.236  1.00  0.00    -0.056 N 
ATOM     25  H63 UNL     1      13.065  45.642  45.881  1.00  0.00     0.276 HD
ATOM     26  H62 UNL     1      14.027  46.820  45.546  1.00  0.00     0.276 HD
ATOM     27  H61 UNL     1      13.491  45.866  44.272  1.00  0.00     0.276 HD
ENDBRANCH   9  24
BRANCH   5  28
HETATM   28  O2  UNL     1      12.942  41.861  46.813  1.00  0.00    -0.354 OA
ATOM     29  H2  UNL     1      12.866  41.279  46.066  1.00  0.00     0.214 HD
ENDBRANCH   5  28
TORSDOF 7
ENDMDL
