MODEL 1
REMARK VINA RESULT: -8.775693970      0.000      0.000
REMARK  12 active torsions:
REMARK  status: ('A' for Active; 'I' for Inactive)
REMARK    1  A    between atoms: C5_7  and  N2_8 
REMARK    2  A    between atoms: C6_13  and  C7_14 
REMARK    3  A    between atoms: C7_14  and  N5_15 
REMARK    4  A    between atoms: C7_14  and  C12_26 
REMARK    5  A    between atoms: N5_15  and  C8_17 
REMARK    6  A    between atoms: C12_26  and  N13_40 
REMARK    7  A    between atoms: N8_27  and  N9_29 
REMARK    8  A    between atoms: N9_29  and  C13_31 
REMARK    9  A    between atoms: N13_40  and  O2_42 
REMARK   10  A    between atoms: O2_42  and  C17_43 
REMARK   11  A    between atoms: C17_43  and  C18_45 
REMARK   12  A    between atoms: C18_45  and  O4_47 
ROOT
HETATM    1  C13 UNL     1      13.201   8.491   5.747  1.00  0.00     0.166 A 
HETATM    2  N10 UNL     1      13.561   7.969   4.576  1.00  0.00    -0.322 N 
ATOM      3  H10 UNL     1      14.463   8.203   4.160  1.00  0.00     0.169 HD
HETATM    4  C14 UNL     1      12.746   7.158   3.971  1.00  0.00     0.146 A 
HETATM    5  N11 UNL     1      13.029   6.523   2.685  1.00  0.00    -0.080 NA
HETATM    6  C15 UNL     1      11.548   6.883   4.583  1.00  0.00     0.129 A 
HETATM    7  C16 UNL     1      10.466   6.017   4.123  1.00  0.00     0.110 C 
HETATM    8  N12 UNL     1       9.606   5.328   3.778  1.00  0.00    -0.191 NA
HETATM    9  S1  UNL     1      11.657   7.815   6.008  1.00  0.00    -0.038 SA
ENDROOT
BRANCH   1  10
HETATM   10  N9  UNL     1      13.897   9.325   6.494  1.00  0.00    -0.278 N 
ATOM     11  H9  UNL     1      13.447  10.118   6.952  1.00  0.00     0.189 HD
BRANCH  10  12
HETATM   12  N8  UNL     1      15.267   9.093   6.640  1.00  0.00    -0.283 N 
HETATM   13  C12 UNL     1      15.734   8.661   7.752  1.00  0.00     0.147 C 
ATOM     14  H8  UNL     1      15.897   9.267   5.858  1.00  0.00     0.188 HD
BRANCH  13  15
HETATM   15  C7  UNL     1      14.860   8.392   8.914  1.00  0.00     0.240 C 
BRANCH  15  16
HETATM   16  C6  UNL     1      14.196   7.063   8.713  1.00  0.00     0.145 A 
HETATM   17  N4  UNL     1      13.078   6.705   9.355  1.00  0.00    -0.270 N 
HETATM   18  N3  UNL     1      12.759   5.497   8.985  1.00  0.00    -0.219 N 
ATOM     19  H4  UNL     1      12.562   7.281  10.021  1.00  0.00     0.190 HD
HETATM   20  N2  UNL     1      13.655   5.077   8.116  1.00  0.00    -0.172 N 
ATOM     21  H3  UNL     1      11.953   4.967   9.312  1.00  0.00     0.210 HD
HETATM   22  N14 UNL     1      14.547   6.037   7.942  1.00  0.00    -0.262 N 
ATOM     23  H14 UNL     1      15.360   5.998   7.327  1.00  0.00     0.190 HD
BRANCH  20  24
HETATM   24  C5  UNL     1      13.643   3.782   7.477  1.00  0.00     0.141 A 
HETATM   25  C3  UNL     1      14.284   2.622   7.819  1.00  0.00     0.043 A 
HETATM   26  N1  UNL     1      14.100   1.588   7.062  1.00  0.00    -0.355 N 
HETATM   27  C4  UNL     1      15.175   2.583   9.046  1.00  0.00     0.071 C 
HETATM   28  C2  UNL     1      13.315   1.673   6.004  1.00  0.00     0.049 A 
ATOM     29  H1  UNL     1      14.562   0.706   7.283  1.00  0.00     0.166 HD
HETATM   30  C1  UNL     1      12.961   0.608   4.994  1.00  0.00     0.076 C 
HETATM   31  S2  UNL     1      12.801   3.313   6.071  1.00  0.00    -0.054 SA
ENDBRANCH  20  24
ENDBRANCH  15  16
BRANCH  15  32
HETATM   32  N5  UNL     1      15.668   8.301  10.102  1.00  0.00    -0.207 N 
ATOM     33  H5  UNL     1      16.274   7.486  10.188  1.00  0.00     0.179 HD
BRANCH  32  34
HETATM   34  C8  UNL     1      15.697   9.239  11.163  1.00  0.00     0.681 A 
HETATM   35  N6  UNL     1      16.766  10.062  11.288  1.00  0.00    -0.156 N 
HETATM   36  C9  UNL     1      16.820  10.986  12.289  1.00  0.00     0.260 A 
ATOM     37  H6  UNL     1      17.538   9.990  10.626  1.00  0.00     0.187 HD
HETATM   38  O1  UNL     1      17.815  11.744  12.396  1.00  0.00    -0.268 OA
HETATM   39  C10 UNL     1      15.786  11.093  13.188  1.00  0.00     0.092 A 
HETATM   40  C11 UNL     1      14.714  10.248  13.042  1.00  0.00     0.111 A 
HETATM   41  N7  UNL     1      14.684   9.326  12.025  1.00  0.00    -0.202 N 
ATOM     42  H7  UNL     1      13.881   8.705  11.928  1.00  0.00     0.183 HD
ENDBRANCH  32  34
ENDBRANCH  15  32
ENDBRANCH  13  15
BRANCH  13  43
HETATM   43  N13 UNL     1      17.131   8.435   7.866  1.00  0.00    -0.241 N 
ATOM     44  H13 UNL     1      17.773   9.221   7.763  1.00  0.00     0.196 HD
BRANCH  43  45
HETATM   45  O2  UNL     1      17.644   7.167   8.115  1.00  0.00    -0.196 OA
BRANCH  45  46
HETATM   46  C17 UNL     1      18.670   6.984   9.037  1.00  0.00     0.309 C 
HETATM   47  O3  UNL     1      18.781   7.859   9.933  1.00  0.00    -0.260 OA
BRANCH  46  48
HETATM   48  C18 UNL     1      19.601   5.820   8.983  1.00  0.00     0.215 C 
HETATM   49  C19 UNL     1      19.237   4.978   7.764  1.00  0.00     0.050 C 
BRANCH  48  50
HETATM   50  O4  UNL     1      20.915   6.202   8.892  1.00  0.00    -0.386 OA
ATOM     51  H4  UNL     1      21.383   5.735   8.210  1.00  0.00     0.210 HD
ENDBRANCH  48  50
ENDBRANCH  46  48
ENDBRANCH  45  46
ENDBRANCH  43  45
ENDBRANCH  13  43
ENDBRANCH  10  12
ENDBRANCH   1  10
TORSDOF 12
ENDMDL
MODEL 2
REMARK VINA RESULT: -8.694015192      4.506      8.909
REMARK  12 active torsions:
REMARK  status: ('A' for Active; 'I' for Inactive)
REMARK    1  A    between atoms: C5_7  and  N2_8 
REMARK    2  A    between atoms: C6_13  and  C7_14 
REMARK    3  A    between atoms: C7_14  and  N5_15 
REMARK    4  A    between atoms: C7_14  and  C12_26 
REMARK    5  A    between atoms: N5_15  and  C8_17 
REMARK    6  A    between atoms: C12_26  and  N13_40 
REMARK    7  A    between atoms: N8_27  and  N9_29 
REMARK    8  A    between atoms: N9_29  and  C13_31 
REMARK    9  A    between atoms: N13_40  and  O2_42 
REMARK   10  A    between atoms: O2_42  and  C17_43 
REMARK   11  A    between atoms: C17_43  and  C18_45 
REMARK   12  A    between atoms: C18_45  and  O4_47 
ROOT
HETATM    1  C13 UNL     1      15.737   3.243   8.240  1.00  0.00     0.166 A 
HETATM    2  N10 UNL     1      16.871   3.100   7.556  1.00  0.00    -0.322 N 
ATOM      3  H10 UNL     1      16.996   2.312   6.919  1.00  0.00     0.169 HD
HETATM    4  C14 UNL     1      17.815   3.978   7.711  1.00  0.00     0.146 A 
HETATM    5  N11 UNL     1      19.102   3.928   7.016  1.00  0.00    -0.080 NA
HETATM    6  C15 UNL     1      17.586   5.015   8.581  1.00  0.00     0.129 A 
HETATM    7  C16 UNL     1      18.470   6.122   8.934  1.00  0.00     0.110 C 
HETATM    8  N12 UNL     1      19.154   7.009   9.217  1.00  0.00    -0.191 NA
HETATM    9  S1  UNL     1      16.010   4.669   9.136  1.00  0.00    -0.038 SA
ENDROOT
BRANCH   1  10
HETATM   10  N9  UNL     1      14.682   2.454   8.206  1.00  0.00    -0.278 N 
ATOM     11  H9  UNL     1      14.030   2.417   8.989  1.00  0.00     0.189 HD
BRANCH  10  12
HETATM   12  N8  UNL     1      14.482   1.670   7.067  1.00  0.00    -0.283 N 
HETATM   13  C12 UNL     1      13.474   1.881   6.305  1.00  0.00     0.147 C 
ATOM     14  H8  UNL     1      15.142   0.926   6.840  1.00  0.00     0.188 HD
BRANCH  13  15
HETATM   15  C7  UNL     1      12.490   2.948   6.591  1.00  0.00     0.240 C 
BRANCH  15  16
HETATM   16  C6  UNL     1      13.161   4.276   6.407  1.00  0.00     0.145 A 
HETATM   17  N4  UNL     1      13.993   4.535   5.392  1.00  0.00    -0.270 N 
HETATM   18  N3  UNL     1      14.425   5.759   5.515  1.00  0.00    -0.219 N 
ATOM     19  H4  UNL     1      14.248   3.885   4.648  1.00  0.00     0.190 HD
HETATM   20  N2  UNL     1      13.880   6.286   6.591  1.00  0.00    -0.172 N 
ATOM     21  H3  UNL     1      15.074   6.228   4.885  1.00  0.00     0.210 HD
HETATM   22  N14 UNL     1      13.099   5.378   7.149  1.00  0.00    -0.262 N 
ATOM     23  H14 UNL     1      12.546   5.500   7.998  1.00  0.00     0.190 HD
BRANCH  20  24
HETATM   24  C5  UNL     1      14.115   7.632   7.062  1.00  0.00     0.141 A 
HETATM   25  C3  UNL     1      14.177   8.811   6.371  1.00  0.00     0.043 A 
HETATM   26  N1  UNL     1      14.405   9.892   7.046  1.00  0.00    -0.355 N 
HETATM   27  C4  UNL     1      13.982   8.818   4.866  1.00  0.00     0.071 C 
HETATM   28  C2  UNL     1      14.568   9.834   8.354  1.00  0.00     0.049 A 
ATOM     29  H1  UNL     1      14.460  10.791   6.566  1.00  0.00     0.166 HD
HETATM   30  C1  UNL     1      14.841  10.953   9.330  1.00  0.00     0.076 C 
HETATM   31  S2  UNL     1      14.392   8.151   8.662  1.00  0.00    -0.054 SA
ENDBRANCH  20  24
ENDBRANCH  15  16
BRANCH  15  32
HETATM   32  N5  UNL     1      11.415   2.867   5.637  1.00  0.00    -0.207 N 
ATOM     33  H5  UNL     1      11.518   2.192   4.880  1.00  0.00     0.179 HD
BRANCH  32  34
HETATM   34  C8  UNL     1      10.227   3.638   5.654  1.00  0.00     0.681 A 
HETATM   35  N6  UNL     1       9.538   3.817   4.501  1.00  0.00    -0.156 N 
HETATM   36  C9  UNL     1       8.384   4.541   4.485  1.00  0.00     0.260 A 
ATOM     37  H6  UNL     1       9.888   3.405   3.636  1.00  0.00     0.187 HD
HETATM   38  O1  UNL     1       7.754   4.702   3.411  1.00  0.00    -0.268 OA
HETATM   39  C10 UNL     1       7.903   5.102   5.643  1.00  0.00     0.092 A 
HETATM   40  C11 UNL     1       8.617   4.908   6.799  1.00  0.00     0.111 A 
HETATM   41  N7  UNL     1       9.778   4.174   6.789  1.00  0.00    -0.202 N 
ATOM     42  H7  UNL     1      10.299   4.037   7.655  1.00  0.00     0.183 HD
ENDBRANCH  32  34
ENDBRANCH  15  32
ENDBRANCH  13  15
BRANCH  13  43
HETATM   43  N13 UNL     1      13.301   1.066   5.155  1.00  0.00    -0.241 N 
ATOM     44  H13 UNL     1      13.875   1.241   4.330  1.00  0.00     0.196 HD
BRANCH  43  45
HETATM   45  O2  UNL     1      12.369   0.035   5.130  1.00  0.00    -0.196 OA
BRANCH  45  46
HETATM   46  C17 UNL     1      11.633  -0.229   3.979  1.00  0.00     0.309 C 
HETATM   47  O3  UNL     1      10.809  -1.176   4.045  1.00  0.00    -0.260 OA
BRANCH  46  48
HETATM   48  C18 UNL     1      11.799   0.557   2.721  1.00  0.00     0.215 C 
HETATM   49  C19 UNL     1      11.104  -0.200   1.593  1.00  0.00     0.050 C 
BRANCH  48  50
HETATM   50  O4  UNL     1      11.266   1.817   2.815  1.00  0.00    -0.386 OA
ATOM     51  H4  UNL     1      10.820   2.083   2.020  1.00  0.00     0.210 HD
ENDBRANCH  48  50
ENDBRANCH  46  48
ENDBRANCH  45  46
ENDBRANCH  43  45
ENDBRANCH  13  43
ENDBRANCH  10  12
ENDBRANCH   1  10
TORSDOF 12
ENDMDL
MODEL 3
REMARK VINA RESULT: -8.634522569      4.515      8.545
REMARK  12 active torsions:
REMARK  status: ('A' for Active; 'I' for Inactive)
REMARK    1  A    between atoms: C5_7  and  N2_8 
REMARK    2  A    between atoms: C6_13  and  C7_14 
REMARK    3  A    between atoms: C7_14  and  N5_15 
REMARK    4  A    between atoms: C7_14  and  C12_26 
REMARK    5  A    between atoms: N5_15  and  C8_17 
REMARK    6  A    between atoms: C12_26  and  N13_40 
REMARK    7  A    between atoms: N8_27  and  N9_29 
REMARK    8  A    between atoms: N9_29  and  C13_31 
REMARK    9  A    between atoms: N13_40  and  O2_42 
REMARK   10  A    between atoms: O2_42  and  C17_43 
REMARK   11  A    between atoms: C17_43  and  C18_45 
REMARK   12  A    between atoms: C18_45  and  O4_47 
ROOT
HETATM    1  C13 UNL     1      19.323   8.828  15.313  1.00  0.00     0.166 A 
HETATM    2  N10 UNL     1      18.683   9.707  16.082  1.00  0.00    -0.322 N 
ATOM      3  H10 UNL     1      18.667  10.696  15.835  1.00  0.00     0.169 HD
HETATM    4  C14 UNL     1      18.080   9.284  17.153  1.00  0.00     0.146 A 
HETATM    5  N11 UNL     1      17.346  10.152  18.074  1.00  0.00    -0.080 NA
HETATM    6  C15 UNL     1      18.138   7.941  17.431  1.00  0.00     0.129 A 
HETATM    7  C16 UNL     1      17.555   7.217  18.556  1.00  0.00     0.110 C 
HETATM    8  N12 UNL     1      17.091   6.628  19.435  1.00  0.00    -0.191 NA
HETATM    9  S1  UNL     1      19.067   7.350  16.127  1.00  0.00    -0.038 SA
ENDROOT
BRANCH   1  10
HETATM   10  N9  UNL     1      19.983   9.076  14.200  1.00  0.00    -0.278 N 
ATOM     11  H9  UNL     1      20.952   8.778  14.088  1.00  0.00     0.189 HD
BRANCH  10  12
HETATM   12  N8  UNL     1      19.318   9.760  13.178  1.00  0.00    -0.283 N 
HETATM   13  C12 UNL     1      19.095   9.185  12.055  1.00  0.00     0.147 C 
ATOM     14  H8  UNL     1      19.009  10.720  13.328  1.00  0.00     0.188 HD
BRANCH  13  15
HETATM   15  C7  UNL     1      19.523   7.795  11.791  1.00  0.00     0.240 C 
BRANCH  15  16
HETATM   16  C6  UNL     1      18.398   7.071  11.114  1.00  0.00     0.145 A 
HETATM   17  N4  UNL     1      17.337   6.595  11.775  1.00  0.00    -0.270 N 
HETATM   18  N3  UNL     1      16.549   6.007  10.921  1.00  0.00    -0.219 N 
ATOM     19  H4  UNL     1      17.174   6.678  12.779  1.00  0.00     0.190 HD
HETATM   20  N2  UNL     1      17.087   6.100   9.723  1.00  0.00    -0.172 N 
ATOM     21  H3  UNL     1      15.664   5.552  11.142  1.00  0.00     0.210 HD
HETATM   22  N14 UNL     1      18.231   6.755   9.832  1.00  0.00    -0.262 N 
ATOM     23  H14 UNL     1      18.870   6.978   9.070  1.00  0.00     0.190 HD
BRANCH  20  24
HETATM   24  C5  UNL     1      16.508   5.566   8.512  1.00  0.00     0.141 A 
HETATM   25  C3  UNL     1      17.063   4.781   7.539  1.00  0.00     0.043 A 
HETATM   26  N1  UNL     1      16.311   4.438   6.542  1.00  0.00    -0.355 N 
HETATM   27  C4  UNL     1      18.512   4.344   7.654  1.00  0.00     0.071 C 
HETATM   28  C2  UNL     1      15.057   4.844   6.489  1.00  0.00     0.049 A 
ATOM     29  H1  UNL     1      16.690   3.854   5.796  1.00  0.00     0.166 HD
HETATM   30  C1  UNL     1      14.012   4.570   5.433  1.00  0.00     0.076 C 
HETATM   31  S2  UNL     1      14.918   5.770   7.931  1.00  0.00    -0.054 SA
ENDBRANCH  20  24
ENDBRANCH  15  16
BRANCH  15  32
HETATM   32  N5  UNL     1      20.641   7.808  10.885  1.00  0.00    -0.207 N 
ATOM     33  H5  UNL     1      20.510   8.290   9.996  1.00  0.00     0.179 HD
BRANCH  32  34
HETATM   34  C8  UNL     1      21.906   7.214  11.114  1.00  0.00     0.681 A 
HETATM   35  N6  UNL     1      22.580   6.670  10.072  1.00  0.00    -0.156 N 
HETATM   36  C9  UNL     1      23.805   6.104  10.255  1.00  0.00     0.260 A 
ATOM     37  H6  UNL     1      22.165   6.686   9.140  1.00  0.00     0.187 HD
HETATM   38  O1  UNL     1      24.421   5.602   9.282  1.00  0.00    -0.268 OA
HETATM   39  C10 UNL     1      24.375   6.076  11.505  1.00  0.00     0.092 A 
HETATM   40  C11 UNL     1      23.675   6.632  12.546  1.00  0.00     0.111 A 
HETATM   41  N7  UNL     1      22.441   7.198  12.335  1.00  0.00    -0.202 N 
ATOM     42  H7  UNL     1      21.931   7.608  13.118  1.00  0.00     0.183 HD
ENDBRANCH  32  34
ENDBRANCH  15  32
ENDBRANCH  13  15
BRANCH  13  43
HETATM   43  N13 UNL     1      18.416   9.909  11.039  1.00  0.00    -0.241 N 
ATOM     44  H13 UNL     1      18.906  10.127  10.171  1.00  0.00     0.196 HD
BRANCH  43  45
HETATM   45  O2  UNL     1      17.100  10.326  11.200  1.00  0.00    -0.196 OA
BRANCH  45  46
HETATM   46  C17 UNL     1      16.079   9.766  10.439  1.00  0.00     0.309 C 
HETATM   47  O3  UNL     1      15.350   8.919  11.015  1.00  0.00    -0.260 OA
BRANCH  46  48
HETATM   48  C18 UNL     1      15.845  10.136   9.012  1.00  0.00     0.215 C 
HETATM   49  C19 UNL     1      14.548  10.936   8.936  1.00  0.00     0.050 C 
BRANCH  48  50
HETATM   50  O4  UNL     1      16.869  10.884   8.489  1.00  0.00    -0.386 OA
ATOM     51  H4  UNL     1      16.697  11.163   7.598  1.00  0.00     0.210 HD
ENDBRANCH  48  50
ENDBRANCH  46  48
ENDBRANCH  45  46
ENDBRANCH  43  45
ENDBRANCH  13  43
ENDBRANCH  10  12
ENDBRANCH   1  10
TORSDOF 12
ENDMDL
MODEL 4
REMARK VINA RESULT: -8.633468709      4.857      9.313
REMARK  12 active torsions:
REMARK  status: ('A' for Active; 'I' for Inactive)
REMARK    1  A    between atoms: C5_7  and  N2_8 
REMARK    2  A    between atoms: C6_13  and  C7_14 
REMARK    3  A    between atoms: C7_14  and  N5_15 
REMARK    4  A    between atoms: C7_14  and  C12_26 
REMARK    5  A    between atoms: N5_15  and  C8_17 
REMARK    6  A    between atoms: C12_26  and  N13_40 
REMARK    7  A    between atoms: N8_27  and  N9_29 
REMARK    8  A    between atoms: N9_29  and  C13_31 
REMARK    9  A    between atoms: N13_40  and  O2_42 
REMARK   10  A    between atoms: O2_42  and  C17_43 
REMARK   11  A    between atoms: C17_43  and  C18_45 
REMARK   12  A    between atoms: C18_45  and  O4_47 
ROOT
HETATM    1  C13 UNL     1      18.356   8.476  16.512  1.00  0.00     0.166 A 
HETATM    2  N10 UNL     1      18.500   7.430  17.324  1.00  0.00    -0.322 N 
ATOM      3  H10 UNL     1      19.009   6.601  17.016  1.00  0.00     0.169 HD
HETATM    4  C14 UNL     1      17.982   7.482  18.515  1.00  0.00     0.146 A 
HETATM    5  N11 UNL     1      18.075   6.400  19.494  1.00  0.00    -0.080 NA
HETATM    6  C15 UNL     1      17.311   8.625  18.870  1.00  0.00     0.129 A 
HETATM    7  C16 UNL     1      16.644   8.937  20.131  1.00  0.00     0.110 C 
HETATM    8  N12 UNL     1      16.121   9.202  21.126  1.00  0.00    -0.191 NA
HETATM    9  S1  UNL     1      17.458   9.574  17.460  1.00  0.00    -0.038 SA
ENDROOT
BRANCH   1  10
HETATM   10  N9  UNL     1      18.810   8.596  15.281  1.00  0.00    -0.278 N 
ATOM     11  H9  UNL     1      19.324   7.836  14.836  1.00  0.00     0.189 HD
BRANCH  10  12
HETATM   12  N8  UNL     1      18.568   9.793  14.603  1.00  0.00    -0.283 N 
HETATM   13  C12 UNL     1      18.466   9.804  13.325  1.00  0.00     0.147 C 
ATOM     14  H8  UNL     1      18.470  10.663  15.127  1.00  0.00     0.188 HD
BRANCH  13  15
HETATM   15  C7  UNL     1      18.600   8.570  12.522  1.00  0.00     0.240 C 
BRANCH  15  16
HETATM   16  C6  UNL     1      17.377   8.424  11.667  1.00  0.00     0.145 A 
HETATM   17  N4  UNL     1      16.249   7.853  12.104  1.00  0.00    -0.270 N 
HETATM   18  N3  UNL     1      15.380   7.860  11.133  1.00  0.00    -0.219 N 
ATOM     19  H4  UNL     1      16.094   7.476  13.040  1.00  0.00     0.190 HD
HETATM   20  N2  UNL     1      15.934   8.427  10.082  1.00  0.00    -0.172 N 
ATOM     21  H3  UNL     1      14.431   7.489  11.179  1.00  0.00     0.210 HD
HETATM   22  N14 UNL     1      17.167   8.779  10.402  1.00  0.00    -0.262 N 
ATOM     23  H14 UNL     1      17.839   9.239   9.788  1.00  0.00     0.190 HD
BRANCH  20  24
HETATM   24  C5  UNL     1      15.283   8.620   8.807  1.00  0.00     0.141 A 
HETATM   25  C3  UNL     1      14.703   9.737   8.271  1.00  0.00     0.043 A 
HETATM   26  N1  UNL     1      14.182   9.635   7.090  1.00  0.00    -0.355 N 
HETATM   27  C4  UNL     1      14.686  11.034   9.058  1.00  0.00     0.071 C 
HETATM   28  C2  UNL     1      14.222   8.485   6.445  1.00  0.00     0.049 A 
ATOM     29  H1  UNL     1      13.739  10.446   6.657  1.00  0.00     0.166 HD
HETATM   30  C1  UNL     1      13.684   8.141   5.076  1.00  0.00     0.076 C 
HETATM   31  S2  UNL     1      15.043   7.473   7.568  1.00  0.00    -0.054 SA
ENDBRANCH  20  24
ENDBRANCH  15  16
BRANCH  15  32
HETATM   32  N5  UNL     1      19.732   8.698  11.643  1.00  0.00    -0.207 N 
ATOM     33  H5  UNL     1      19.616   9.292  10.822  1.00  0.00     0.179 HD
BRANCH  32  34
HETATM   34  C8  UNL     1      20.993   8.076  11.813  1.00  0.00     0.681 A 
HETATM   35  N6  UNL     1      21.725   8.357  12.918  1.00  0.00    -0.156 N 
HETATM   36  C9  UNL     1      22.936   7.764  13.120  1.00  0.00     0.260 A 
ATOM     37  H6  UNL     1      21.366   9.019  13.606  1.00  0.00     0.187 HD
HETATM   38  O1  UNL     1      23.607   8.032  14.147  1.00  0.00    -0.268 OA
HETATM   39  C10 UNL     1      23.431   6.871  12.201  1.00  0.00     0.092 A 
HETATM   40  C11 UNL     1      22.673   6.602  11.089  1.00  0.00     0.111 A 
HETATM   41  N7  UNL     1      21.455   7.212  10.909  1.00  0.00    -0.202 N 
ATOM     42  H7  UNL     1      20.902   7.003  10.078  1.00  0.00     0.183 HD
ENDBRANCH  32  34
ENDBRANCH  15  32
ENDBRANCH  13  15
BRANCH  13  43
HETATM   43  N13 UNL     1      18.220  11.039  12.669  1.00  0.00    -0.241 N 
ATOM     44  H13 UNL     1      17.306  11.482  12.768  1.00  0.00     0.196 HD
BRANCH  43  45
HETATM   45  O2  UNL     1      19.194  11.657  11.894  1.00  0.00    -0.196 OA
BRANCH  45  46
HETATM   46  C17 UNL     1      19.694  12.907  12.245  1.00  0.00     0.309 C 
HETATM   47  O3  UNL     1      18.855  13.758  12.634  1.00  0.00    -0.260 OA
BRANCH  46  48
HETATM   48  C18 UNL     1      21.146  13.241  12.171  1.00  0.00     0.215 C 
HETATM   49  C19 UNL     1      21.940  11.945  12.315  1.00  0.00     0.050 C 
BRANCH  48  50
HETATM   50  O4  UNL     1      21.485  13.849  10.989  1.00  0.00    -0.386 OA
ATOM     51  H4  UNL     1      22.422  13.976  10.901  1.00  0.00     0.210 HD
ENDBRANCH  48  50
ENDBRANCH  46  48
ENDBRANCH  45  46
ENDBRANCH  43  45
ENDBRANCH  13  43
ENDBRANCH  10  12
ENDBRANCH   1  10
TORSDOF 12
ENDMDL
MODEL 5
REMARK VINA RESULT: -8.601492272      3.472      6.791
REMARK  12 active torsions:
REMARK  status: ('A' for Active; 'I' for Inactive)
REMARK    1  A    between atoms: C5_7  and  N2_8 
REMARK    2  A    between atoms: C6_13  and  C7_14 
REMARK    3  A    between atoms: C7_14  and  N5_15 
REMARK    4  A    between atoms: C7_14  and  C12_26 
REMARK    5  A    between atoms: N5_15  and  C8_17 
REMARK    6  A    between atoms: C12_26  and  N13_40 
REMARK    7  A    between atoms: N8_27  and  N9_29 
REMARK    8  A    between atoms: N9_29  and  C13_31 
REMARK    9  A    between atoms: N13_40  and  O2_42 
REMARK   10  A    between atoms: O2_42  and  C17_43 
REMARK   11  A    between atoms: C17_43  and  C18_45 
REMARK   12  A    between atoms: C18_45  and  O4_47 
ROOT
HETATM    1  C13 UNL     1      19.350   6.033   8.908  1.00  0.00     0.166 A 
HETATM    2  N10 UNL     1      20.646   5.740   8.997  1.00  0.00    -0.322 N 
ATOM      3  H10 UNL     1      21.081   5.105   8.328  1.00  0.00     0.169 HD
HETATM    4  C14 UNL     1      21.348   6.276   9.950  1.00  0.00     0.146 A 
HETATM    5  N11 UNL     1      22.777   6.032  10.150  1.00  0.00    -0.080 NA
HETATM    6  C15 UNL     1      20.705   7.123  10.818  1.00  0.00     0.129 A 
HETATM    7  C16 UNL     1      21.254   7.847  11.961  1.00  0.00     0.110 C 
HETATM    8  N12 UNL     1      21.676   8.434  12.862  1.00  0.00    -0.191 NA
HETATM    9  S1  UNL     1      19.110   7.103  10.215  1.00  0.00    -0.038 SA
ENDROOT
BRANCH   1  10
HETATM   10  N9  UNL     1      18.493   5.585   8.013  1.00  0.00    -0.278 N 
ATOM     11  H9  UNL     1      18.428   6.012   7.090  1.00  0.00     0.189 HD
BRANCH  10  12
HETATM   12  N8  UNL     1      17.676   4.507   8.366  1.00  0.00    -0.283 N 
HETATM   13  C12 UNL     1      16.424   4.527   8.092  1.00  0.00     0.147 C 
ATOM     14  H8  UNL     1      18.079   3.700   8.842  1.00  0.00     0.188 HD
BRANCH  13  15
HETATM   15  C7  UNL     1      15.795   5.673   7.402  1.00  0.00     0.240 C 
BRANCH  15  16
HETATM   16  C6  UNL     1      14.785   5.147   6.428  1.00  0.00     0.145 A 
HETATM   17  N4  UNL     1      15.071   4.203   5.523  1.00  0.00    -0.270 N 
HETATM   18  N3  UNL     1      14.001   3.971   4.817  1.00  0.00    -0.219 N 
ATOM     19  H4  UNL     1      15.974   3.743   5.406  1.00  0.00     0.190 HD
HETATM   20  N2  UNL     1      13.035   4.751   5.256  1.00  0.00    -0.172 N 
ATOM     21  H3  UNL     1      13.925   3.300   4.053  1.00  0.00     0.210 HD
HETATM   22  N14 UNL     1      13.510   5.481   6.250  1.00  0.00    -0.262 N 
ATOM     23  H14 UNL     1      12.991   6.177   6.786  1.00  0.00     0.190 HD
BRANCH  20  24
HETATM   24  C5  UNL     1      11.693   4.784   4.722  1.00  0.00     0.141 A 
HETATM   25  C3  UNL     1      11.174   5.502   3.679  1.00  0.00     0.043 A 
HETATM   26  N1  UNL     1       9.919   5.344   3.406  1.00  0.00    -0.355 N 
HETATM   27  C4  UNL     1      12.066   6.443   2.891  1.00  0.00     0.071 C 
HETATM   28  C2  UNL     1       9.185   4.513   4.122  1.00  0.00     0.049 A 
ATOM     29  H1  UNL     1       9.495   5.863   2.636  1.00  0.00     0.166 HD
HETATM   30  C1  UNL     1       7.719   4.176   3.984  1.00  0.00     0.076 C 
HETATM   31  S2  UNL     1      10.329   3.912   5.257  1.00  0.00    -0.054 SA
ENDBRANCH  20  24
ENDBRANCH  15  16
BRANCH  15  32
HETATM   32  N5  UNL     1      15.092   6.477   8.367  1.00  0.00    -0.207 N 
ATOM     33  H5  UNL     1      14.417   6.000   8.963  1.00  0.00     0.179 HD
BRANCH  32  34
HETATM   34  C8  UNL     1      15.252   7.870   8.564  1.00  0.00     0.681 A 
HETATM   35  N6  UNL     1      14.201   8.600   9.009  1.00  0.00    -0.156 N 
HETATM   36  C9  UNL     1      14.325   9.940   9.224  1.00  0.00     0.260 A 
ATOM     37  H6  UNL     1      13.307   8.142   9.185  1.00  0.00     0.187 HD
HETATM   38  O1  UNL     1      13.344  10.608   9.635  1.00  0.00    -0.268 OA
HETATM   39  C10 UNL     1      15.523  10.571   8.990  1.00  0.00     0.092 A 
HETATM   40  C11 UNL     1      16.574   9.812   8.540  1.00  0.00     0.111 A 
HETATM   41  N7  UNL     1      16.424   8.463   8.332  1.00  0.00    -0.202 N 
ATOM     42  H7  UNL     1      17.213   7.910   7.997  1.00  0.00     0.183 HD
ENDBRANCH  32  34
ENDBRANCH  15  32
ENDBRANCH  13  15
BRANCH  13  43
HETATM   43  N13 UNL     1      15.624   3.414   8.464  1.00  0.00    -0.241 N 
ATOM     44  H13 UNL     1      15.713   2.541   7.944  1.00  0.00     0.196 HD
BRANCH  43  45
HETATM   45  O2  UNL     1      14.724   3.488   9.520  1.00  0.00    -0.196 OA
BRANCH  45  46
HETATM   46  C17 UNL     1      15.113   3.141  10.811  1.00  0.00     0.309 C 
HETATM   47  O3  UNL     1      14.885   3.987  11.712  1.00  0.00    -0.260 OA
BRANCH  46  48
HETATM   48  C18 UNL     1      15.768   1.839  11.129  1.00  0.00     0.215 C 
HETATM   49  C19 UNL     1      15.454   1.491  12.581  1.00  0.00     0.050 C 
BRANCH  48  50
HETATM   50  O4  UNL     1      15.336   0.821  10.317  1.00  0.00    -0.386 OA
ATOM     51  H4  UNL     1      14.704   0.257  10.747  1.00  0.00     0.210 HD
ENDBRANCH  48  50
ENDBRANCH  46  48
ENDBRANCH  45  46
ENDBRANCH  43  45
ENDBRANCH  13  43
ENDBRANCH  10  12
ENDBRANCH   1  10
TORSDOF 12
ENDMDL
