MODEL 1
REMARK VINA RESULT: -8.226949618      0.000      0.000
REMARK  13 active torsions:
REMARK  status: ('A' for Active; 'I' for Inactive)
REMARK    1  A    between atoms: C1_2  and  C2_4 
REMARK    2  A    between atoms: C2_4  and  N1_5 
REMARK    3  A    between atoms: C3_6  and  N2_7 
REMARK    4  A    between atoms: C5_11  and  N3_12 
REMARK    5  A    between atoms: C6_15  and  N4_16 
REMARK    6  A    between atoms: C7_17  and  C8_18 
REMARK       I    between atoms: C8_18  and  N5_20 
REMARK    7  A    between atoms: N5_20  and  C9_22 
REMARK    8  A    between atoms: C10_25  and  O8_26 
REMARK    9  A    between atoms: C12_30  and  O9_31 
REMARK   10  A    between atoms: C13_34  and  O10_35 
REMARK   11  A    between atoms: C14_37  and  C15_38 
REMARK   12  A    between atoms: C15_38  and  N8_39 
REMARK   13  A    between atoms: N8_39  and  O11_41 
ROOT
HETATM    1  N4  UNL     1      15.224   4.266  10.158  1.00  0.00    -0.129 N 
HETATM    2  C7  UNL     1      15.175   3.008   9.717  1.00  0.00     0.177 A 
HETATM    3  C12 UNL     1      15.359   2.168  10.837  1.00  0.00     0.199 A 
HETATM    4  N7  UNL     1      15.511   2.951  11.906  1.00  0.00    -0.100 N 
HETATM    5  C13 UNL     1      15.716   2.947  13.254  1.00  0.00     0.194 A 
HETATM    6  C14 UNL     1      15.760   4.253  13.665  1.00  0.00     0.118 A 
HETATM    7  N9  UNL     1      15.579   5.031  12.550  1.00  0.00    -0.185 N 
ATOM      8  H9  UNL     1      15.561   6.050  12.527  1.00  0.00     0.184 HD
HETATM    9  C16 UNL     1      15.430   4.222  11.499  1.00  0.00     0.701 A 
ENDROOT
BRANCH   1  10
HETATM   10  C6  UNL     1      15.056   5.445   9.366  1.00  0.00     0.159 A 
HETATM   11  C5  UNL     1      16.098   6.265   9.016  1.00  0.00     0.140 A 
HETATM   12  C4  UNL     1      15.915   7.404   8.253  1.00  0.00     0.093 A 
HETATM   13  C3  UNL     1      14.629   7.755   7.810  1.00  0.00     0.181 A 
HETATM   14  N1  UNL     1      13.625   6.953   8.158  1.00  0.00    -0.283 N 
HETATM   15  C17 UNL     1      13.813   5.828   8.912  1.00  0.00     0.280 A 
HETATM   16  O12 UNL     1      12.820   5.092   9.218  1.00  0.00    -0.265 OA
BRANCH  11  17
HETATM   17  N3  UNL     1      17.418   5.971   9.464  1.00  0.00    -0.113 N 
HETATM   18  O5  UNL     1      18.179   5.316   8.762  1.00  0.00    -0.532 OA
HETATM   19  O6  UNL     1      17.820   6.439  10.701  1.00  0.00    -0.532 OA
ENDBRANCH  11  17
BRANCH  13  20
HETATM   20  N2  UNL     1      14.460   8.908   7.012  1.00  0.00    -0.098 N 
HETATM   21  O3  UNL     1      14.424  10.026   7.619  1.00  0.00    -0.531 OA
HETATM   22  O4  UNL     1      14.328   9.006   5.669  1.00  0.00    -0.531 OA
ENDBRANCH  13  20
BRANCH  14  23
HETATM   23  C2  UNL     1      12.268   7.261   7.771  1.00  0.00     0.247 C 
BRANCH  23  24
HETATM   24  C1  UNL     1      11.481   7.877   8.838  1.00  0.00     0.192 C 
HETATM   25  O1  UNL     1      10.257   7.605   8.922  1.00  0.00    -0.647 OA
HETATM   26  O2  UNL     1      12.019   8.741   9.756  1.00  0.00    -0.647 OA
ENDBRANCH  23  24
ENDBRANCH  14  23
ENDBRANCH   1  10
BRANCH   2  27
HETATM   27  C8  UNL     1      14.975   2.535   8.357  1.00  0.00     0.279 C 
HETATM   28  O7  UNL     1      15.760   2.914   7.419  1.00  0.00    -0.265 OA
HETATM   29  N5  UNL     1      13.932   1.657   7.993  1.00  0.00    -0.301 N 
ATOM     30  H5  UNL     1      13.509   1.040   8.687  1.00  0.00     0.171 HD
BRANCH  29  31
HETATM   31  C9  UNL     1      13.510   1.646   6.741  1.00  0.00     0.153 A 
HETATM   32  N6  UNL     1      13.729   0.725   5.806  1.00  0.00    -0.317 N 
HETATM   33  C10 UNL     1      13.224   0.907   4.622  1.00  0.00     0.148 A 
ATOM     34  H6  UNL     1      14.282  -0.106   6.015  1.00  0.00     0.170 HD
HETATM   35  C11 UNL     1      12.491   2.042   4.402  1.00  0.00     0.109 A 
HETATM   36  S1  UNL     1      12.561   2.808   5.926  1.00  0.00    -0.061 SA
BRANCH  33  37
HETATM   37  O8  UNL     1      13.403  -0.022   3.557  1.00  0.00    -0.346 OA
ATOM     38  H8  UNL     1      13.946   0.163   2.799  1.00  0.00     0.219 HD
ENDBRANCH  33  37
ENDBRANCH  29  31
ENDBRANCH   2  27
BRANCH   3  39
HETATM   39  O9  UNL     1      15.370   0.775  10.775  1.00  0.00    -0.343 OA
ATOM     40  H9  UNL     1      14.879   0.212  11.363  1.00  0.00     0.219 HD
ENDBRANCH   3  39
BRANCH   5  41
HETATM   41  O10 UNL     1      15.857   1.846  14.068  1.00  0.00    -0.344 OA
ATOM     42  H10 UNL     1      16.641   1.572  14.529  1.00  0.00     0.219 HD
ENDBRANCH   5  41
BRANCH   6  43
HETATM   43  C15 UNL     1      15.951   4.845  14.978  1.00  0.00     0.148 C 
BRANCH  43  44
HETATM   44  N8  UNL     1      16.241   4.284  16.062  1.00  0.00    -0.278 N 
ATOM     45  H8  UNL     1      17.048   4.719  16.510  1.00  0.00     0.193 HD
BRANCH  44  46
HETATM   46  O11 UNL     1      15.770   3.278  16.771  1.00  0.00    -0.290 OA
ATOM     47  H11 UNL     1      15.180   3.173  17.509  1.00  0.00     0.244 HD
ENDBRANCH  44  46
ENDBRANCH  43  44
ENDBRANCH   6  43
TORSDOF 13
ENDMDL
MODEL 2
REMARK VINA RESULT: -8.110495335      4.848      8.061
REMARK  13 active torsions:
REMARK  status: ('A' for Active; 'I' for Inactive)
REMARK    1  A    between atoms: C1_2  and  C2_4 
REMARK    2  A    between atoms: C2_4  and  N1_5 
REMARK    3  A    between atoms: C3_6  and  N2_7 
REMARK    4  A    between atoms: C5_11  and  N3_12 
REMARK    5  A    between atoms: C6_15  and  N4_16 
REMARK    6  A    between atoms: C7_17  and  C8_18 
REMARK       I    between atoms: C8_18  and  N5_20 
REMARK    7  A    between atoms: N5_20  and  C9_22 
REMARK    8  A    between atoms: C10_25  and  O8_26 
REMARK    9  A    between atoms: C12_30  and  O9_31 
REMARK   10  A    between atoms: C13_34  and  O10_35 
REMARK   11  A    between atoms: C14_37  and  C15_38 
REMARK   12  A    between atoms: C15_38  and  N8_39 
REMARK   13  A    between atoms: N8_39  and  O11_41 
ROOT
HETATM    1  N4  UNL     1      18.804   7.946  12.079  1.00  0.00    -0.129 N 
HETATM    2  C7  UNL     1      18.185   7.698  10.923  1.00  0.00     0.177 A 
HETATM    3  C12 UNL     1      19.147   7.152  10.046  1.00  0.00     0.199 A 
HETATM    4  N7  UNL     1      20.305   7.093  10.705  1.00  0.00    -0.100 N 
HETATM    5  C13 UNL     1      21.615   6.729  10.601  1.00  0.00     0.194 A 
HETATM    6  C14 UNL     1      22.212   6.999  11.804  1.00  0.00     0.118 A 
HETATM    7  N9  UNL     1      21.245   7.526  12.622  1.00  0.00    -0.185 N 
ATOM      8  H9  UNL     1      21.377   7.830  13.586  1.00  0.00     0.184 HD
HETATM    9  C16 UNL     1      20.101   7.573  11.936  1.00  0.00     0.701 A 
ENDROOT
BRANCH   1  10
HETATM   10  C6  UNL     1      18.201   8.478  13.261  1.00  0.00     0.159 A 
HETATM   11  C5  UNL     1      18.084   9.822  13.502  1.00  0.00     0.140 A 
HETATM   12  C4  UNL     1      17.502  10.317  14.655  1.00  0.00     0.093 A 
HETATM   13  C3  UNL     1      17.007   9.434  15.628  1.00  0.00     0.181 A 
HETATM   14  N1  UNL     1      17.128   8.131  15.385  1.00  0.00    -0.283 N 
HETATM   15  C17 UNL     1      17.703   7.648  14.242  1.00  0.00     0.280 A 
HETATM   16  O12 UNL     1      17.795   6.391  14.056  1.00  0.00    -0.265 OA
BRANCH  11  17
HETATM   17  N3  UNL     1      18.597  10.762  12.561  1.00  0.00    -0.113 N 
HETATM   18  O5  UNL     1      19.732  11.208  12.686  1.00  0.00    -0.532 OA
HETATM   19  O6  UNL     1      17.793  11.155  11.509  1.00  0.00    -0.532 OA
ENDBRANCH  11  17
BRANCH  13  20
HETATM   20  N2  UNL     1      16.393   9.953  16.790  1.00  0.00    -0.098 N 
HETATM   21  O3  UNL     1      17.166  10.299  17.740  1.00  0.00    -0.531 OA
HETATM   22  O4  UNL     1      15.080  10.143  17.050  1.00  0.00    -0.531 OA
ENDBRANCH  13  20
BRANCH  14  23
HETATM   23  C2  UNL     1      16.674   7.157  16.350  1.00  0.00     0.247 C 
BRANCH  23  24
HETATM   24  C1  UNL     1      17.644   6.887  17.410  1.00  0.00     0.192 C 
HETATM   25  O1  UNL     1      17.224   6.521  18.537  1.00  0.00    -0.647 OA
HETATM   26  O2  UNL     1      18.996   7.016  17.231  1.00  0.00    -0.647 OA
ENDBRANCH  23  24
ENDBRANCH  14  23
ENDBRANCH   1  10
BRANCH   2  27
HETATM   27  C8  UNL     1      16.791   7.927  10.577  1.00  0.00     0.279 C 
HETATM   28  O7  UNL     1      15.869   7.225  11.121  1.00  0.00    -0.265 OA
HETATM   29  N5  UNL     1      16.378   8.904   9.648  1.00  0.00    -0.301 N 
ATOM     30  H5  UNL     1      16.966   9.716   9.455  1.00  0.00     0.171 HD
BRANCH  29  31
HETATM   31  C9  UNL     1      15.220   8.752   9.029  1.00  0.00     0.153 A 
HETATM   32  N6  UNL     1      14.000   8.730   9.560  1.00  0.00    -0.317 N 
HETATM   33  C10 UNL     1      12.981   8.563   8.771  1.00  0.00     0.148 A 
ATOM     34  H6  UNL     1      13.869   8.842  10.565  1.00  0.00     0.170 HD
HETATM   35  C11 UNL     1      13.221   8.418   7.432  1.00  0.00     0.109 A 
HETATM   36  S1  UNL     1      14.923   8.530   7.363  1.00  0.00    -0.061 SA
BRANCH  33  37
HETATM   37  O8  UNL     1      11.637   8.526   9.245  1.00  0.00    -0.346 OA
ATOM     38  H8  UNL     1      11.205   9.283   9.623  1.00  0.00     0.219 HD
ENDBRANCH  33  37
ENDBRANCH  29  31
ENDBRANCH   2  27
BRANCH   3  39
HETATM   39  O9  UNL     1      18.876   6.763   8.735  1.00  0.00    -0.343 OA
ATOM     40  H9  UNL     1      19.231   5.980   8.328  1.00  0.00     0.219 HD
ENDBRANCH   3  39
BRANCH   5  41
HETATM   41  O10 UNL     1      22.240   6.189   9.500  1.00  0.00    -0.344 OA
ATOM     42  H10 UNL     1      23.069   6.460   9.123  1.00  0.00     0.219 HD
ENDBRANCH   5  41
BRANCH   6  43
HETATM   43  C15 UNL     1      23.577   6.818  12.266  1.00  0.00     0.148 C 
BRANCH  43  44
HETATM   44  N8  UNL     1      24.380   5.888  12.009  1.00  0.00    -0.278 N 
ATOM     45  H8  UNL     1      24.898   5.595  12.838  1.00  0.00     0.193 HD
BRANCH  44  46
HETATM   46  O11 UNL     1      24.726   5.195  10.943  1.00  0.00    -0.290 OA
ATOM     47  H11 UNL     1      25.349   4.504  10.744  1.00  0.00     0.244 HD
ENDBRANCH  44  46
ENDBRANCH  43  44
ENDBRANCH   6  43
TORSDOF 13
ENDMDL
MODEL 3
REMARK VINA RESULT: -8.085246296      1.118      2.791
REMARK  13 active torsions:
REMARK  status: ('A' for Active; 'I' for Inactive)
REMARK    1  A    between atoms: C1_2  and  C2_4 
REMARK    2  A    between atoms: C2_4  and  N1_5 
REMARK    3  A    between atoms: C3_6  and  N2_7 
REMARK    4  A    between atoms: C5_11  and  N3_12 
REMARK    5  A    between atoms: C6_15  and  N4_16 
REMARK    6  A    between atoms: C7_17  and  C8_18 
REMARK       I    between atoms: C8_18  and  N5_20 
REMARK    7  A    between atoms: N5_20  and  C9_22 
REMARK    8  A    between atoms: C10_25  and  O8_26 
REMARK    9  A    between atoms: C12_30  and  O9_31 
REMARK   10  A    between atoms: C13_34  and  O10_35 
REMARK   11  A    between atoms: C14_37  and  C15_38 
REMARK   12  A    between atoms: C15_38  and  N8_39 
REMARK   13  A    between atoms: N8_39  and  O11_41 
ROOT
HETATM    1  N4  UNL     1      15.150   4.303  10.422  1.00  0.00    -0.129 N 
HETATM    2  C7  UNL     1      15.152   3.055   9.950  1.00  0.00     0.177 A 
HETATM    3  C12 UNL     1      15.376   2.197  11.048  1.00  0.00     0.199 A 
HETATM    4  N7  UNL     1      15.501   2.958  12.136  1.00  0.00    -0.100 N 
HETATM    5  C13 UNL     1      15.714   2.930  13.482  1.00  0.00     0.194 A 
HETATM    6  C14 UNL     1      15.706   4.227  13.925  1.00  0.00     0.118 A 
HETATM    7  N9  UNL     1      15.487   5.023  12.830  1.00  0.00    -0.185 N 
ATOM      8  H9  UNL     1      15.426   6.041  12.833  1.00  0.00     0.184 HD
HETATM    9  C16 UNL     1      15.366   4.235  11.761  1.00  0.00     0.701 A 
ENDROOT
BRANCH   1  10
HETATM   10  C6  UNL     1      14.930   5.493   9.660  1.00  0.00     0.159 A 
HETATM   11  C5  UNL     1      13.682   6.009   9.423  1.00  0.00     0.140 A 
HETATM   12  C4  UNL     1      13.489   7.159   8.679  1.00  0.00     0.093 A 
HETATM   13  C3  UNL     1      14.591   7.839   8.136  1.00  0.00     0.181 A 
HETATM   14  N1  UNL     1      15.798   7.327   8.370  1.00  0.00    -0.283 N 
HETATM   15  C17 UNL     1      15.982   6.191   9.108  1.00  0.00     0.280 A 
HETATM   16  O12 UNL     1      17.157   5.741   9.304  1.00  0.00    -0.265 OA
BRANCH  11  17
HETATM   17  N3  UNL     1      12.527   5.342   9.926  1.00  0.00    -0.113 N 
HETATM   18  O5  UNL     1      11.990   4.455   9.273  1.00  0.00    -0.532 OA
HETATM   19  O6  UNL     1      12.031   5.714  11.160  1.00  0.00    -0.532 OA
ENDBRANCH  11  17
BRANCH  13  20
HETATM   20  N2  UNL     1      14.382   9.025   7.398  1.00  0.00    -0.098 N 
HETATM   21  O3  UNL     1      14.246  10.099   8.066  1.00  0.00    -0.531 OA
HETATM   22  O4  UNL     1      14.304   9.195   6.058  1.00  0.00    -0.531 OA
ENDBRANCH  13  20
BRANCH  14  23
HETATM   23  C2  UNL     1      16.981   7.947   7.819  1.00  0.00     0.247 C 
BRANCH  23  24
HETATM   24  C1  UNL     1      17.628   8.887   8.734  1.00  0.00     0.192 C 
HETATM   25  O1  UNL     1      18.589   8.485   9.436  1.00  0.00    -0.647 OA
HETATM   26  O2  UNL     1      17.232  10.193   8.861  1.00  0.00    -0.647 OA
ENDBRANCH  23  24
ENDBRANCH  14  23
ENDBRANCH   1  10
BRANCH   2  27
HETATM   27  C8  UNL     1      14.963   2.607   8.579  1.00  0.00     0.279 C 
HETATM   28  O7  UNL     1      15.813   2.923   7.675  1.00  0.00    -0.265 OA
HETATM   29  N5  UNL     1      13.865   1.822   8.170  1.00  0.00    -0.301 N 
ATOM     30  H5  UNL     1      13.366   1.240   8.843  1.00  0.00     0.171 HD
BRANCH  29  31
HETATM   31  C9  UNL     1      13.491   1.854   6.903  1.00  0.00     0.153 A 
HETATM   32  N6  UNL     1      13.715   0.947   5.956  1.00  0.00    -0.317 N 
HETATM   33  C10 UNL     1      13.262   1.172   4.758  1.00  0.00     0.148 A 
ATOM     34  H6  UNL     1      14.231   0.093   6.166  1.00  0.00     0.170 HD
HETATM   35  C11 UNL     1      12.576   2.335   4.538  1.00  0.00     0.109 A 
HETATM   36  S1  UNL     1      12.613   3.065   6.081  1.00  0.00    -0.061 SA
BRANCH  33  37
HETATM   37  O8  UNL     1      13.451   0.260   3.679  1.00  0.00    -0.346 OA
ATOM     38  H8  UNL     1      13.262   0.487   2.776  1.00  0.00     0.219 HD
ENDBRANCH  33  37
ENDBRANCH  29  31
ENDBRANCH   2  27
BRANCH   3  39
HETATM   39  O9  UNL     1      15.444   0.807  10.952  1.00  0.00    -0.343 OA
ATOM     40  H9  UNL     1      14.763   0.218  11.256  1.00  0.00     0.219 HD
ENDBRANCH   3  39
BRANCH   5  41
HETATM   41  O10 UNL     1      15.905   1.817  14.268  1.00  0.00    -0.344 OA
ATOM     42  H10 UNL     1      16.111   1.799  15.195  1.00  0.00     0.219 HD
ENDBRANCH   5  41
BRANCH   6  43
HETATM   43  C15 UNL     1      15.879   4.794  15.251  1.00  0.00     0.148 C 
BRANCH  43  44
HETATM   44  N8  UNL     1      16.114   4.208  16.336  1.00  0.00    -0.278 N 
ATOM     45  H8  UNL     1      16.925   4.603  16.813  1.00  0.00     0.193 HD
BRANCH  44  46
HETATM   46  O11 UNL     1      15.581   3.213  17.016  1.00  0.00    -0.290 OA
ATOM     47  H11 UNL     1      15.787   2.298  17.171  1.00  0.00     0.244 HD
ENDBRANCH  44  46
ENDBRANCH  43  44
ENDBRANCH   6  43
TORSDOF 13
ENDMDL
MODEL 4
REMARK VINA RESULT: -8.078652938      3.240      4.898
REMARK  13 active torsions:
REMARK  status: ('A' for Active; 'I' for Inactive)
REMARK    1  A    between atoms: C1_2  and  C2_4 
REMARK    2  A    between atoms: C2_4  and  N1_5 
REMARK    3  A    between atoms: C3_6  and  N2_7 
REMARK    4  A    between atoms: C5_11  and  N3_12 
REMARK    5  A    between atoms: C6_15  and  N4_16 
REMARK    6  A    between atoms: C7_17  and  C8_18 
REMARK       I    between atoms: C8_18  and  N5_20 
REMARK    7  A    between atoms: N5_20  and  C9_22 
REMARK    8  A    between atoms: C10_25  and  O8_26 
REMARK    9  A    between atoms: C12_30  and  O9_31 
REMARK   10  A    between atoms: C13_34  and  O10_35 
REMARK   11  A    between atoms: C14_37  and  C15_38 
REMARK   12  A    between atoms: C15_38  and  N8_39 
REMARK   13  A    between atoms: N8_39  and  O11_41 
ROOT
HETATM    1  N4  UNL     1      17.723   6.593   9.482  1.00  0.00    -0.129 N 
HETATM    2  C7  UNL     1      17.971   5.676   8.545  1.00  0.00     0.177 A 
HETATM    3  C12 UNL     1      19.357   5.414   8.578  1.00  0.00     0.199 A 
HETATM    4  N7  UNL     1      19.890   6.181   9.529  1.00  0.00    -0.100 N 
HETATM    5  C13 UNL     1      21.055   6.513  10.154  1.00  0.00     0.194 A 
HETATM    6  C14 UNL     1      20.758   7.454  11.104  1.00  0.00     0.118 A 
HETATM    7  N9  UNL     1      19.407   7.678  11.037  1.00  0.00    -0.185 N 
ATOM      8  H9  UNL     1      18.878   8.327  11.619  1.00  0.00     0.184 HD
HETATM    9  C16 UNL     1      18.903   6.898  10.079  1.00  0.00     0.701 A 
ENDROOT
BRANCH   1  10
HETATM   10  C6  UNL     1      16.441   7.133   9.816  1.00  0.00     0.159 A 
HETATM   11  C5  UNL     1      15.601   6.554  10.732  1.00  0.00     0.140 A 
HETATM   12  C4  UNL     1      14.363   7.089  11.039  1.00  0.00     0.093 A 
HETATM   13  C3  UNL     1      13.927   8.262  10.403  1.00  0.00     0.181 A 
HETATM   14  N1  UNL     1      14.749   8.815   9.514  1.00  0.00    -0.283 N 
HETATM   15  C17 UNL     1      15.973   8.282   9.216  1.00  0.00     0.280 A 
HETATM   16  O12 UNL     1      16.724   8.848   8.358  1.00  0.00    -0.265 OA
BRANCH  11  17
HETATM   17  N3  UNL     1      15.982   5.345  11.384  1.00  0.00    -0.113 N 
HETATM   18  O5  UNL     1      16.604   5.379  12.440  1.00  0.00    -0.532 OA
HETATM   19  O6  UNL     1      15.637   4.140  10.803  1.00  0.00    -0.532 OA
ENDBRANCH  11  17
BRANCH  13  20
HETATM   20  N2  UNL     1      12.670   8.811  10.743  1.00  0.00    -0.098 N 
HETATM   21  O3  UNL     1      11.652   8.308  10.169  1.00  0.00    -0.531 OA
HETATM   22  O4  UNL     1      12.380   9.811  11.606  1.00  0.00    -0.531 OA
ENDBRANCH  13  20
BRANCH  14  23
HETATM   23  C2  UNL     1      14.363  10.005   8.792  1.00  0.00     0.247 C 
BRANCH  23  24
HETATM   24  C1  UNL     1      15.015  11.220   9.277  1.00  0.00     0.192 C 
HETATM   25  O1  UNL     1      14.991  12.249   8.556  1.00  0.00    -0.647 OA
HETATM   26  O2  UNL     1      15.655  11.290  10.487  1.00  0.00    -0.647 OA
ENDBRANCH  23  24
ENDBRANCH  14  23
ENDBRANCH   1  10
BRANCH   2  27
HETATM   27  C8  UNL     1      17.032   5.035   7.638  1.00  0.00     0.279 C 
HETATM   28  O7  UNL     1      17.453   4.459   6.575  1.00  0.00    -0.265 OA
HETATM   29  N5  UNL     1      15.639   5.009   7.863  1.00  0.00    -0.301 N 
ATOM     30  H5  UNL     1      15.266   5.103   8.808  1.00  0.00     0.171 HD
BRANCH  29  31
HETATM   31  C9  UNL     1      14.826   4.861   6.832  1.00  0.00     0.153 A 
HETATM   32  N6  UNL     1      14.611   3.770   6.103  1.00  0.00    -0.317 N 
HETATM   33  C10 UNL     1      13.765   3.835   5.118  1.00  0.00     0.148 A 
ATOM     34  H6  UNL     1      15.100   2.900   6.312  1.00  0.00     0.170 HD
HETATM   35  C11 UNL     1      13.140   5.030   4.885  1.00  0.00     0.109 A 
HETATM   36  S1  UNL     1      13.802   6.020   6.108  1.00  0.00    -0.061 SA
BRANCH  33  37
HETATM   37  O8  UNL     1      13.469   2.720   4.281  1.00  0.00    -0.346 OA
ATOM     38  H8  UNL     1      12.635   2.265   4.308  1.00  0.00     0.219 HD
ENDBRANCH  33  37
ENDBRANCH  29  31
ENDBRANCH   2  27
BRANCH   3  39
HETATM   39  O9  UNL     1      19.999   4.503   7.740  1.00  0.00    -0.343 OA
ATOM     40  H9  UNL     1      20.356   4.724   6.887  1.00  0.00     0.219 HD
ENDBRANCH   3  39
BRANCH   5  41
HETATM   41  O10 UNL     1      22.308   6.007   9.892  1.00  0.00    -0.344 OA
ATOM     42  H10 UNL     1      23.006   5.855  10.519  1.00  0.00     0.219 HD
ENDBRANCH   5  41
BRANCH   6  43
HETATM   43  C15 UNL     1      21.595   8.159  12.059  1.00  0.00     0.148 C 
BRANCH  43  44
HETATM   44  N8  UNL     1      22.773   7.907  12.414  1.00  0.00    -0.278 N 
ATOM     45  H8  UNL     1      23.338   8.753  12.483  1.00  0.00     0.193 HD
BRANCH  44  46
HETATM   46  O11 UNL     1      23.465   6.828  12.719  1.00  0.00    -0.290 OA
ATOM     47  H11 UNL     1      23.621   5.976  12.326  1.00  0.00     0.244 HD
ENDBRANCH  44  46
ENDBRANCH  43  44
ENDBRANCH   6  43
TORSDOF 13
ENDMDL
MODEL 5
REMARK VINA RESULT: -8.078501780      4.245      7.217
REMARK  13 active torsions:
REMARK  status: ('A' for Active; 'I' for Inactive)
REMARK    1  A    between atoms: C1_2  and  C2_4 
REMARK    2  A    between atoms: C2_4  and  N1_5 
REMARK    3  A    between atoms: C3_6  and  N2_7 
REMARK    4  A    between atoms: C5_11  and  N3_12 
REMARK    5  A    between atoms: C6_15  and  N4_16 
REMARK    6  A    between atoms: C7_17  and  C8_18 
REMARK       I    between atoms: C8_18  and  N5_20 
REMARK    7  A    between atoms: N5_20  and  C9_22 
REMARK    8  A    between atoms: C10_25  and  O8_26 
REMARK    9  A    between atoms: C12_30  and  O9_31 
REMARK   10  A    between atoms: C13_34  and  O10_35 
REMARK   11  A    between atoms: C14_37  and  C15_38 
REMARK   12  A    between atoms: C15_38  and  N8_39 
REMARK   13  A    between atoms: N8_39  and  O11_41 
ROOT
HETATM    1  N4  UNL     1      17.433   7.582  11.156  1.00  0.00    -0.129 N 
HETATM    2  C7  UNL     1      16.772   7.233  10.050  1.00  0.00     0.177 A 
HETATM    3  C12 UNL     1      17.723   6.724   9.141  1.00  0.00     0.199 A 
HETATM    4  N7  UNL     1      18.918   6.787   9.731  1.00  0.00    -0.100 N 
HETATM    5  C13 UNL     1      20.244   6.522   9.563  1.00  0.00     0.194 A 
HETATM    6  C14 UNL     1      20.885   6.894  10.716  1.00  0.00     0.118 A 
HETATM    7  N9  UNL     1      19.927   7.381  11.567  1.00  0.00    -0.185 N 
ATOM      8  H9  UNL     1      20.089   7.738  12.508  1.00  0.00     0.184 HD
HETATM    9  C16 UNL     1      18.746   7.306  10.951  1.00  0.00     0.701 A 
ENDROOT
BRANCH   1  10
HETATM   10  C6  UNL     1      16.857   8.118  12.349  1.00  0.00     0.159 A 
HETATM   11  C5  UNL     1      16.611   9.456  12.526  1.00  0.00     0.140 A 
HETATM   12  C4  UNL     1      16.058   9.957  13.691  1.00  0.00     0.093 A 
HETATM   13  C3  UNL     1      15.729   9.088  14.743  1.00  0.00     0.181 A 
HETATM   14  N1  UNL     1      15.974   7.792  14.562  1.00  0.00    -0.283 N 
HETATM   15  C17 UNL     1      16.520   7.303  13.408  1.00  0.00     0.280 A 
HETATM   16  O12 UNL     1      16.736   6.054  13.283  1.00  0.00    -0.265 OA
BRANCH  11  17
HETATM   17  N3  UNL     1      16.954  10.385  11.500  1.00  0.00    -0.113 N 
HETATM   18  O5  UNL     1      16.128  10.703  10.652  1.00  0.00    -0.532 OA
HETATM   19  O6  UNL     1      18.229  10.916  11.484  1.00  0.00    -0.532 OA
ENDBRANCH  11  17
BRANCH  13  20
HETATM   20  N2  UNL     1      15.143   9.609  15.918  1.00  0.00    -0.098 N 
HETATM   21  O3  UNL     1      15.915  10.228  16.717  1.00  0.00    -0.531 OA
HETATM   22  O4  UNL     1      13.856   9.550  16.329  1.00  0.00    -0.531 OA
ENDBRANCH  13  20
BRANCH  14  23
HETATM   23  C2  UNL     1      15.695   6.836  15.609  1.00  0.00     0.247 C 
BRANCH  23  24
HETATM   24  C1  UNL     1      16.789   6.682  16.567  1.00  0.00     0.192 C 
HETATM   25  O1  UNL     1      16.565   6.088  17.652  1.00  0.00    -0.647 OA
HETATM   26  O2  UNL     1      18.053   7.159  16.337  1.00  0.00    -0.647 OA
ENDBRANCH  23  24
ENDBRANCH  14  23
ENDBRANCH   1  10
BRANCH   2  27
HETATM   27  C8  UNL     1      15.346   7.335   9.781  1.00  0.00     0.279 C 
HETATM   28  O7  UNL     1      14.547   6.418  10.181  1.00  0.00    -0.265 OA
HETATM   29  N5  UNL     1      14.770   8.416   9.081  1.00  0.00    -0.301 N 
ATOM     30  H5  UNL     1      15.238   9.322   9.052  1.00  0.00     0.171 HD
BRANCH  29  31
HETATM   31  C9  UNL     1      13.616   8.237   8.461  1.00  0.00     0.153 A 
HETATM   32  N6  UNL     1      12.401   8.150   8.995  1.00  0.00    -0.317 N 
HETATM   33  C10 UNL     1      11.385   7.966   8.205  1.00  0.00     0.148 A 
ATOM     34  H6  UNL     1      12.269   8.227  10.004  1.00  0.00     0.170 HD
HETATM   35  C11 UNL     1      11.625   7.871   6.861  1.00  0.00     0.109 A 
HETATM   36  S1  UNL     1      13.321   8.053   6.790  1.00  0.00    -0.061 SA
BRANCH  33  37
HETATM   37  O8  UNL     1      10.046   7.862   8.682  1.00  0.00    -0.346 OA
ATOM     38  H8  UNL     1       9.438   8.592   8.668  1.00  0.00     0.219 HD
ENDBRANCH  33  37
ENDBRANCH  29  31
ENDBRANCH   2  27
BRANCH   3  39
HETATM   39  O9  UNL     1      17.411   6.254   7.865  1.00  0.00    -0.343 OA
ATOM     40  H9  UNL     1      17.510   5.349   7.592  1.00  0.00     0.219 HD
ENDBRANCH   3  39
BRANCH   5  41
HETATM   41  O10 UNL     1      20.848   5.983   8.450  1.00  0.00    -0.344 OA
ATOM     42  H10 UNL     1      20.657   6.185   7.541  1.00  0.00     0.219 HD
ENDBRANCH   5  41
BRANCH   6  43
HETATM   43  C15 UNL     1      22.285   6.842  11.101  1.00  0.00     0.148 C 
BRANCH  43  44
HETATM   44  N8  UNL     1      23.306   6.873  10.372  1.00  0.00    -0.278 N 
ATOM     45  H8  UNL     1      23.980   7.568  10.693  1.00  0.00     0.193 HD
BRANCH  44  46
HETATM   46  O11 UNL     1      23.730   6.238   9.298  1.00  0.00    -0.290 OA
ATOM     47  H11 UNL     1      24.553   5.870   8.997  1.00  0.00     0.244 HD
ENDBRANCH  44  46
ENDBRANCH  43  44
ENDBRANCH   6  43
TORSDOF 13
ENDMDL
