MODEL 1
REMARK VINA RESULT: -8.565042458      0.000      0.000
REMARK  11 active torsions:
REMARK  status: ('A' for Active; 'I' for Inactive)
REMARK    1  A    between atoms: C3_4  and  N2_5 
REMARK    2  A    between atoms: N2_5  and  C4_7 
REMARK    3  A    between atoms: C4_7  and  O1_8 
REMARK    4  A    between atoms: C4_7  and  C5_10 
REMARK    5  A    between atoms: N3_12  and  N4_13 
REMARK    6  A    between atoms: C11_29  and  S1_30 
REMARK    7  A    between atoms: S1_30  and  N9_31 
REMARK    8  A    between atoms: C12_37  and  N10_38 
REMARK    9  A    between atoms: C13_42  and  C14_43 
REMARK   10  A    between atoms: C14_43  and  O6_44 
REMARK   11  A    between atoms: O6_44  and  N12_45 
ROOT
HETATM    1  N1  UNL     1      23.359   7.066  12.877  1.00  0.00    -0.191 NA
HETATM    2  C1  UNL     1      22.299   7.256  12.466  1.00  0.00     0.105 C 
HETATM    3  C2  UNL     1      20.973   7.517  11.944  1.00  0.00     0.115 A 
HETATM    4  C3  UNL     1      20.090   8.239  12.672  1.00  0.00     0.127 A 
HETATM    5  N7  UNL     1      18.836   8.503  12.213  1.00  0.00    -0.340 N 
ATOM      6  H7  UNL     1      18.191   9.051  12.783  1.00  0.00     0.167 HD
HETATM    7  C7  UNL     1      18.444   8.049  11.019  1.00  0.00     0.067 A 
HETATM    8  C8  UNL     1      19.338   7.302  10.250  1.00  0.00     0.087 A 
HETATM    9  C9  UNL     1      18.906   6.850   9.031  1.00  0.00     0.260 A 
HETATM   10  O2  UNL     1      19.685   6.175   8.313  1.00  0.00    -0.267 OA
HETATM   11  N8  UNL     1      17.670   7.129   8.623  1.00  0.00    -0.320 N 
ATOM     12  H8  UNL     1      17.380   6.778   7.710  1.00  0.00     0.169 HD
HETATM   13  C10 UNL     1      16.767   7.853   9.343  1.00  0.00     0.081 A 
HETATM   14  C11 UNL     1      15.504   8.107   8.881  1.00  0.00     0.149 A 
HETATM   15  S2  UNL     1      14.799   9.009  10.115  1.00  0.00    -0.053 SA
HETATM   16  C12 UNL     1      16.166   9.041  11.221  1.00  0.00     0.124 A 
HETATM   17  C15 UNL     1      17.120   8.336  10.562  1.00  0.00     0.057 A 
HETATM   18  C16 UNL     1      20.620   7.016  10.688  1.00  0.00     0.068 A 
HETATM   19  N13 UNL     1      21.458   6.363  10.059  1.00  0.00    -0.397 N 
ATOM     20 1H13 UNL     1      21.200   5.997   9.143  1.00  0.00     0.156 HD
ATOM     21 2H13 UNL     1      22.402   6.153  10.382  1.00  0.00     0.156 HD
ENDROOT
BRANCH   4  22
HETATM   22  N2  UNL     1      20.424   8.736  13.970  1.00  0.00    -0.344 N 
ATOM     23  H2  UNL     1      20.832   8.105  14.660  1.00  0.00     0.164 HD
BRANCH  22  24
HETATM   24  C4  UNL     1      20.195  10.101  14.314  1.00  0.00     0.273 C 
BRANCH  24  25
HETATM   25  O1  UNL     1      18.823  10.427  14.248  1.00  0.00    -0.371 OA
ATOM     26  H1  UNL     1      18.471  10.623  15.108  1.00  0.00     0.212 HD
ENDBRANCH  24  25
BRANCH  24  27
HETATM   27  C5  UNL     1      20.945  10.973  13.360  1.00  0.00     0.094 A 
HETATM   28  C6  UNL     1      20.473  12.099  12.725  1.00  0.00     0.168 A 
HETATM   29  N3  UNL     1      21.467  12.601  11.942  1.00  0.00    -0.198 N 
HETATM   30  N5  UNL     1      22.493  11.793  12.113  1.00  0.00    -0.222 N 
HETATM   31  N6  UNL     1      22.211  10.820  12.949  1.00  0.00    -0.283 N 
ATOM     32  H5  UNL     1      23.395  11.909  11.653  1.00  0.00     0.210 HD
ATOM     33  H6  UNL     1      22.847  10.076  13.236  1.00  0.00     0.188 HD
BRANCH  29  34
HETATM   34  N4  UNL     1      21.380  13.736  11.140  1.00  0.00    -0.323 N 
ATOM     35  H42 UNL     1      20.583  14.076  10.602  1.00  0.00     0.179 HD
ATOM     36  H41 UNL     1      22.128  14.410  10.973  1.00  0.00     0.179 HD
ENDBRANCH  29  34
ENDBRANCH  24  27
ENDBRANCH  22  24
ENDBRANCH   4  22
BRANCH  16  37
HETATM   37  N10 UNL     1      16.015   9.722  12.478  1.00  0.00    -0.173 N 
HETATM   38  O5  UNL     1      16.303  10.778  13.126  1.00  0.00    -0.146 OA
HETATM   39  N11 UNL     1      15.765  10.411  14.210  1.00  0.00    -0.224 N 
HETATM   40  C13 UNL     1      15.412   9.262  13.624  1.00  0.00     0.161 A 
ATOM     41  H11 UNL     1      15.649  10.818  15.138  1.00  0.00     0.198 HD
BRANCH  40  42
HETATM   42  C14 UNL     1      14.688   8.040  14.042  1.00  0.00     0.288 C 
BRANCH  42  43
HETATM   43  O6  UNL     1      15.538   7.235  14.833  1.00  0.00    -0.214 OA
BRANCH  43  44
HETATM   44  N12 UNL     1      16.872   7.062  14.592  1.00  0.00     0.005 N 
HETATM   45  O7  UNL     1      17.347   6.222  13.807  1.00  0.00    -0.511 OA
HETATM   46  O8  UNL     1      17.756   7.873  15.261  1.00  0.00    -0.511 OA
ENDBRANCH  43  44
ENDBRANCH  42  43
ENDBRANCH  40  42
ENDBRANCH  16  37
BRANCH  14  47
HETATM   47  S1  UNL     1      14.732   7.615   7.351  1.00  0.00     0.265 S 
HETATM   48  O3  UNL     1      15.392   6.374   6.851  1.00  0.00    -0.200 OA
HETATM   49  O4  UNL     1      13.292   7.254   7.710  1.00  0.00    -0.200 OA
BRANCH  47  50
HETATM   50  N9  UNL     1      14.733   8.872   6.200  1.00  0.00    -0.324 N 
ATOM     51  H92 UNL     1      13.950   9.515   6.075  1.00  0.00     0.169 HD
ATOM     52  H91 UNL     1      15.600   8.900   5.663  1.00  0.00     0.169 HD
ENDBRANCH  47  50
ENDBRANCH  14  47
TORSDOF 11
ENDMDL
MODEL 2
REMARK VINA RESULT: -8.405695510      2.767      4.113
REMARK  11 active torsions:
REMARK  status: ('A' for Active; 'I' for Inactive)
REMARK    1  A    between atoms: C3_4  and  N2_5 
REMARK    2  A    between atoms: N2_5  and  C4_7 
REMARK    3  A    between atoms: C4_7  and  O1_8 
REMARK    4  A    between atoms: C4_7  and  C5_10 
REMARK    5  A    between atoms: N3_12  and  N4_13 
REMARK    6  A    between atoms: C11_29  and  S1_30 
REMARK    7  A    between atoms: S1_30  and  N9_31 
REMARK    8  A    between atoms: C12_37  and  N10_38 
REMARK    9  A    between atoms: C13_42  and  C14_43 
REMARK   10  A    between atoms: C14_43  and  O6_44 
REMARK   11  A    between atoms: O6_44  and  N12_45 
ROOT
HETATM    1  N1  UNL     1      22.000   6.245  10.084  1.00  0.00    -0.191 NA
HETATM    2  C1  UNL     1      20.893   6.230   9.766  1.00  0.00     0.105 C 
HETATM    3  C2  UNL     1      19.504   6.231   9.355  1.00  0.00     0.115 A 
HETATM    4  C3  UNL     1      18.618   7.052   9.967  1.00  0.00     0.127 A 
HETATM    5  N7  UNL     1      17.305   7.079   9.607  1.00  0.00    -0.340 N 
ATOM      6  H7  UNL     1      16.661   7.709  10.086  1.00  0.00     0.167 HD
HETATM    7  C7  UNL     1      16.857   6.286   8.630  1.00  0.00     0.067 A 
HETATM    8  C8  UNL     1      17.751   5.431   7.984  1.00  0.00     0.087 A 
HETATM    9  C9  UNL     1      17.260   4.630   6.987  1.00  0.00     0.260 A 
HETATM   10  O2  UNL     1      18.038   3.850   6.384  1.00  0.00    -0.267 OA
HETATM   11  N8  UNL     1      15.969   4.687   6.670  1.00  0.00    -0.320 N 
ATOM     12  H8  UNL     1      15.635   4.078   5.923  1.00  0.00     0.169 HD
HETATM   13  C10 UNL     1      15.063   5.505   7.277  1.00  0.00     0.081 A 
HETATM   14  C11 UNL     1      13.743   5.521   6.917  1.00  0.00     0.149 A 
HETATM   15  S2  UNL     1      13.061   6.667   7.945  1.00  0.00    -0.053 SA
HETATM   16  C12 UNL     1      14.513   7.109   8.833  1.00  0.00     0.124 A 
HETATM   17  C15 UNL     1      15.472   6.329   8.274  1.00  0.00     0.057 A 
HETATM   18  C16 UNL     1      19.092   5.380   8.327  1.00  0.00     0.068 A 
HETATM   19  N13 UNL     1      19.934   4.649   7.797  1.00  0.00    -0.397 N 
ATOM     20 1H13 UNL     1      19.634   4.027   7.046  1.00  0.00     0.156 HD
ATOM     21 2H13 UNL     1      20.922   4.611   8.049  1.00  0.00     0.156 HD
ENDROOT
BRANCH   4  22
HETATM   22  N2  UNL     1      19.015   7.910  11.040  1.00  0.00    -0.344 N 
ATOM     23  H2  UNL     1      19.791   8.558  10.904  1.00  0.00     0.164 HD
BRANCH  22  24
HETATM   24  C4  UNL     1      18.342   7.872  12.296  1.00  0.00     0.273 C 
BRANCH  24  25
HETATM   25  O1  UNL     1      16.972   8.183  12.157  1.00  0.00    -0.371 OA
ATOM     26  H1  UNL     1      16.647   8.662  12.909  1.00  0.00     0.212 HD
ENDBRANCH  24  25
BRANCH  24  27
HETATM   27  C5  UNL     1      18.972   8.870  13.213  1.00  0.00     0.094 A 
HETATM   28  C6  UNL     1      19.880   9.847  12.872  1.00  0.00     0.168 A 
HETATM   29  N3  UNL     1      20.206  10.543  13.996  1.00  0.00    -0.198 N 
HETATM   30  N5  UNL     1      19.511   9.990  14.968  1.00  0.00    -0.222 N 
HETATM   31  N6  UNL     1      18.771   8.996  14.532  1.00  0.00    -0.283 N 
ATOM     32  H5  UNL     1      19.543  10.296  15.940  1.00  0.00     0.210 HD
ATOM     33  H6  UNL     1      18.149   8.421  15.099  1.00  0.00     0.188 HD
BRANCH  29  34
HETATM   34  N4  UNL     1      21.096  11.613  14.064  1.00  0.00    -0.323 N 
ATOM     35  H42 UNL     1      21.044  12.515  13.593  1.00  0.00     0.179 HD
ATOM     36  H41 UNL     1      21.954  11.643  14.615  1.00  0.00     0.179 HD
ENDBRANCH  29  34
ENDBRANCH  24  27
ENDBRANCH  22  24
ENDBRANCH   4  22
BRANCH  16  37
HETATM   37  N10 UNL     1      14.405   8.094   9.875  1.00  0.00    -0.173 N 
HETATM   38  O5  UNL     1      14.236   8.268  11.124  1.00  0.00    -0.146 OA
HETATM   39  N11 UNL     1      14.219   9.532  11.073  1.00  0.00    -0.224 N 
HETATM   40  C13 UNL     1      14.395   9.463   9.750  1.00  0.00     0.161 A 
ATOM     41  H11 UNL     1      14.114  10.285  11.753  1.00  0.00     0.198 HD
BRANCH  40  42
HETATM   42  C14 UNL     1      14.522  10.443   8.646  1.00  0.00     0.288 C 
BRANCH  42  43
HETATM   43  O6  UNL     1      15.810  11.021   8.675  1.00  0.00    -0.214 OA
BRANCH  43  44
HETATM   44  N12 UNL     1      16.955  10.330   8.959  1.00  0.00     0.005 N 
HETATM   45  O7  UNL     1      17.609   9.671   8.131  1.00  0.00    -0.511 OA
HETATM   46  O8  UNL     1      17.421  10.362  10.251  1.00  0.00    -0.511 OA
ENDBRANCH  43  44
ENDBRANCH  42  43
ENDBRANCH  40  42
ENDBRANCH  16  37
BRANCH  14  47
HETATM   47  S1  UNL     1      12.890   4.570   5.674  1.00  0.00     0.265 S 
HETATM   48  O3  UNL     1      11.834   5.420   5.051  1.00  0.00    -0.200 OA
HETATM   49  O4  UNL     1      13.930   4.268   4.597  1.00  0.00    -0.200 OA
BRANCH  47  50
HETATM   50  N9  UNL     1      12.276   3.106   6.297  1.00  0.00    -0.324 N 
ATOM     51  H92 UNL     1      11.456   3.058   6.902  1.00  0.00     0.169 HD
ATOM     52  H91 UNL     1      12.823   2.300   5.992  1.00  0.00     0.169 HD
ENDBRANCH  47  50
ENDBRANCH  14  47
TORSDOF 11
ENDMDL
MODEL 3
REMARK VINA RESULT: -8.393566491      1.274      1.513
REMARK  11 active torsions:
REMARK  status: ('A' for Active; 'I' for Inactive)
REMARK    1  A    between atoms: C3_4  and  N2_5 
REMARK    2  A    between atoms: N2_5  and  C4_7 
REMARK    3  A    between atoms: C4_7  and  O1_8 
REMARK    4  A    between atoms: C4_7  and  C5_10 
REMARK    5  A    between atoms: N3_12  and  N4_13 
REMARK    6  A    between atoms: C11_29  and  S1_30 
REMARK    7  A    between atoms: S1_30  and  N9_31 
REMARK    8  A    between atoms: C12_37  and  N10_38 
REMARK    9  A    between atoms: C13_42  and  C14_43 
REMARK   10  A    between atoms: C14_43  and  O6_44 
REMARK   11  A    between atoms: O6_44  and  N12_45 
ROOT
HETATM    1  N1  UNL     1      23.409   6.530  12.032  1.00  0.00    -0.191 NA
HETATM    2  C1  UNL     1      22.367   6.870  11.676  1.00  0.00     0.105 C 
HETATM    3  C2  UNL     1      21.067   7.318  11.220  1.00  0.00     0.115 A 
HETATM    4  C3  UNL     1      20.433   8.324  11.867  1.00  0.00     0.127 A 
HETATM    5  N7  UNL     1      19.211   8.771  11.466  1.00  0.00    -0.340 N 
ATOM      6  H7  UNL     1      18.757   9.531  11.972  1.00  0.00     0.167 HD
HETATM    7  C7  UNL     1      18.603   8.218  10.412  1.00  0.00     0.067 A 
HETATM    8  C8  UNL     1      19.237   7.179   9.728  1.00  0.00     0.087 A 
HETATM    9  C9  UNL     1      18.588   6.633   8.653  1.00  0.00     0.260 A 
HETATM   10  O2  UNL     1      19.131   5.698   8.015  1.00  0.00    -0.267 OA
HETATM   11  N8  UNL     1      17.392   7.099   8.298  1.00  0.00    -0.320 N 
ATOM     12  H8  UNL     1      16.936   6.671   7.492  1.00  0.00     0.169 HD
HETATM   13  C10 UNL     1      16.738   8.109   8.938  1.00  0.00     0.081 A 
HETATM   14  C11 UNL     1      15.506   8.547   8.536  1.00  0.00     0.149 A 
HETATM   15  S2  UNL     1      15.139   9.772   9.631  1.00  0.00    -0.053 SA
HETATM   16  C12 UNL     1      16.603   9.694  10.602  1.00  0.00     0.124 A 
HETATM   17  C15 UNL     1      17.317   8.701  10.014  1.00  0.00     0.057 A 
HETATM   18  C16 UNL     1      20.480   6.703  10.111  1.00  0.00     0.068 A 
HETATM   19  N13 UNL     1      21.095   5.790   9.553  1.00  0.00    -0.397 N 
ATOM     20 1H13 UNL     1      20.667   5.340   8.743  1.00  0.00     0.156 HD
ATOM     21 2H13 UNL     1      22.010   5.439   9.834  1.00  0.00     0.156 HD
ENDROOT
BRANCH   4  22
HETATM   22  N2  UNL     1      21.006   8.948  13.019  1.00  0.00    -0.344 N 
ATOM     23  H2  UNL     1      20.664   8.698  13.947  1.00  0.00     0.164 HD
BRANCH  22  24
HETATM   24  C4  UNL     1      22.047   9.913  12.889  1.00  0.00     0.273 C 
BRANCH  24  25
HETATM   25  O1  UNL     1      22.885   9.923  14.026  1.00  0.00    -0.371 OA
ATOM     26  H1  UNL     1      23.599  10.542  13.925  1.00  0.00     0.212 HD
ENDBRANCH  24  25
BRANCH  24  27
HETATM   27  C5  UNL     1      21.435  11.266  12.729  1.00  0.00     0.094 A 
HETATM   28  C6  UNL     1      21.914  12.303  11.960  1.00  0.00     0.168 A 
HETATM   29  N3  UNL     1      21.066  13.361  12.087  1.00  0.00    -0.198 N 
HETATM   30  N5  UNL     1      20.118  12.957  12.906  1.00  0.00    -0.222 N 
HETATM   31  N6  UNL     1      20.312  11.719  13.301  1.00  0.00    -0.283 N 
ATOM     32  H5  UNL     1      19.330  13.534  13.198  1.00  0.00     0.210 HD
ATOM     33  H6  UNL     1      19.710  11.193  13.935  1.00  0.00     0.188 HD
BRANCH  29  34
HETATM   34  N4  UNL     1      21.206  14.599  11.464  1.00  0.00    -0.323 N 
ATOM     35  H42 UNL     1      20.662  14.990  10.695  1.00  0.00     0.179 HD
ATOM     36  H41 UNL     1      21.897  15.312  11.698  1.00  0.00     0.179 HD
ENDBRANCH  29  34
ENDBRANCH  24  27
ENDBRANCH  22  24
ENDBRANCH   4  22
BRANCH  16  37
HETATM   37  N10 UNL     1      16.735  10.592  11.717  1.00  0.00    -0.173 N 
HETATM   38  O5  UNL     1      17.176  11.726  12.088  1.00  0.00    -0.146 OA
HETATM   39  N11 UNL     1      16.869  11.586  13.308  1.00  0.00    -0.224 N 
HETATM   40  C13 UNL     1      16.375  10.376  13.026  1.00  0.00     0.161 A 
ATOM     41  H11 UNL     1      16.960  12.154  14.150  1.00  0.00     0.198 HD
BRANCH  40  42
HETATM   42  C14 UNL     1      15.728   9.291  13.798  1.00  0.00     0.288 C 
BRANCH  42  43
HETATM   43  O6  UNL     1      16.575   8.894  14.856  1.00  0.00    -0.214 OA
BRANCH  43  44
HETATM   44  N12 UNL     1      17.929   8.746  14.739  1.00  0.00     0.005 N 
HETATM   45  O7  UNL     1      18.764   9.630  15.003  1.00  0.00    -0.511 OA
HETATM   46  O8  UNL     1      18.407   7.536  14.299  1.00  0.00    -0.511 OA
ENDBRANCH  43  44
ENDBRANCH  42  43
ENDBRANCH  40  42
ENDBRANCH  16  37
BRANCH  14  47
HETATM   47  S1  UNL     1      14.481   7.983   7.191  1.00  0.00     0.265 S 
HETATM   48  O3  UNL     1      15.030   6.699   6.667  1.00  0.00    -0.200 OA
HETATM   49  O4  UNL     1      13.117   7.681   7.806  1.00  0.00    -0.200 OA
BRANCH  47  50
HETATM   50  N9  UNL     1      14.308   9.169   5.978  1.00  0.00    -0.324 N 
ATOM     51  H92 UNL     1      14.667  10.120   6.072  1.00  0.00     0.169 HD
ATOM     52  H91 UNL     1      13.807   8.814   5.163  1.00  0.00     0.169 HD
ENDBRANCH  47  50
ENDBRANCH  14  47
TORSDOF 11
ENDMDL
MODEL 4
REMARK VINA RESULT: -8.384989522      1.979      2.846
REMARK  11 active torsions:
REMARK  status: ('A' for Active; 'I' for Inactive)
REMARK    1  A    between atoms: C3_4  and  N2_5 
REMARK    2  A    between atoms: N2_5  and  C4_7 
REMARK    3  A    between atoms: C4_7  and  O1_8 
REMARK    4  A    between atoms: C4_7  and  C5_10 
REMARK    5  A    between atoms: N3_12  and  N4_13 
REMARK    6  A    between atoms: C11_29  and  S1_30 
REMARK    7  A    between atoms: S1_30  and  N9_31 
REMARK    8  A    between atoms: C12_37  and  N10_38 
REMARK    9  A    between atoms: C13_42  and  C14_43 
REMARK   10  A    between atoms: C14_43  and  O6_44 
REMARK   11  A    between atoms: O6_44  and  N12_45 
ROOT
HETATM    1  N1  UNL     1      23.186   9.059  13.392  1.00  0.00    -0.191 NA
HETATM    2  C1  UNL     1      22.234   8.667  12.876  1.00  0.00     0.105 C 
HETATM    3  C2  UNL     1      21.033   8.196  12.217  1.00  0.00     0.115 A 
HETATM    4  C3  UNL     1      19.817   8.584  12.669  1.00  0.00     0.127 A 
HETATM    5  N7  UNL     1      18.668   8.160  12.074  1.00  0.00    -0.340 N 
ATOM      6  H7  UNL     1      17.765   8.470  12.435  1.00  0.00     0.167 HD
HETATM    7  C7  UNL     1      18.715   7.342  11.019  1.00  0.00     0.067 A 
HETATM    8  C8  UNL     1      19.958   6.928  10.535  1.00  0.00     0.087 A 
HETATM    9  C9  UNL     1      19.973   6.089   9.453  1.00  0.00     0.260 A 
HETATM   10  O2  UNL     1      21.074   5.699   8.991  1.00  0.00    -0.267 OA
HETATM   11  N8  UNL     1      18.825   5.698   8.904  1.00  0.00    -0.320 N 
ATOM     12  H8  UNL     1      18.871   5.073   8.099  1.00  0.00     0.169 HD
HETATM   13  C10 UNL     1      17.592   6.076   9.347  1.00  0.00     0.081 A 
HETATM   14  C11 UNL     1      16.441   5.639   8.751  1.00  0.00     0.149 A 
HETATM   15  S2  UNL     1      15.221   6.369   9.653  1.00  0.00    -0.053 SA
HETATM   16  C12 UNL     1      16.235   7.235  10.800  1.00  0.00     0.124 A 
HETATM   17  C15 UNL     1      17.494   6.907  10.415  1.00  0.00     0.057 A 
HETATM   18  C16 UNL     1      21.145   7.341  11.117  1.00  0.00     0.068 A 
HETATM   19  N13 UNL     1      22.273   7.014  10.740  1.00  0.00    -0.397 N 
ATOM     20 1H13 UNL     1      22.356   6.390   9.938  1.00  0.00     0.156 HD
ATOM     21 2H13 UNL     1      23.148   7.318  11.169  1.00  0.00     0.156 HD
ENDROOT
BRANCH   4  22
HETATM   22  N2  UNL     1      19.682   9.436  13.809  1.00  0.00    -0.344 N 
ATOM     23  H2  UNL     1      19.988   9.103  14.723  1.00  0.00     0.164 HD
BRANCH  22  24
HETATM   24  C4  UNL     1      19.126  10.742  13.686  1.00  0.00     0.273 C 
BRANCH  24  25
HETATM   25  O1  UNL     1      17.948  10.731  12.907  1.00  0.00    -0.371 OA
ATOM     26  H1  UNL     1      17.541  11.588  12.881  1.00  0.00     0.212 HD
ENDBRANCH  24  25
BRANCH  24  27
HETATM   27  C5  UNL     1      20.128  11.636  13.031  1.00  0.00     0.094 A 
HETATM   28  C6  UNL     1      19.871  12.658  12.146  1.00  0.00     0.168 A 
HETATM   29  N3  UNL     1      21.055  13.223  11.784  1.00  0.00    -0.198 N 
HETATM   30  N5  UNL     1      21.980  12.553  12.437  1.00  0.00    -0.222 N 
HETATM   31  N6  UNL     1      21.459  11.606  13.184  1.00  0.00    -0.283 N 
ATOM     32  H5  UNL     1      22.980  12.744  12.371  1.00  0.00     0.210 HD
ATOM     33  H6  UNL     1      21.978  10.961  13.779  1.00  0.00     0.188 HD
BRANCH  29  34
HETATM   34  N4  UNL     1      21.214  14.290  10.902  1.00  0.00    -0.323 N 
ATOM     35  H42 UNL     1      21.998  14.491  10.280  1.00  0.00     0.179 HD
ATOM     36  H41 UNL     1      20.545  15.045  10.749  1.00  0.00     0.179 HD
ENDBRANCH  29  34
ENDBRANCH  24  27
ENDBRANCH  22  24
ENDBRANCH   4  22
BRANCH  16  37
HETATM   37  N10 UNL     1      15.597   8.023  11.820  1.00  0.00    -0.173 N 
HETATM   38  O5  UNL     1      15.364   8.112  13.067  1.00  0.00    -0.146 OA
HETATM   39  N11 UNL     1      14.640   9.146  12.985  1.00  0.00    -0.224 N 
HETATM   40  C13 UNL     1      14.821   9.146  11.661  1.00  0.00     0.161 A 
ATOM     41  H11 UNL     1      14.133   9.733  13.648  1.00  0.00     0.198 HD
BRANCH  40  42
HETATM   42  C14 UNL     1      14.373   9.993  10.531  1.00  0.00     0.288 C 
BRANCH  42  43
HETATM   43  O6  UNL     1      15.436  10.825  10.115  1.00  0.00    -0.214 OA
BRANCH  43  44
HETATM   44  N12 UNL     1      16.578  10.370   9.519  1.00  0.00     0.005 N 
HETATM   45  O7  UNL     1      16.626   9.831   8.399  1.00  0.00    -0.511 OA
HETATM   46  O8  UNL     1      17.761  10.516  10.202  1.00  0.00    -0.511 OA
ENDBRANCH  43  44
ENDBRANCH  42  43
ENDBRANCH  40  42
ENDBRANCH  16  37
BRANCH  14  47
HETATM   47  S1  UNL     1      16.223   4.549   7.357  1.00  0.00     0.265 S 
HETATM   48  O3  UNL     1      15.230   5.151   6.420  1.00  0.00    -0.200 OA
HETATM   49  O4  UNL     1      17.570   4.519   6.639  1.00  0.00    -0.200 OA
BRANCH  47  50
HETATM   50  N9  UNL     1      15.800   2.970   7.840  1.00  0.00    -0.324 N 
ATOM     51  H92 UNL     1      14.838   2.631   7.861  1.00  0.00     0.169 HD
ATOM     52  H91 UNL     1      16.618   2.417   8.100  1.00  0.00     0.169 HD
ENDBRANCH  47  50
ENDBRANCH  14  47
TORSDOF 11
ENDMDL
MODEL 5
REMARK VINA RESULT: -8.253000863      1.942      2.417
REMARK  11 active torsions:
REMARK  status: ('A' for Active; 'I' for Inactive)
REMARK    1  A    between atoms: C3_4  and  N2_5 
REMARK    2  A    between atoms: N2_5  and  C4_7 
REMARK    3  A    between atoms: C4_7  and  O1_8 
REMARK    4  A    between atoms: C4_7  and  C5_10 
REMARK    5  A    between atoms: N3_12  and  N4_13 
REMARK    6  A    between atoms: C11_29  and  S1_30 
REMARK    7  A    between atoms: S1_30  and  N9_31 
REMARK    8  A    between atoms: C12_37  and  N10_38 
REMARK    9  A    between atoms: C13_42  and  C14_43 
REMARK   10  A    between atoms: C14_43  and  O6_44 
REMARK   11  A    between atoms: O6_44  and  N12_45 
ROOT
HETATM    1  N1  UNL     1      23.355   6.553  12.073  1.00  0.00    -0.191 NA
HETATM    2  C1  UNL     1      22.320   6.894  11.699  1.00  0.00     0.105 C 
HETATM    3  C2  UNL     1      21.028   7.342  11.220  1.00  0.00     0.115 A 
HETATM    4  C3  UNL     1      20.387   8.355  11.850  1.00  0.00     0.127 A 
HETATM    5  N7  UNL     1      19.172   8.801  11.427  1.00  0.00    -0.340 N 
ATOM      6  H7  UNL     1      18.713   9.567  11.920  1.00  0.00     0.167 HD
HETATM    7  C7  UNL     1      18.579   8.242  10.368  1.00  0.00     0.067 A 
HETATM    8  C8  UNL     1      19.221   7.197   9.702  1.00  0.00     0.087 A 
HETATM    9  C9  UNL     1      18.586   6.645   8.621  1.00  0.00     0.260 A 
HETATM   10  O2  UNL     1      19.136   5.703   7.998  1.00  0.00    -0.267 OA
HETATM   11  N8  UNL     1      17.397   7.111   8.244  1.00  0.00    -0.320 N 
ATOM     12  H8  UNL     1      16.952   6.679   7.434  1.00  0.00     0.169 HD
HETATM   13  C10 UNL     1      16.737   8.128   8.867  1.00  0.00     0.081 A 
HETATM   14  C11 UNL     1      15.512   8.566   8.443  1.00  0.00     0.149 A 
HETATM   15  S2  UNL     1      15.132   9.800   9.523  1.00  0.00    -0.053 SA
HETATM   16  C12 UNL     1      16.581   9.726  10.516  1.00  0.00     0.124 A 
HETATM   17  C15 UNL     1      17.301   8.726   9.947  1.00  0.00     0.057 A 
HETATM   18  C16 UNL     1      20.456   6.720  10.107  1.00  0.00     0.068 A 
HETATM   19  N13 UNL     1      21.077   5.801   9.565  1.00  0.00    -0.397 N 
ATOM     20 1H13 UNL     1      20.660   5.347   8.753  1.00  0.00     0.156 HD
ATOM     21 2H13 UNL     1      21.987   5.450   9.863  1.00  0.00     0.156 HD
ENDROOT
BRANCH   4  22
HETATM   22  N2  UNL     1      20.944   8.985  13.006  1.00  0.00    -0.344 N 
ATOM     23  H2  UNL     1      20.567   8.766  13.928  1.00  0.00     0.164 HD
BRANCH  22  24
HETATM   24  C4  UNL     1      22.018   9.915  12.889  1.00  0.00     0.273 C 
BRANCH  24  25
HETATM   25  O1  UNL     1      22.846   9.893  14.032  1.00  0.00    -0.371 OA
ATOM     26  H1  UNL     1      23.484  10.596  14.012  1.00  0.00     0.212 HD
ENDBRANCH  24  25
BRANCH  24  27
HETATM   27  C5  UNL     1      21.454  11.289  12.727  1.00  0.00     0.094 A 
HETATM   28  C6  UNL     1      21.953  12.299  11.935  1.00  0.00     0.168 A 
HETATM   29  N3  UNL     1      21.148  13.389  12.070  1.00  0.00    -0.198 N 
HETATM   30  N5  UNL     1      20.206  13.030  12.916  1.00  0.00    -0.222 N 
HETATM   31  N6  UNL     1      20.362  11.790  13.321  1.00  0.00    -0.283 N 
ATOM     32  H5  UNL     1      19.447  13.639  13.220  1.00  0.00     0.210 HD
ATOM     33  H6  UNL     1      19.757  11.294  13.974  1.00  0.00     0.188 HD
BRANCH  29  34
HETATM   34  N4  UNL     1      21.320  14.614  11.429  1.00  0.00    -0.323 N 
ATOM     35  H42 UNL     1      21.984  14.861  10.695  1.00  0.00     0.179 HD
ATOM     36  H41 UNL     1      20.786  15.464  11.611  1.00  0.00     0.179 HD
ENDBRANCH  29  34
ENDBRANCH  24  27
ENDBRANCH  22  24
ENDBRANCH   4  22
BRANCH  16  37
HETATM   37  N10 UNL     1      16.698  10.632  11.627  1.00  0.00    -0.173 N 
HETATM   38  O5  UNL     1      17.414  11.542  12.150  1.00  0.00    -0.146 OA
HETATM   39  N11 UNL     1      16.703  11.681  13.187  1.00  0.00    -0.224 N 
HETATM   40  C13 UNL     1      15.881  10.732  12.728  1.00  0.00     0.161 A 
ATOM     41  H11 UNL     1      16.740  12.269  14.020  1.00  0.00     0.198 HD
BRANCH  40  42
HETATM   42  C14 UNL     1      14.639  10.084  13.209  1.00  0.00     0.288 C 
BRANCH  42  43
HETATM   43  O6  UNL     1      13.518  10.792  12.720  1.00  0.00    -0.214 OA
BRANCH  43  44
HETATM   44  N12 UNL     1      12.300  10.224  12.477  1.00  0.00     0.005 N 
HETATM   45  O7  UNL     1      11.284  10.398  13.175  1.00  0.00    -0.511 OA
HETATM   46  O8  UNL     1      12.181   9.400  11.384  1.00  0.00    -0.511 OA
ENDBRANCH  43  44
ENDBRANCH  42  43
ENDBRANCH  40  42
ENDBRANCH  16  37
BRANCH  14  47
HETATM   47  S1  UNL     1      14.506   7.995   7.086  1.00  0.00     0.265 S 
HETATM   48  O3  UNL     1      15.043   6.692   6.598  1.00  0.00    -0.200 OA
HETATM   49  O4  UNL     1      13.124   7.728   7.678  1.00  0.00    -0.200 OA
BRANCH  47  50
HETATM   50  N9  UNL     1      14.379   9.161   5.849  1.00  0.00    -0.324 N 
ATOM     51  H92 UNL     1      14.787  10.094   5.917  1.00  0.00     0.169 HD
ATOM     52  H91 UNL     1      13.853   8.813   5.047  1.00  0.00     0.169 HD
ENDBRANCH  47  50
ENDBRANCH  14  47
TORSDOF 11
ENDMDL
