MODEL 1
REMARK VINA RESULT: -7.176424174      0.000      0.000
REMARK  15 active torsions:
REMARK  status: ('A' for Active; 'I' for Inactive)
REMARK    1  A    between atoms: O1_2  and  N1_3 
REMARK    2  A    between atoms: C2_5  and  O2_6 
REMARK    3  A    between atoms: C2_5  and  C6_17 
REMARK    4  A    between atoms: O2_6  and  C3_7 
REMARK    5  A    between atoms: C3_7  and  N3_11 
REMARK       I    between atoms: N3_11  and  C4_13 
REMARK    6  A    between atoms: C4_13  and  O4_15 
REMARK    7  A    between atoms: C6_17  and  O6_19 
REMARK    8  A    between atoms: O6_19  and  C7_20 
REMARK    9  A    between atoms: C7_20  and  C8_21 
REMARK   10  A    between atoms: C9_24  and  S1_25 
REMARK   11  A    between atoms: S1_25  and  S2_26 
REMARK   12  A    between atoms: S2_26  and  C10_27 
REMARK   13  A    between atoms: C11_28  and  C12_29 
REMARK   14  A    between atoms: C13_32  and  C14_33 
REMARK   15  A    between atoms: C14_33  and  O9_35 
ROOT
HETATM    1  C8  UNL     1      13.094   8.071   6.872  1.00  0.00     0.312 C 
HETATM    2  N4  UNL     1      13.297   6.721   7.429  1.00  0.00    -0.341 N 
ATOM      3  H4  UNL     1      13.616   5.945   6.849  1.00  0.00     0.163 HD
HETATM    4  C9  UNL     1      13.055   6.570   8.672  1.00  0.00     0.150 C 
HETATM    5  N7  UNL     1      12.610   7.698   9.420  1.00  0.00    -0.347 N 
ATOM      6  H7  UNL     1      12.081   7.550  10.280  1.00  0.00     0.163 HD
HETATM    7  C16 UNL     1      12.890   9.041   8.989  1.00  0.00     0.359 C 
HETATM    8  N8  UNL     1      13.700   9.001   7.792  1.00  0.00    -0.036 N 
ATOM      9  H81 UNL     1      13.844   9.923   7.382  1.00  0.00     0.281 HD
ATOM     10  H82 UNL     1      14.678   8.784   7.985  1.00  0.00     0.281 HD
ENDROOT
BRANCH   1  11
HETATM   11  C7  UNL     1      13.749   8.083   5.535  1.00  0.00     0.233 C 
BRANCH  11  12
HETATM   12  O6  UNL     1      12.822   7.830   4.526  1.00  0.00    -0.311 OA
BRANCH  12  13
HETATM   13  C6  UNL     1      12.684   6.646   3.828  1.00  0.00     0.337 C 
HETATM   14  O5  UNL     1      13.313   6.456   2.763  1.00  0.00    -0.255 OA
BRANCH  13  15
HETATM   15  C2  UNL     1      11.808   5.607   4.323  1.00  0.00     0.247 C 
HETATM   16  N1  UNL     1      10.700   5.363   3.755  1.00  0.00    -0.240 N 
ATOM     17  H1  UNL     1      10.140   4.614   4.162  1.00  0.00     0.196 HD
BRANCH  16  18
HETATM   18  O1  UNL     1      10.173   5.980   2.672  1.00  0.00    -0.283 OA
HETATM   19  C1  UNL     1      10.202   5.265   1.438  1.00  0.00     0.237 C 
ENDBRANCH  16  18
BRANCH  15  20
HETATM   20  O2  UNL     1      12.190   4.868   5.432  1.00  0.00    -0.255 OA
BRANCH  20  21
HETATM   21  C3  UNL     1      12.581   3.523   5.298  1.00  0.00     0.228 C 
HETATM   22  N2  UNL     1      13.811   3.329   5.017  1.00  0.00    -0.365 N 
ATOM     23  H22 UNL     1      14.463   4.105   4.900  1.00  0.00     0.159 HD
ATOM     24  H21 UNL     1      14.094   2.354   4.920  1.00  0.00     0.159 HD
BRANCH  21  25
HETATM   25  N3  UNL     1      11.668   2.438   5.462  1.00  0.00    -0.268 N 
HETATM   26  C4  UNL     1      11.074   1.837   4.334  1.00  0.00     0.367 C 
HETATM   27  O3  UNL     1      11.359   2.268   3.193  1.00  0.00    -0.238 OA
ATOM     28  H3  UNL     1      11.445   2.097   6.397  1.00  0.00     0.174 HD
BRANCH  26  29
HETATM   29  O4  UNL     1      10.178   0.777   4.428  1.00  0.00    -0.309 OA
HETATM   30  C5  UNL     1       9.527   0.225   3.304  1.00  0.00     0.215 C 
ENDBRANCH  26  29
ENDBRANCH  21  25
ENDBRANCH  20  21
ENDBRANCH  15  20
ENDBRANCH  13  15
ENDBRANCH  12  13
ENDBRANCH  11  12
ENDBRANCH   1  11
BRANCH   4  31
HETATM   31  S1  UNL     1      13.284   4.957   9.407  1.00  0.00    -0.016 SA
BRANCH  31  32
HETATM   32  S2  UNL     1      15.112   4.830  10.474  1.00  0.00    -0.041 SA
BRANCH  32  33
HETATM   33  C10 UNL     1      16.392   5.768   9.747  1.00  0.00     0.078 C 
HETATM   34  C11 UNL     1      16.937   5.659   8.572  1.00  0.00     0.062 C 
HETATM   35  C13 UNL     1      18.008   6.598   8.277  1.00  0.00     0.228 C 
HETATM   36  N6  UNL     1      17.845   7.838   9.002  1.00  0.00    -0.153 NA
HETATM   37  S3  UNL     1      17.211   7.138  10.535  1.00  0.00    -0.016 SA
BRANCH  34  38
HETATM   38  C12 UNL     1      16.507   4.632   7.598  1.00  0.00     0.265 C 
HETATM   39  N5  UNL     1      15.695   4.973   6.496  1.00  0.00    -0.057 NA
HETATM   40  O7  UNL     1      16.832   3.419   7.696  1.00  0.00    -0.271 OA
ENDBRANCH  34  38
BRANCH  35  41
HETATM   41  C14 UNL     1      19.357   6.081   8.636  1.00  0.00     0.283 C 
HETATM   42  O8  UNL     1      19.838   5.020   8.195  1.00  0.00    -0.263 OA
BRANCH  41  43
HETATM   43  O9  UNL     1      20.107   6.845   9.517  1.00  0.00    -0.325 OA
HETATM   44  C15 UNL     1      21.221   6.375  10.214  1.00  0.00     0.213 C 
ENDBRANCH  41  43
ENDBRANCH  35  41
ENDBRANCH  32  33
ENDBRANCH  31  32
ENDBRANCH   4  31
TORSDOF 15
ENDMDL
MODEL 2
REMARK VINA RESULT: -7.142489999      3.389     10.532
REMARK  15 active torsions:
REMARK  status: ('A' for Active; 'I' for Inactive)
REMARK    1  A    between atoms: O1_2  and  N1_3 
REMARK    2  A    between atoms: C2_5  and  O2_6 
REMARK    3  A    between atoms: C2_5  and  C6_17 
REMARK    4  A    between atoms: O2_6  and  C3_7 
REMARK    5  A    between atoms: C3_7  and  N3_11 
REMARK       I    between atoms: N3_11  and  C4_13 
REMARK    6  A    between atoms: C4_13  and  O4_15 
REMARK    7  A    between atoms: C6_17  and  O6_19 
REMARK    8  A    between atoms: O6_19  and  C7_20 
REMARK    9  A    between atoms: C7_20  and  C8_21 
REMARK   10  A    between atoms: C9_24  and  S1_25 
REMARK   11  A    between atoms: S1_25  and  S2_26 
REMARK   12  A    between atoms: S2_26  and  C10_27 
REMARK   13  A    between atoms: C11_28  and  C12_29 
REMARK   14  A    between atoms: C13_32  and  C14_33 
REMARK   15  A    between atoms: C14_33  and  O9_35 
ROOT
HETATM    1  C8  UNL     1      19.514   6.226   9.625  1.00  0.00     0.312 C 
HETATM    2  N4  UNL     1      18.457   7.166   9.207  1.00  0.00    -0.341 N 
ATOM      3  H4  UNL     1      18.339   8.073   9.658  1.00  0.00     0.163 HD
HETATM    4  C9  UNL     1      17.698   6.790   8.254  1.00  0.00     0.150 C 
HETATM    5  N7  UNL     1      17.920   5.508   7.673  1.00  0.00    -0.347 N 
ATOM      6  H7  UNL     1      17.153   5.040   7.189  1.00  0.00     0.163 HD
HETATM    7  C16 UNL     1      19.201   4.860   7.753  1.00  0.00     0.359 C 
HETATM    8  N8  UNL     1      20.139   5.735   8.421  1.00  0.00    -0.036 N 
ATOM      9  H81 UNL     1      21.038   5.288   8.599  1.00  0.00     0.281 HD
ATOM     10  H82 UNL     1      20.477   6.485   7.818  1.00  0.00     0.281 HD
ENDROOT
BRANCH   1  11
HETATM   11  C7  UNL     1      20.455   6.998  10.481  1.00  0.00     0.233 C 
BRANCH  11  12
HETATM   12  O6  UNL     1      20.154   6.824  11.831  1.00  0.00    -0.311 OA
BRANCH  12  13
HETATM   13  C6  UNL     1      20.943   7.215  12.896  1.00  0.00     0.337 C 
HETATM   14  O5  UNL     1      20.766   6.723  14.033  1.00  0.00    -0.255 OA
BRANCH  13  15
HETATM   15  C2  UNL     1      21.986   8.198  12.708  1.00  0.00     0.247 C 
HETATM   16  N1  UNL     1      23.198   7.845  12.578  1.00  0.00    -0.240 N 
ATOM     17  H1  UNL     1      23.875   8.598  12.448  1.00  0.00     0.196 HD
BRANCH  16  18
HETATM   18  O1  UNL     1      23.699   6.589  12.593  1.00  0.00    -0.283 OA
HETATM   19  C1  UNL     1      24.129   6.046  11.345  1.00  0.00     0.237 C 
ENDBRANCH  16  18
BRANCH  15  20
HETATM   20  O2  UNL     1      21.652   9.543  12.668  1.00  0.00    -0.255 OA
BRANCH  20  21
HETATM   21  C3  UNL     1      20.424   9.992  13.187  1.00  0.00     0.228 C 
HETATM   22  N2  UNL     1      20.475  10.529  14.344  1.00  0.00    -0.365 N 
ATOM     23  H22 UNL     1      21.354  10.624  14.853  1.00  0.00     0.159 HD
ATOM     24  H21 UNL     1      19.585  10.855  14.721  1.00  0.00     0.159 HD
BRANCH  21  25
HETATM   25  N3  UNL     1      19.194   9.860  12.475  1.00  0.00    -0.268 N 
HETATM   26  C4  UNL     1      18.515  11.006  12.015  1.00  0.00     0.367 C 
HETATM   27  O3  UNL     1      19.007  12.135  12.239  1.00  0.00    -0.238 OA
ATOM     28  H3  UNL     1      18.805   8.933  12.300  1.00  0.00     0.174 HD
BRANCH  26  29
HETATM   29  O4  UNL     1      17.315  10.942  11.316  1.00  0.00    -0.309 OA
HETATM   30  C5  UNL     1      16.619   9.734  11.101  1.00  0.00     0.215 C 
ENDBRANCH  26  29
ENDBRANCH  21  25
ENDBRANCH  20  21
ENDBRANCH  15  20
ENDBRANCH  13  15
ENDBRANCH  12  13
ENDBRANCH  11  12
ENDBRANCH   1  11
BRANCH   4  31
HETATM   31  S1  UNL     1      16.399   7.885   7.701  1.00  0.00    -0.016 SA
BRANCH  31  32
HETATM   32  S2  UNL     1      14.479   7.017   7.947  1.00  0.00    -0.041 SA
BRANCH  32  33
HETATM   33  C10 UNL     1      13.990   6.047   6.581  1.00  0.00     0.078 C 
HETATM   34  C11 UNL     1      13.381   6.399   5.488  1.00  0.00     0.062 C 
HETATM   35  C13 UNL     1      13.098   5.329   4.544  1.00  0.00     0.228 C 
HETATM   36  N6  UNL     1      14.064   4.259   4.646  1.00  0.00    -0.153 NA
HETATM   37  S3  UNL     1      14.278   4.297   6.433  1.00  0.00    -0.016 SA
BRANCH  34  38
HETATM   38  C12 UNL     1      12.984   7.800   5.226  1.00  0.00     0.265 C 
HETATM   39  N5  UNL     1      13.888   8.711   4.639  1.00  0.00    -0.057 NA
HETATM   40  O7  UNL     1      11.842   8.250   5.506  1.00  0.00    -0.271 OA
ENDBRANCH  34  38
BRANCH  35  41
HETATM   41  C14 UNL     1      11.763   4.705   4.749  1.00  0.00     0.283 C 
HETATM   42  O8  UNL     1      10.892   5.154   5.518  1.00  0.00    -0.263 OA
BRANCH  41  43
HETATM   43  O9  UNL     1      11.492   3.553   4.025  1.00  0.00    -0.325 OA
HETATM   44  C15 UNL     1      10.999   2.372   4.583  1.00  0.00     0.213 C 
ENDBRANCH  41  43
ENDBRANCH  35  41
ENDBRANCH  32  33
ENDBRANCH  31  32
ENDBRANCH   4  31
TORSDOF 15
ENDMDL
MODEL 3
REMARK VINA RESULT: -7.131855416      2.076      7.730
REMARK  15 active torsions:
REMARK  status: ('A' for Active; 'I' for Inactive)
REMARK    1  A    between atoms: O1_2  and  N1_3 
REMARK    2  A    between atoms: C2_5  and  O2_6 
REMARK    3  A    between atoms: C2_5  and  C6_17 
REMARK    4  A    between atoms: O2_6  and  C3_7 
REMARK    5  A    between atoms: C3_7  and  N3_11 
REMARK       I    between atoms: N3_11  and  C4_13 
REMARK    6  A    between atoms: C4_13  and  O4_15 
REMARK    7  A    between atoms: C6_17  and  O6_19 
REMARK    8  A    between atoms: O6_19  and  C7_20 
REMARK    9  A    between atoms: C7_20  and  C8_21 
REMARK   10  A    between atoms: C9_24  and  S1_25 
REMARK   11  A    between atoms: S1_25  and  S2_26 
REMARK   12  A    between atoms: S2_26  and  C10_27 
REMARK   13  A    between atoms: C11_28  and  C12_29 
REMARK   14  A    between atoms: C13_32  and  C14_33 
REMARK   15  A    between atoms: C14_33  and  O9_35 
ROOT
HETATM    1  C8  UNL     1      15.604   8.095   7.222  1.00  0.00     0.312 C 
HETATM    2  N4  UNL     1      14.623   7.434   8.102  1.00  0.00    -0.341 N 
ATOM      3  H4  UNL     1      14.819   7.263   9.088  1.00  0.00     0.163 HD
HETATM    4  C9  UNL     1      13.518   7.084   7.570  1.00  0.00     0.150 C 
HETATM    5  N7  UNL     1      13.315   7.352   6.185  1.00  0.00    -0.347 N 
ATOM      6  H7  UNL     1      12.640   6.793   5.663  1.00  0.00     0.163 HD
HETATM    7  C16 UNL     1      14.040   8.392   5.508  1.00  0.00     0.359 C 
HETATM    8  N8  UNL     1      14.883   9.085   6.459  1.00  0.00    -0.036 N 
ATOM      9  H81 UNL     1      15.498   9.767   6.016  1.00  0.00     0.281 HD
ATOM     10  H82 UNL     1      14.361   9.734   7.047  1.00  0.00     0.281 HD
ENDROOT
BRANCH   1  11
HETATM   11  C7  UNL     1      16.633   8.701   8.110  1.00  0.00     0.233 C 
BRANCH  11  12
HETATM   12  O6  UNL     1      17.805   7.947   8.098  1.00  0.00    -0.311 OA
BRANCH  12  13
HETATM   13  C6  UNL     1      18.032   6.787   8.813  1.00  0.00     0.337 C 
HETATM   14  O5  UNL     1      17.323   6.501   9.804  1.00  0.00    -0.255 OA
BRANCH  13  15
HETATM   15  C2  UNL     1      19.094   5.887   8.423  1.00  0.00     0.247 C 
HETATM   16  N1  UNL     1      20.173   5.824   9.090  1.00  0.00    -0.240 N 
ATOM     17  H1  UNL     1      20.873   5.164   8.752  1.00  0.00     0.196 HD
BRANCH  16  18
HETATM   18  O1  UNL     1      20.503   6.530  10.195  1.00  0.00    -0.283 OA
HETATM   19  C1  UNL     1      21.889   6.611  10.525  1.00  0.00     0.237 C 
ENDBRANCH  16  18
BRANCH  15  20
HETATM   20  O2  UNL     1      18.927   5.082   7.307  1.00  0.00    -0.255 OA
BRANCH  20  21
HETATM   21  C3  UNL     1      18.248   3.853   7.405  1.00  0.00     0.228 C 
HETATM   22  N2  UNL     1      18.629   2.944   6.595  1.00  0.00    -0.365 N 
ATOM     23  H22 UNL     1      19.380   3.104   5.923  1.00  0.00     0.159 HD
ATOM     24  H21 UNL     1      18.137   2.053   6.666  1.00  0.00     0.159 HD
BRANCH  21  25
HETATM   25  N3  UNL     1      17.197   3.629   8.344  1.00  0.00    -0.268 N 
HETATM   26  C4  UNL     1      15.872   3.989   8.025  1.00  0.00     0.367 C 
HETATM   27  O3  UNL     1      15.635   4.505   6.908  1.00  0.00    -0.238 OA
ATOM     28  H3  UNL     1      17.405   3.208   9.250  1.00  0.00     0.174 HD
BRANCH  26  29
HETATM   29  O4  UNL     1      14.807   3.796   8.896  1.00  0.00    -0.309 OA
HETATM   30  C5  UNL     1      14.953   3.819  10.300  1.00  0.00     0.215 C 
ENDBRANCH  26  29
ENDBRANCH  21  25
ENDBRANCH  20  21
ENDBRANCH  15  20
ENDBRANCH  13  15
ENDBRANCH  12  13
ENDBRANCH  11  12
ENDBRANCH   1  11
BRANCH   4  31
HETATM   31  S1  UNL     1      12.288   6.278   8.585  1.00  0.00    -0.016 SA
BRANCH  31  32
HETATM   32  S2  UNL     1      11.551   4.510   7.674  1.00  0.00    -0.041 SA
BRANCH  32  33
HETATM   33  C10 UNL     1      10.871   4.791   6.091  1.00  0.00     0.078 C 
HETATM   34  C11 UNL     1      11.109   4.185   4.966  1.00  0.00     0.062 C 
HETATM   35  C13 UNL     1      10.379   4.681   3.810  1.00  0.00     0.228 C 
HETATM   36  N6  UNL     1       9.108   5.256   4.188  1.00  0.00    -0.153 NA
HETATM   37  S3  UNL     1       9.639   6.023   5.728  1.00  0.00    -0.016 SA
BRANCH  34  38
HETATM   38  C12 UNL     1      12.077   3.071   4.862  1.00  0.00     0.265 C 
HETATM   39  N5  UNL     1      13.449   3.321   4.654  1.00  0.00    -0.057 NA
HETATM   40  O7  UNL     1      11.737   1.861   4.950  1.00  0.00    -0.271 OA
ENDBRANCH  34  38
BRANCH  35  41
HETATM   41  C14 UNL     1      11.110   5.742   3.065  1.00  0.00     0.283 C 
HETATM   42  O8  UNL     1      12.312   6.016   3.240  1.00  0.00    -0.263 OA
BRANCH  41  43
HETATM   43  O9  UNL     1      10.387   6.456   2.121  1.00  0.00    -0.325 OA
HETATM   44  C15 UNL     1      10.692   6.492   0.760  1.00  0.00     0.213 C 
ENDBRANCH  41  43
ENDBRANCH  35  41
ENDBRANCH  32  33
ENDBRANCH  31  32
ENDBRANCH   4  31
TORSDOF 15
ENDMDL
MODEL 4
REMARK VINA RESULT: -6.985093952      2.352      2.777
REMARK  15 active torsions:
REMARK  status: ('A' for Active; 'I' for Inactive)
REMARK    1  A    between atoms: O1_2  and  N1_3 
REMARK    2  A    between atoms: C2_5  and  O2_6 
REMARK    3  A    between atoms: C2_5  and  C6_17 
REMARK    4  A    between atoms: O2_6  and  C3_7 
REMARK    5  A    between atoms: C3_7  and  N3_11 
REMARK       I    between atoms: N3_11  and  C4_13 
REMARK    6  A    between atoms: C4_13  and  O4_15 
REMARK    7  A    between atoms: C6_17  and  O6_19 
REMARK    8  A    between atoms: O6_19  and  C7_20 
REMARK    9  A    between atoms: C7_20  and  C8_21 
REMARK   10  A    between atoms: C9_24  and  S1_25 
REMARK   11  A    between atoms: S1_25  and  S2_26 
REMARK   12  A    between atoms: S2_26  and  C10_27 
REMARK   13  A    between atoms: C11_28  and  C12_29 
REMARK   14  A    between atoms: C13_32  and  C14_33 
REMARK   15  A    between atoms: C14_33  and  O9_35 
ROOT
HETATM    1  C8  UNL     1      13.538   8.337   6.780  1.00  0.00     0.312 C 
HETATM    2  N4  UNL     1      14.122   7.119   7.371  1.00  0.00    -0.341 N 
ATOM      3  H4  UNL     1      14.542   6.392   6.792  1.00  0.00     0.163 HD
HETATM    4  C9  UNL     1      14.077   7.019   8.641  1.00  0.00     0.150 C 
HETATM    5  N7  UNL     1      13.473   8.073   9.386  1.00  0.00    -0.347 N 
ATOM      6  H7  UNL     1      13.105   7.879  10.317  1.00  0.00     0.163 HD
HETATM    7  C16 UNL     1      13.372   9.404   8.854  1.00  0.00     0.359 C 
HETATM    8  N8  UNL     1      14.016   9.453   7.559  1.00  0.00    -0.036 N 
ATOM      9  H81 UNL     1      13.886  10.348   7.087  1.00  0.00     0.281 HD
ATOM     10  H82 UNL     1      15.033   9.481   7.626  1.00  0.00     0.281 HD
ENDROOT
BRANCH   1  11
HETATM   11  C7  UNL     1      14.003   8.390   5.367  1.00  0.00     0.233 C 
BRANCH  11  12
HETATM   12  O6  UNL     1      12.972   8.049   4.492  1.00  0.00    -0.311 OA
BRANCH  12  13
HETATM   13  C6  UNL     1      12.810   6.830   3.863  1.00  0.00     0.337 C 
HETATM   14  O5  UNL     1      13.404   6.583   2.790  1.00  0.00    -0.255 OA
BRANCH  13  15
HETATM   15  C2  UNL     1      11.950   5.821   4.441  1.00  0.00     0.247 C 
HETATM   16  N1  UNL     1      10.823   5.552   3.923  1.00  0.00    -0.240 N 
ATOM     17  H1  UNL     1      10.276   4.827   4.388  1.00  0.00     0.196 HD
BRANCH  16  18
HETATM   18  O1  UNL     1      10.261   6.113   2.828  1.00  0.00    -0.283 OA
HETATM   19  C1  UNL     1      10.306   5.362   1.616  1.00  0.00     0.237 C 
ENDBRANCH  16  18
BRANCH  15  20
HETATM   20  O2  UNL     1      12.368   5.140   5.573  1.00  0.00    -0.255 OA
BRANCH  20  21
HETATM   21  C3  UNL     1      12.817   3.809   5.485  1.00  0.00     0.228 C 
HETATM   22  N2  UNL     1      14.056   3.659   5.214  1.00  0.00    -0.365 N 
ATOM     23  H22 UNL     1      14.674   4.458   5.073  1.00  0.00     0.159 HD
ATOM     24  H21 UNL     1      14.381   2.695   5.150  1.00  0.00     0.159 HD
BRANCH  21  25
HETATM   25  N3  UNL     1      11.952   2.692   5.681  1.00  0.00    -0.268 N 
HETATM   26  C4  UNL     1      11.319   2.084   4.578  1.00  0.00     0.367 C 
HETATM   27  O3  UNL     1      11.528   2.538   3.430  1.00  0.00    -0.238 OA
ATOM     28  H3  UNL     1      11.790   2.332   6.622  1.00  0.00     0.174 HD
BRANCH  26  29
HETATM   29  O4  UNL     1      10.466   0.993   4.704  1.00  0.00    -0.309 OA
HETATM   30  C5  UNL     1      10.026   0.234   3.598  1.00  0.00     0.215 C 
ENDBRANCH  26  29
ENDBRANCH  21  25
ENDBRANCH  20  21
ENDBRANCH  15  20
ENDBRANCH  13  15
ENDBRANCH  12  13
ENDBRANCH  11  12
ENDBRANCH   1  11
BRANCH   4  31
HETATM   31  S1  UNL     1      14.770   5.566   9.418  1.00  0.00    -0.016 SA
BRANCH  31  32
HETATM   32  S2  UNL     1      16.307   6.064  10.792  1.00  0.00    -0.041 SA
BRANCH  32  33
HETATM   33  C10 UNL     1      16.447   7.783  11.064  1.00  0.00     0.078 C 
HETATM   34  C11 UNL     1      16.996   8.699  10.323  1.00  0.00     0.062 C 
HETATM   35  C13 UNL     1      16.959  10.052  10.853  1.00  0.00     0.228 C 
HETATM   36  N6  UNL     1      15.816  10.259  11.711  1.00  0.00    -0.153 NA
HETATM   37  S3  UNL     1      15.801   8.634  12.487  1.00  0.00    -0.016 SA
BRANCH  34  38
HETATM   38  C12 UNL     1      17.636   8.382   9.027  1.00  0.00     0.265 C 
HETATM   39  N5  UNL     1      17.009   8.720   7.809  1.00  0.00    -0.057 NA
HETATM   40  O7  UNL     1      18.751   7.803   8.939  1.00  0.00    -0.271 OA
ENDBRANCH  34  38
BRANCH  35  41
HETATM   41  C14 UNL     1      18.157  10.396  11.667  1.00  0.00     0.283 C 
HETATM   42  O8  UNL     1      19.123   9.630  11.847  1.00  0.00    -0.263 OA
BRANCH  41  43
HETATM   43  O9  UNL     1      18.178  11.654  12.250  1.00  0.00    -0.325 OA
HETATM   44  C15 UNL     1      19.340  12.317  12.648  1.00  0.00     0.213 C 
ENDBRANCH  41  43
ENDBRANCH  35  41
ENDBRANCH  32  33
ENDBRANCH  31  32
ENDBRANCH   4  31
TORSDOF 15
ENDMDL
MODEL 5
REMARK VINA RESULT: -6.978755111      3.065      9.303
REMARK  15 active torsions:
REMARK  status: ('A' for Active; 'I' for Inactive)
REMARK    1  A    between atoms: O1_2  and  N1_3 
REMARK    2  A    between atoms: C2_5  and  O2_6 
REMARK    3  A    between atoms: C2_5  and  C6_17 
REMARK    4  A    between atoms: O2_6  and  C3_7 
REMARK    5  A    between atoms: C3_7  and  N3_11 
REMARK       I    between atoms: N3_11  and  C4_13 
REMARK    6  A    between atoms: C4_13  and  O4_15 
REMARK    7  A    between atoms: C6_17  and  O6_19 
REMARK    8  A    between atoms: O6_19  and  C7_20 
REMARK    9  A    between atoms: C7_20  and  C8_21 
REMARK   10  A    between atoms: C9_24  and  S1_25 
REMARK   11  A    between atoms: S1_25  and  S2_26 
REMARK   12  A    between atoms: S2_26  and  C10_27 
REMARK   13  A    between atoms: C11_28  and  C12_29 
REMARK   14  A    between atoms: C13_32  and  C14_33 
REMARK   15  A    between atoms: C14_33  and  O9_35 
ROOT
HETATM    1  C8  UNL     1      15.629   5.026   7.424  1.00  0.00     0.312 C 
HETATM    2  N4  UNL     1      15.053   3.984   6.554  1.00  0.00    -0.341 N 
ATOM      3  H4  UNL     1      15.581   3.581   5.780  1.00  0.00     0.163 HD
HETATM    4  C9  UNL     1      13.862   3.611   6.816  1.00  0.00     0.150 C 
HETATM    5  N7  UNL     1      13.184   4.219   7.911  1.00  0.00    -0.347 N 
ATOM      6  H7  UNL     1      12.164   4.219   7.929  1.00  0.00     0.163 HD
HETATM    7  C16 UNL     1      13.906   4.832   8.993  1.00  0.00     0.359 C 
HETATM    8  N8  UNL     1      15.326   4.652   8.784  1.00  0.00    -0.036 N 
ATOM      9  H81 UNL     1      15.892   5.156   9.466  1.00  0.00     0.281 HD
ATOM     10  H82 UNL     1      15.641   3.710   9.013  1.00  0.00     0.281 HD
ENDROOT
BRANCH   1  11
HETATM   11  C7  UNL     1      17.092   5.047   7.152  1.00  0.00     0.233 C 
BRANCH  11  12
HETATM   12  O6  UNL     1      17.817   5.116   8.341  1.00  0.00    -0.311 OA
BRANCH  12  13
HETATM   13  C6  UNL     1      19.088   5.636   8.488  1.00  0.00     0.337 C 
HETATM   14  O5  UNL     1      20.013   5.283   7.722  1.00  0.00    -0.255 OA
BRANCH  13  15
HETATM   15  C2  UNL     1      19.365   6.599   9.531  1.00  0.00     0.247 C 
HETATM   16  N1  UNL     1      18.868   7.766   9.489  1.00  0.00    -0.240 N 
ATOM     17  H1  UNL     1      19.109   8.386  10.262  1.00  0.00     0.196 HD
BRANCH  16  18
HETATM   18  O1  UNL     1      18.056   8.284   8.540  1.00  0.00    -0.283 OA
HETATM   19  C1  UNL     1      16.722   8.609   8.930  1.00  0.00     0.237 C 
ENDBRANCH  16  18
BRANCH  15  20
HETATM   20  O2  UNL     1      20.184   6.237  10.588  1.00  0.00    -0.255 OA
BRANCH  20  21
HETATM   21  C3  UNL     1      21.503   6.721  10.672  1.00  0.00     0.228 C 
HETATM   22  N2  UNL     1      22.352   6.152   9.907  1.00  0.00    -0.365 N 
ATOM     23  H22 UNL     1      22.083   5.395   9.277  1.00  0.00     0.159 HD
ATOM     24  H21 UNL     1      23.307   6.502   9.967  1.00  0.00     0.159 HD
BRANCH  21  25
HETATM   25  N3  UNL     1      21.879   7.779  11.553  1.00  0.00    -0.268 N 
HETATM   26  C4  UNL     1      22.873   7.568  12.530  1.00  0.00     0.367 C 
HETATM   27  O3  UNL     1      23.418   6.443  12.609  1.00  0.00    -0.238 OA
ATOM     28  H3  UNL     1      21.426   8.690  11.477  1.00  0.00     0.174 HD
BRANCH  26  29
HETATM   29  O4  UNL     1      23.282   8.557  13.416  1.00  0.00    -0.309 OA
HETATM   30  C5  UNL     1      22.656   9.820  13.494  1.00  0.00     0.215 C 
ENDBRANCH  26  29
ENDBRANCH  21  25
ENDBRANCH  20  21
ENDBRANCH  15  20
ENDBRANCH  13  15
ENDBRANCH  12  13
ENDBRANCH  11  12
ENDBRANCH   1  11
BRANCH   4  31
HETATM   31  S1  UNL     1      13.109   2.350   5.798  1.00  0.00    -0.016 SA
BRANCH  31  32
HETATM   32  S2  UNL     1      11.297   3.022   4.923  1.00  0.00    -0.041 SA
BRANCH  32  33
HETATM   33  C10 UNL     1      10.886   4.656   5.378  1.00  0.00     0.078 C 
HETATM   34  C11 UNL     1      11.334   5.785   4.914  1.00  0.00     0.062 C 
HETATM   35  C13 UNL     1      10.793   6.986   5.531  1.00  0.00     0.228 C 
HETATM   36  N6  UNL     1       9.456   6.771   6.036  1.00  0.00    -0.153 NA
HETATM   37  S3  UNL     1       9.689   5.085   6.624  1.00  0.00    -0.016 SA
BRANCH  34  38
HETATM   38  C12 UNL     1      12.345   5.846   3.837  1.00  0.00     0.265 C 
HETATM   39  N5  UNL     1      12.017   6.359   2.564  1.00  0.00    -0.057 NA
HETATM   40  O7  UNL     1      13.531   5.451   3.990  1.00  0.00    -0.271 OA
ENDBRANCH  34  38
BRANCH  35  41
HETATM   41  C14 UNL     1      11.600   7.467   6.685  1.00  0.00     0.283 C 
HETATM   42  O8  UNL     1      11.128   8.089   7.656  1.00  0.00    -0.263 OA
BRANCH  41  43
HETATM   43  O9  UNL     1      12.959   7.194   6.657  1.00  0.00    -0.325 OA
HETATM   44  C15 UNL     1      13.942   8.129   6.328  1.00  0.00     0.213 C 
ENDBRANCH  41  43
ENDBRANCH  35  41
ENDBRANCH  32  33
ENDBRANCH  31  32
ENDBRANCH   4  31
TORSDOF 15
ENDMDL
