MODEL 1
REMARK VINA RESULT: -8.349930374      0.000      0.000
REMARK  7 active torsions:
REMARK  status: ('A' for Active; 'I' for Inactive)
REMARK    1  A    between atoms: C1_2  and  C2_3 
REMARK       I    between atoms: C1_2  and  N8_37 
REMARK    2  A    between atoms: C2_3  and  C3_4 
REMARK    3  A    between atoms: C3_4  and  C4_5 
REMARK    4  A    between atoms: C7_10  and  C8_11 
REMARK    5  A    between atoms: C8_11  and  N2_12 
REMARK    6  A    between atoms: N2_12  and  C9_14 
REMARK    7  A    between atoms: C12_23  and  C13_24 
REMARK       I    between atoms: C13_24  and  N6_26 
ROOT
HETATM    1  C9  UNL     1      83.297  61.051  14.491  1.00  0.00     0.122 A 
HETATM    2  N3  UNL     1      83.429  61.722  15.650  1.00  0.00    -0.338 N 
ATOM      3  H3  UNL     1      82.601  62.132  16.081  1.00  0.00     0.168 HD
HETATM    4  C10 UNL     1      84.629  61.867  16.263  1.00  0.00     0.183 A 
HETATM    5  N4  UNL     1      85.733  61.328  15.701  1.00  0.00    -0.338 N 
ATOM      6  H4  UNL     1      86.633  61.442  16.168  1.00  0.00     0.168 HD
HETATM    7  C11 UNL     1      85.681  60.643  14.544  1.00  0.00     0.127 A 
HETATM    8  N5  UNL     1      86.772  60.102  13.975  1.00  0.00    -0.323 N 
ATOM      9  H5  UNL     1      87.670  60.220  14.446  1.00  0.00     0.169 HD
HETATM   10  C12 UNL     1      86.745  59.413  12.816  1.00  0.00     0.179 A 
HETATM   11  N7  UNL     1      85.545  59.281  12.227  1.00  0.00    -0.304 N 
ATOM     12  H7  UNL     1      85.487  58.767  11.349  1.00  0.00     0.171 HD
HETATM   13  C18 UNL     1      84.410  59.801  12.748  1.00  0.00     0.264 A 
HETATM   14  O4  UNL     1      83.297  59.675  12.192  1.00  0.00    -0.267 OA
HETATM   15  C19 UNL     1      84.451  60.504  13.934  1.00  0.00     0.120 A 
ENDROOT
BRANCH   1  16
HETATM   16  N2  UNL     1      82.138  60.914  13.911  1.00  0.00    -0.370 N 
ATOM     17  H2  UNL     1      81.847  60.025  13.505  1.00  0.00     0.161 HD
BRANCH  16  18
HETATM   18  C8  UNL     1      81.283  62.080  13.867  1.00  0.00     0.178 C 
BRANCH  18  19
HETATM   19  C7  UNL     1      80.709  62.278  12.501  1.00  0.00     0.033 A 
HETATM   20  C4  UNL     1      79.783  63.253  12.180  1.00  0.00    -0.032 A 
HETATM   21  C5  UNL     1      79.514  63.098  10.838  1.00  0.00     0.026 A 
HETATM   22  C6  UNL     1      80.279  62.044  10.396  1.00  0.00     0.089 A 
HETATM   23  N1  UNL     1      81.011  61.543  11.418  1.00  0.00    -0.367 N 
ATOM     24  H1  UNL     1      81.664  60.761  11.375  1.00  0.00     0.165 HD
BRANCH  20  25
HETATM   25  C3  UNL     1      79.196  64.267  13.053  1.00  0.00     0.050 C 
BRANCH  25  26
HETATM   26  C2  UNL     1      77.746  64.128  13.351  1.00  0.00     0.108 C 
BRANCH  26  27
HETATM   27  C1  UNL     1      77.334  62.877  13.991  1.00  0.00     0.222 C 
HETATM   28  O1  UNL     1      76.871  61.900  13.354  1.00  0.00    -0.273 OA
HETATM   29  N8  UNL     1      77.438  62.701  15.403  1.00  0.00    -0.334 N 
HETATM   30  C20 UNL     1      76.460  62.815  16.205  1.00  0.00    -0.011 C 
ATOM     31  H8  UNL     1      78.352  62.470  15.791  1.00  0.00     0.168 HD
HETATM   32  C21 UNL     1      76.654  62.615  17.654  1.00  0.00     0.052 C 
HETATM   33  C25 UNL     1      75.114  63.148  15.710  1.00  0.00     0.052 C 
HETATM   34  C22 UNL     1      75.256  62.676  18.278  1.00  0.00     0.006 C 
HETATM   35  C23 UNL     1      74.324  61.757  17.560  1.00  0.00     0.001 C 
HETATM   36  C24 UNL     1      74.186  62.017  16.089  1.00  0.00     0.006 C 
ENDBRANCH  26  27
ENDBRANCH  25  26
ENDBRANCH  20  25
ENDBRANCH  18  19
ENDBRANCH  16  18
ENDBRANCH   1  16
BRANCH  10  37
HETATM   37  C13 UNL     1      87.964  58.842  12.238  1.00  0.00     0.288 C 
HETATM   38  O2  UNL     1      88.441  57.796  12.795  1.00  0.00    -0.264 OA
HETATM   39  N6  UNL     1      88.592  59.421  11.108  1.00  0.00    -0.342 N 
HETATM   40  C14 UNL     1      88.123  60.600  10.419  1.00  0.00     0.152 C 
HETATM   41  C17 UNL     1      89.797  58.805  10.582  1.00  0.00     0.152 C 
HETATM   42  C15 UNL     1      89.104  60.797   9.250  1.00  0.00     0.187 C 
HETATM   43  O3  UNL     1      90.398  60.951   9.713  1.00  0.00    -0.388 OA
HETATM   44  C16 UNL     1      90.839  59.903  10.494  1.00  0.00     0.187 C 
ENDBRANCH  10  37
TORSDOF 7
ENDMDL
MODEL 2
REMARK VINA RESULT: -8.035910194      3.834     12.231
REMARK  7 active torsions:
REMARK  status: ('A' for Active; 'I' for Inactive)
REMARK    1  A    between atoms: C1_2  and  C2_3 
REMARK       I    between atoms: C1_2  and  N8_37 
REMARK    2  A    between atoms: C2_3  and  C3_4 
REMARK    3  A    between atoms: C3_4  and  C4_5 
REMARK    4  A    between atoms: C7_10  and  C8_11 
REMARK    5  A    between atoms: C8_11  and  N2_12 
REMARK    6  A    between atoms: N2_12  and  C9_14 
REMARK    7  A    between atoms: C12_23  and  C13_24 
REMARK       I    between atoms: C13_24  and  N6_26 
ROOT
HETATM    1  C9  UNL     1      75.480  63.865  15.219  1.00  0.00     0.122 A 
HETATM    2  N3  UNL     1      74.667  64.535  14.381  1.00  0.00    -0.338 N 
ATOM      3  H3  UNL     1      74.902  64.575  13.390  1.00  0.00     0.168 HD
HETATM    4  C10 UNL     1      73.545  65.159  14.817  1.00  0.00     0.183 A 
HETATM    5  N4  UNL     1      73.224  65.114  16.128  1.00  0.00    -0.338 N 
ATOM      6  H4  UNL     1      72.378  65.586  16.447  1.00  0.00     0.168 HD
HETATM    7  C11 UNL     1      73.987  64.464  17.026  1.00  0.00     0.127 A 
HETATM    8  N5  UNL     1      73.678  64.412  18.333  1.00  0.00    -0.323 N 
ATOM      9  H5  UNL     1      72.832  64.886  18.648  1.00  0.00     0.169 HD
HETATM   10  C12 UNL     1      74.427  63.768  19.251  1.00  0.00     0.179 A 
HETATM   11  N7  UNL     1      75.534  63.157  18.797  1.00  0.00    -0.304 N 
ATOM     12  H7  UNL     1      76.125  62.661  19.464  1.00  0.00     0.171 HD
HETATM   13  C18 UNL     1      75.900  63.172  17.496  1.00  0.00     0.264 A 
HETATM   14  O4  UNL     1      76.933  62.601  17.082  1.00  0.00    -0.267 OA
HETATM   15  C19 UNL     1      75.126  63.834  16.566  1.00  0.00     0.120 A 
ENDROOT
BRANCH   1  16
HETATM   16  N2  UNL     1      76.556  63.267  14.791  1.00  0.00    -0.370 N 
ATOM     17  H2  UNL     1      77.178  62.769  15.428  1.00  0.00     0.161 HD
BRANCH  16  18
HETATM   18  C8  UNL     1      76.830  63.340  13.372  1.00  0.00     0.178 C 
BRANCH  18  19
HETATM   19  C7  UNL     1      77.843  64.397  13.071  1.00  0.00     0.033 A 
HETATM   20  C4  UNL     1      79.085  64.150  12.517  1.00  0.00    -0.032 A 
HETATM   21  C5  UNL     1      79.704  65.375  12.405  1.00  0.00     0.026 A 
HETATM   22  C6  UNL     1      78.825  66.315  12.890  1.00  0.00     0.089 A 
HETATM   23  N1  UNL     1      77.684  65.712  13.298  1.00  0.00    -0.367 N 
ATOM     24  H1  UNL     1      76.864  66.167  13.700  1.00  0.00     0.165 HD
BRANCH  20  25
HETATM   25  C3  UNL     1      79.655  62.868  12.108  1.00  0.00     0.050 C 
BRANCH  25  26
HETATM   26  C2  UNL     1      81.085  62.640  12.442  1.00  0.00     0.108 C 
BRANCH  26  27
HETATM   27  C1  UNL     1      81.351  61.834  13.635  1.00  0.00     0.222 C 
HETATM   28  O1  UNL     1      80.727  61.979  14.715  1.00  0.00    -0.273 OA
HETATM   29  N8  UNL     1      82.355  60.821  13.633  1.00  0.00    -0.334 N 
HETATM   30  C20 UNL     1      83.516  60.973  14.125  1.00  0.00    -0.011 C 
ATOM     31  H8  UNL     1      82.128  59.921  13.210  1.00  0.00     0.168 HD
HETATM   32  C21 UNL     1      84.497  59.871  14.082  1.00  0.00     0.052 C 
HETATM   33  C25 UNL     1      83.909  62.248  14.749  1.00  0.00     0.052 C 
HETATM   34  C22 UNL     1      85.705  60.352  14.892  1.00  0.00     0.006 C 
HETATM   35  C23 UNL     1      85.271  60.855  16.228  1.00  0.00     0.001 C 
HETATM   36  C24 UNL     1      84.266  61.969  16.191  1.00  0.00     0.006 C 
ENDBRANCH  26  27
ENDBRANCH  25  26
ENDBRANCH  20  25
ENDBRANCH  18  19
ENDBRANCH  16  18
ENDBRANCH   1  16
BRANCH  10  37
HETATM   37  C13 UNL     1      74.046  63.741  20.665  1.00  0.00     0.288 C 
HETATM   38  O2  UNL     1      74.800  64.365  21.486  1.00  0.00    -0.264 OA
HETATM   39  N6  UNL     1      72.890  63.054  21.110  1.00  0.00    -0.342 N 
HETATM   40  C14 UNL     1      71.985  62.323  20.253  1.00  0.00     0.152 C 
HETATM   41  C17 UNL     1      72.565  63.067  22.525  1.00  0.00     0.152 C 
HETATM   42  C15 UNL     1      70.880  61.804  21.188  1.00  0.00     0.187 C 
HETATM   43  O3  UNL     1      71.412  61.000  22.180  1.00  0.00    -0.388 OA
HETATM   44  C16 UNL     1      72.384  61.619  22.939  1.00  0.00     0.187 C 
ENDBRANCH  10  37
TORSDOF 7
ENDMDL
MODEL 3
REMARK VINA RESULT: -7.994498838      1.088      1.630
REMARK  7 active torsions:
REMARK  status: ('A' for Active; 'I' for Inactive)
REMARK    1  A    between atoms: C1_2  and  C2_3 
REMARK       I    between atoms: C1_2  and  N8_37 
REMARK    2  A    between atoms: C2_3  and  C3_4 
REMARK    3  A    between atoms: C3_4  and  C4_5 
REMARK    4  A    between atoms: C7_10  and  C8_11 
REMARK    5  A    between atoms: C8_11  and  N2_12 
REMARK    6  A    between atoms: N2_12  and  C9_14 
REMARK    7  A    between atoms: C12_23  and  C13_24 
REMARK       I    between atoms: C13_24  and  N6_26 
ROOT
HETATM    1  C9  UNL     1      83.359  61.150  14.341  1.00  0.00     0.122 A 
HETATM    2  N3  UNL     1      83.381  61.668  15.582  1.00  0.00    -0.338 N 
ATOM      3  H3  UNL     1      82.509  61.997  15.997  1.00  0.00     0.168 HD
HETATM    4  C10 UNL     1      84.527  61.765  16.299  1.00  0.00     0.183 A 
HETATM    5  N4  UNL     1      85.688  61.332  15.760  1.00  0.00    -0.338 N 
ATOM      6  H4  UNL     1      86.546  61.409  16.306  1.00  0.00     0.168 HD
HETATM    7  C11 UNL     1      85.746  60.803  14.524  1.00  0.00     0.127 A 
HETATM    8  N5  UNL     1      86.894  60.370  13.978  1.00  0.00    -0.323 N 
ATOM      9  H5  UNL     1      87.750  60.449  14.527  1.00  0.00     0.169 HD
HETATM   10  C12 UNL     1      86.977  59.837  12.741  1.00  0.00     0.179 A 
HETATM   11  N7  UNL     1      85.829  59.750  12.050  1.00  0.00    -0.304 N 
ATOM     12  H7  UNL     1      85.854  59.353  11.111  1.00  0.00     0.171 HD
HETATM   13  C18 UNL     1      84.641  60.168  12.543  1.00  0.00     0.264 A 
HETATM   14  O4  UNL     1      83.576  60.085  11.892  1.00  0.00    -0.267 OA
HETATM   15  C19 UNL     1      84.569  60.711  13.809  1.00  0.00     0.120 A 
ENDROOT
BRANCH   1  16
HETATM   16  N2  UNL     1      82.251  61.059  13.660  1.00  0.00    -0.370 N 
ATOM     17  H2  UNL     1      82.012  60.214  13.141  1.00  0.00     0.161 HD
BRANCH  16  18
HETATM   18  C8  UNL     1      81.374  62.210  13.673  1.00  0.00     0.178 C 
BRANCH  18  19
HETATM   19  C7  UNL     1      80.700  62.391  12.351  1.00  0.00     0.033 A 
HETATM   20  C4  UNL     1      79.710  63.323  12.103  1.00  0.00    -0.032 A 
HETATM   21  C5  UNL     1      79.358  63.164  10.781  1.00  0.00     0.026 A 
HETATM   22  C6  UNL     1      80.140  62.151  10.277  1.00  0.00     0.089 A 
HETATM   23  N1  UNL     1      80.962  61.678  11.242  1.00  0.00    -0.367 N 
ATOM     24  H1  UNL     1      81.647  60.928  11.147  1.00  0.00     0.165 HD
BRANCH  20  25
HETATM   25  C3  UNL     1      79.137  64.302  13.024  1.00  0.00     0.050 C 
BRANCH  25  26
HETATM   26  C2  UNL     1      77.693  64.148  13.343  1.00  0.00     0.108 C 
BRANCH  26  27
HETATM   27  C1  UNL     1      77.303  62.893  13.989  1.00  0.00     0.222 C 
HETATM   28  O1  UNL     1      76.851  61.907  13.356  1.00  0.00    -0.273 OA
HETATM   29  N8  UNL     1      77.417  62.721  15.400  1.00  0.00    -0.334 N 
HETATM   30  C20 UNL     1      76.443  62.822  16.207  1.00  0.00    -0.011 C 
ATOM     31  H8  UNL     1      78.337  62.504  15.783  1.00  0.00     0.168 HD
HETATM   32  C21 UNL     1      76.648  62.629  17.656  1.00  0.00     0.052 C 
HETATM   33  C25 UNL     1      75.089  63.135  15.719  1.00  0.00     0.052 C 
HETATM   34  C22 UNL     1      75.253  62.671  18.287  1.00  0.00     0.006 C 
HETATM   35  C23 UNL     1      74.330  61.737  17.577  1.00  0.00     0.001 C 
HETATM   36  C24 UNL     1      74.180  61.991  16.106  1.00  0.00     0.006 C 
ENDBRANCH  26  27
ENDBRANCH  25  26
ENDBRANCH  20  25
ENDBRANCH  18  19
ENDBRANCH  16  18
ENDBRANCH   1  16
BRANCH  10  37
HETATM   37  C13 UNL     1      88.255  59.378  12.191  1.00  0.00     0.288 C 
HETATM   38  O2  UNL     1      89.199  60.235  12.113  1.00  0.00    -0.264 OA
HETATM   39  N6  UNL     1      88.442  58.041  11.763  1.00  0.00    -0.342 N 
HETATM   40  C14 UNL     1      87.432  57.010  11.814  1.00  0.00     0.152 C 
HETATM   41  C17 UNL     1      89.734  57.648  11.229  1.00  0.00     0.152 C 
HETATM   42  C15 UNL     1      88.126  55.742  11.288  1.00  0.00     0.187 C 
HETATM   43  O3  UNL     1      88.598  55.937  10.003  1.00  0.00    -0.388 OA
HETATM   44  C16 UNL     1      89.465  57.003   9.882  1.00  0.00     0.187 C 
ENDBRANCH  10  37
TORSDOF 7
ENDMDL
MODEL 4
REMARK VINA RESULT: -7.979875139      2.735      6.349
REMARK  7 active torsions:
REMARK  status: ('A' for Active; 'I' for Inactive)
REMARK    1  A    between atoms: C1_2  and  C2_3 
REMARK       I    between atoms: C1_2  and  N8_37 
REMARK    2  A    between atoms: C2_3  and  C3_4 
REMARK    3  A    between atoms: C3_4  and  C4_5 
REMARK    4  A    between atoms: C7_10  and  C8_11 
REMARK    5  A    between atoms: C8_11  and  N2_12 
REMARK    6  A    between atoms: N2_12  and  C9_14 
REMARK    7  A    between atoms: C12_23  and  C13_24 
REMARK       I    between atoms: C13_24  and  N6_26 
ROOT
HETATM    1  C9  UNL     1      78.124  62.423  12.604  1.00  0.00     0.122 A 
HETATM    2  N3  UNL     1      77.854  62.691  11.313  1.00  0.00    -0.338 N 
ATOM      3  H3  UNL     1      76.888  62.860  11.035  1.00  0.00     0.168 HD
HETATM    4  C10 UNL     1      78.829  62.745  10.372  1.00  0.00     0.183 A 
HETATM    5  N4  UNL     1      80.112  62.523  10.730  1.00  0.00    -0.338 N 
ATOM      6  H4  UNL     1      80.839  62.565  10.016  1.00  0.00     0.168 HD
HETATM    7  C11 UNL     1      80.460  62.248  12.000  1.00  0.00     0.127 A 
HETATM    8  N5  UNL     1      81.733  62.025  12.368  1.00  0.00    -0.323 N 
ATOM      9  H5  UNL     1      82.457  62.067  11.650  1.00  0.00     0.169 HD
HETATM   10  C12 UNL     1      82.106  61.747  13.634  1.00  0.00     0.179 A 
HETATM   11  N7  UNL     1      81.124  61.699  14.549  1.00  0.00    -0.304 N 
ATOM     12  H7  UNL     1      81.370  61.491  15.517  1.00  0.00     0.171 HD
HETATM   13  C18 UNL     1      79.825  61.914  14.244  1.00  0.00     0.264 A 
HETATM   14  O4  UNL     1      78.916  61.867  15.102  1.00  0.00    -0.267 OA
HETATM   15  C19 UNL     1      79.456  62.198  12.945  1.00  0.00     0.120 A 
ENDROOT
BRANCH   1  16
HETATM   16  N2  UNL     1      77.181  62.375  13.502  1.00  0.00    -0.370 N 
ATOM     17  H2  UNL     1      77.098  61.589  14.146  1.00  0.00     0.161 HD
BRANCH  16  18
HETATM   18  C8  UNL     1      76.256  63.487  13.545  1.00  0.00     0.178 C 
BRANCH  18  19
HETATM   19  C7  UNL     1      75.838  63.788  14.948  1.00  0.00     0.033 A 
HETATM   20  C4  UNL     1      75.075  64.880  15.316  1.00  0.00    -0.032 A 
HETATM   21  C5  UNL     1      74.916  64.793  16.681  1.00  0.00     0.026 A 
HETATM   22  C6  UNL     1      75.582  63.661  17.091  1.00  0.00     0.089 A 
HETATM   23  N1  UNL     1      76.146  63.046  16.026  1.00  0.00    -0.367 N 
ATOM     24  H1  UNL     1      76.698  62.188  16.038  1.00  0.00     0.165 HD
BRANCH  20  25
HETATM   25  C3  UNL     1      74.521  65.926  14.460  1.00  0.00     0.050 C 
BRANCH  25  26
HETATM   26  C2  UNL     1      74.725  67.329  14.909  1.00  0.00     0.108 C 
BRANCH  26  27
HETATM   27  C1  UNL     1      76.064  67.884  14.710  1.00  0.00     0.222 C 
HETATM   28  O1  UNL     1      76.330  69.103  14.850  1.00  0.00    -0.273 OA
HETATM   29  N8  UNL     1      77.161  67.052  14.335  1.00  0.00    -0.334 N 
HETATM   30  C20 UNL     1      77.603  66.953  13.149  1.00  0.00    -0.011 C 
ATOM     31  H8  UNL     1      77.617  66.504  15.064  1.00  0.00     0.168 HD
HETATM   32  C21 UNL     1      78.744  66.067  12.847  1.00  0.00     0.052 C 
HETATM   33  C25 UNL     1      76.988  67.717  12.050  1.00  0.00     0.052 C 
HETATM   34  C22 UNL     1      79.092  66.317  11.377  1.00  0.00     0.006 C 
HETATM   35  C23 UNL     1      79.249  67.779  11.119  1.00  0.00     0.001 C 
HETATM   36  C24 UNL     1      78.050  68.615  11.458  1.00  0.00     0.006 C 
ENDBRANCH  26  27
ENDBRANCH  25  26
ENDBRANCH  20  25
ENDBRANCH  18  19
ENDBRANCH  16  18
ENDBRANCH   1  16
BRANCH  10  37
HETATM   37  C13 UNL     1      83.509  61.512  13.983  1.00  0.00     0.288 C 
HETATM   38  O2  UNL     1      84.115  62.436  14.625  1.00  0.00    -0.264 OA
HETATM   39  N6  UNL     1      84.173  60.312  13.627  1.00  0.00    -0.342 N 
HETATM   40  C14 UNL     1      83.567  59.219  12.903  1.00  0.00     0.152 C 
HETATM   41  C17 UNL     1      85.564  60.139  14.005  1.00  0.00     0.152 C 
HETATM   42  C15 UNL     1      84.664  58.146  12.805  1.00  0.00     0.187 C 
HETATM   43  O3  UNL     1      85.780  58.641  12.154  1.00  0.00    -0.388 OA
HETATM   44  C16 UNL     1      86.312  59.771  12.738  1.00  0.00     0.187 C 
ENDBRANCH  10  37
TORSDOF 7
ENDMDL
MODEL 5
REMARK VINA RESULT: -7.907761872      1.120      1.202
REMARK  7 active torsions:
REMARK  status: ('A' for Active; 'I' for Inactive)
REMARK    1  A    between atoms: C1_2  and  C2_3 
REMARK       I    between atoms: C1_2  and  N8_37 
REMARK    2  A    between atoms: C2_3  and  C3_4 
REMARK    3  A    between atoms: C3_4  and  C4_5 
REMARK    4  A    between atoms: C7_10  and  C8_11 
REMARK    5  A    between atoms: C8_11  and  N2_12 
REMARK    6  A    between atoms: N2_12  and  C9_14 
REMARK    7  A    between atoms: C12_23  and  C13_24 
REMARK       I    between atoms: C13_24  and  N6_26 
ROOT
HETATM    1  C9  UNL     1      83.217  61.001  14.455  1.00  0.00     0.122 A 
HETATM    2  N3  UNL     1      83.520  61.760  15.524  1.00  0.00    -0.338 N 
ATOM      3  H3  UNL     1      82.794  62.341  15.941  1.00  0.00     0.168 HD
HETATM    4  C10 UNL     1      84.764  61.775  16.063  1.00  0.00     0.183 A 
HETATM    5  N4  UNL     1      85.735  61.009  15.519  1.00  0.00    -0.338 N 
ATOM      6  H4  UNL     1      86.668  61.027  15.931  1.00  0.00     0.168 HD
HETATM    7  C11 UNL     1      85.508  60.224  14.451  1.00  0.00     0.127 A 
HETATM    8  N5  UNL     1      86.465  59.459  13.901  1.00  0.00    -0.323 N 
ATOM      9  H5  UNL     1      87.397  59.479  14.316  1.00  0.00     0.169 HD
HETATM   10  C12 UNL     1      86.262  58.665  12.829  1.00  0.00     0.179 A 
HETATM   11  N7  UNL     1      85.023  58.666  12.312  1.00  0.00    -0.304 N 
ATOM     12  H7  UNL     1      84.832  58.077  11.501  1.00  0.00     0.171 HD
HETATM   13  C18 UNL     1      84.016  59.413  12.818  1.00  0.00     0.264 A 
HETATM   14  O4  UNL     1      82.864  59.409  12.329  1.00  0.00    -0.267 OA
HETATM   15  C19 UNL     1      84.236  60.221  13.914  1.00  0.00     0.120 A 
ENDROOT
BRANCH   1  16
HETATM   16  N2  UNL     1      82.017  60.992  13.944  1.00  0.00    -0.370 N 
ATOM     17  H2  UNL     1      81.567  60.123  13.659  1.00  0.00     0.161 HD
BRANCH  16  18
HETATM   18  C8  UNL     1      81.354  62.269  13.801  1.00  0.00     0.178 C 
BRANCH  18  19
HETATM   19  C7  UNL     1      80.726  62.403  12.451  1.00  0.00     0.033 A 
HETATM   20  C4  UNL     1      79.736  63.315  12.139  1.00  0.00    -0.032 A 
HETATM   21  C5  UNL     1      79.434  63.114  10.811  1.00  0.00     0.026 A 
HETATM   22  C6  UNL     1      80.245  62.096  10.365  1.00  0.00     0.089 A 
HETATM   23  N1  UNL     1      81.036  61.662  11.373  1.00  0.00    -0.367 N 
ATOM     24  H1  UNL     1      81.732  60.918  11.325  1.00  0.00     0.165 HD
BRANCH  20  25
HETATM   25  C3  UNL     1      79.119  64.314  13.010  1.00  0.00     0.050 C 
BRANCH  25  26
HETATM   26  C2  UNL     1      77.668  64.146  13.289  1.00  0.00     0.108 C 
BRANCH  26  27
HETATM   27  C1  UNL     1      77.274  62.893  13.936  1.00  0.00     0.222 C 
HETATM   28  O1  UNL     1      76.801  61.914  13.307  1.00  0.00    -0.273 OA
HETATM   29  N8  UNL     1      77.408  62.715  15.345  1.00  0.00    -0.334 N 
HETATM   30  C20 UNL     1      76.447  62.825  16.167  1.00  0.00    -0.011 C 
ATOM     31  H8  UNL     1      78.331  62.487  15.713  1.00  0.00     0.168 HD
HETATM   32  C21 UNL     1      76.672  62.625  17.612  1.00  0.00     0.052 C 
HETATM   33  C25 UNL     1      75.089  63.154  15.701  1.00  0.00     0.052 C 
HETATM   34  C22 UNL     1      75.288  62.680  18.265  1.00  0.00     0.006 C 
HETATM   35  C23 UNL     1      74.344  61.759  17.566  1.00  0.00     0.001 C 
HETATM   36  C24 UNL     1      74.174  62.020  16.098  1.00  0.00     0.006 C 
ENDBRANCH  26  27
ENDBRANCH  25  26
ENDBRANCH  20  25
ENDBRANCH  18  19
ENDBRANCH  16  18
ENDBRANCH   1  16
BRANCH  10  37
HETATM   37  C13 UNL     1      87.340  57.848  12.268  1.00  0.00     0.288 C 
HETATM   38  O2  UNL     1      87.054  56.647  11.939  1.00  0.00    -0.264 OA
HETATM   39  N6  UNL     1      88.648  58.362  12.093  1.00  0.00    -0.342 N 
HETATM   40  C14 UNL     1      89.059  59.704  12.438  1.00  0.00     0.152 C 
HETATM   41  C17 UNL     1      89.673  57.502  11.529  1.00  0.00     0.152 C 
HETATM   42  C15 UNL     1      90.537  59.790  12.022  1.00  0.00     0.187 C 
HETATM   43  O3  UNL     1      91.290  58.835  12.682  1.00  0.00    -0.388 OA
HETATM   44  C16 UNL     1      90.847  57.543  12.489  1.00  0.00     0.187 C 
ENDBRANCH  10  37
TORSDOF 7
ENDMDL
