MODEL 1
REMARK VINA RESULT: -6.974589943      0.000      0.000
REMARK  6 active torsions:
REMARK  status: ('A' for Active; 'I' for Inactive)
REMARK    1  A    between atoms: C2_2  and  N1_3 
REMARK    2  A    between atoms: C2_2  and  C12_22 
REMARK       I    between atoms: N1_3  and  C3_5 
REMARK    3  A    between atoms: C3_5  and  C4_7 
REMARK    4  A    between atoms: C4_7  and  C5_8 
REMARK    5  A    between atoms: C4_7  and  N2_12 
REMARK    6  A    between atoms: C5_8  and  C6_9 
REMARK       I    between atoms: N2_12  and  C7_14 
REMARK       I    between atoms: C7_14  and  N3_16 
REMARK       I    between atoms: C12_22  and  N4_24 
ROOT
HETATM    1  C1  UNL     1      71.513  66.843  16.516  1.00  0.00     0.042 C 
HETATM    2  C2  UNL     1      72.816  66.418  15.879  1.00  0.00     0.172 C 
ENDROOT
BRANCH   2   3
HETATM    3  N1  UNL     1      73.242  65.196  16.547  1.00  0.00    -0.346 N 
HETATM    4  C3  UNL     1      74.277  65.148  17.490  1.00  0.00     0.241 C 
HETATM    5  O1  UNL     1      74.862  66.238  17.749  1.00  0.00    -0.271 OA
ATOM      6  H1  UNL     1      72.762  64.327  16.315  1.00  0.00     0.163 HD
BRANCH   4   7
HETATM    7  C4  UNL     1      74.720  63.932  18.187  1.00  0.00     0.188 C 
BRANCH   7   8
HETATM    8  C5  UNL     1      75.161  62.818  17.259  1.00  0.00     0.148 C 
BRANCH   8   9
HETATM    9  C6  UNL     1      76.602  62.570  17.400  1.00  0.00     0.175 C 
HETATM   10  O2  UNL     1      77.077  62.546  18.567  1.00  0.00    -0.648 OA
HETATM   11  O3  UNL     1      77.461  62.362  16.325  1.00  0.00    -0.648 OA
ENDBRANCH   8   9
ENDBRANCH   7   8
BRANCH   7  12
HETATM   12  N2  UNL     1      73.577  63.331  18.919  1.00  0.00    -0.329 N 
HETATM   13  C7  UNL     1      73.543  63.457  20.312  1.00  0.00     0.319 C 
HETATM   14  O4  UNL     1      74.498  64.083  20.895  1.00  0.00    -0.247 OA
HETATM   15  N3  UNL     1      72.495  62.917  21.081  1.00  0.00    -0.330 N 
HETATM   16  C8  UNL     1      71.415  62.207  20.463  1.00  0.00     0.153 C 
HETATM   17  C11 UNL     1      72.495  63.083  22.521  1.00  0.00     0.153 C 
HETATM   18  C9  UNL     1      71.128  60.963  21.306  1.00  0.00     0.187 C 
HETATM   19  O5  UNL     1      71.068  61.229  22.653  1.00  0.00    -0.388 OA
HETATM   20  C10 UNL     1      72.276  61.727  23.148  1.00  0.00     0.187 C 
ATOM     21  H2  UNL     1      72.835  62.840  18.420  1.00  0.00     0.165 HD
ENDBRANCH   7  12
ENDBRANCH   4   7
ENDBRANCH   2   3
BRANCH   2  22
HETATM   22  C12 UNL     1      72.738  66.276  14.412  1.00  0.00     0.244 C 
HETATM   23  O6  UNL     1      71.705  65.634  13.992  1.00  0.00    -0.271 OA
HETATM   24  N4  UNL     1      73.611  66.733  13.452  1.00  0.00    -0.331 N 
HETATM   25  C13 UNL     1      74.837  66.659  13.242  1.00  0.00     0.013 C 
ATOM     26  H4  UNL     1      73.132  67.270  12.729  1.00  0.00     0.168 HD
HETATM   27  C14 UNL     1      75.776  65.947  14.117  1.00  0.00     0.055 C 
HETATM   28  C24 UNL     1      75.405  67.334  12.024  1.00  0.00     0.220 C 
HETATM   29  C15 UNL     1      75.599  64.470  14.196  1.00  0.00     0.006 C 
HETATM   30  C16 UNL     1      76.151  63.674  13.068  1.00  0.00     0.000 C 
HETATM   31  C17 UNL     1      77.671  63.621  13.162  1.00  0.00     0.000 C 
HETATM   32  C18 UNL     1      78.210  63.496  11.781  1.00  0.00     0.000 C 
HETATM   33  C19 UNL     1      79.587  64.007  11.552  1.00  0.00     0.000 C 
HETATM   34  C20 UNL     1      80.131  64.984  12.515  1.00  0.00     0.000 C 
HETATM   35  C21 UNL     1      79.734  66.391  12.415  1.00  0.00     0.002 C 
HETATM   36  C22 UNL     1      78.923  66.819  11.257  1.00  0.00     0.026 C 
HETATM   37  C23 UNL     1      77.683  67.629  11.663  1.00  0.00     0.168 C 
HETATM   38  O7  UNL     1      76.586  66.774  11.621  1.00  0.00    -0.386 OA
ENDBRANCH   2  22
TORSDOF 6
ENDMDL
MODEL 2
REMARK VINA RESULT: -6.477619015      8.888     12.555
REMARK  6 active torsions:
REMARK  status: ('A' for Active; 'I' for Inactive)
REMARK    1  A    between atoms: C2_2  and  N1_3 
REMARK    2  A    between atoms: C2_2  and  C12_22 
REMARK       I    between atoms: N1_3  and  C3_5 
REMARK    3  A    between atoms: C3_5  and  C4_7 
REMARK    4  A    between atoms: C4_7  and  C5_8 
REMARK    5  A    between atoms: C4_7  and  N2_12 
REMARK    6  A    between atoms: C5_8  and  C6_9 
REMARK       I    between atoms: N2_12  and  C7_14 
REMARK       I    between atoms: C7_14  and  N3_16 
REMARK       I    between atoms: C12_22  and  N4_24 
ROOT
HETATM    1  C1  UNL     1      84.943  61.078  15.601  1.00  0.00     0.042 C 
HETATM    2  C2  UNL     1      84.557  60.326  14.348  1.00  0.00     0.172 C 
ENDROOT
BRANCH   2   3
HETATM    3  N1  UNL     1      83.118  60.476  14.183  1.00  0.00    -0.346 N 
HETATM    4  C3  UNL     1      82.311  59.539  13.524  1.00  0.00     0.241 C 
HETATM    5  O1  UNL     1      82.892  58.524  13.046  1.00  0.00    -0.271 OA
ATOM      6  H1  UNL     1      82.672  61.308  14.569  1.00  0.00     0.163 HD
BRANCH   4   7
HETATM    7  C4  UNL     1      80.857  59.659  13.353  1.00  0.00     0.188 C 
BRANCH   7   8
HETATM    8  C5  UNL     1      80.234  58.526  12.561  1.00  0.00     0.148 C 
BRANCH   8   9
HETATM    9  C6  UNL     1      78.802  58.408  12.869  1.00  0.00     0.175 C 
HETATM   10  O2  UNL     1      78.047  59.345  12.494  1.00  0.00    -0.648 OA
HETATM   11  O3  UNL     1      78.241  57.329  13.544  1.00  0.00    -0.648 OA
ENDBRANCH   8   9
ENDBRANCH   7   8
BRANCH   7  12
HETATM   12  N2  UNL     1      80.547  60.857  12.531  1.00  0.00    -0.329 N 
HETATM   13  C7  UNL     1      80.171  62.033  13.189  1.00  0.00     0.319 C 
HETATM   14  O4  UNL     1      80.110  62.026  14.469  1.00  0.00    -0.247 OA
HETATM   15  N3  UNL     1      79.863  63.211  12.485  1.00  0.00    -0.330 N 
HETATM   16  C8  UNL     1      79.916  63.253  11.053  1.00  0.00     0.153 C 
HETATM   17  C11 UNL     1      79.491  64.410  13.209  1.00  0.00     0.153 C 
HETATM   18  C9  UNL     1      78.681  64.009  10.560  1.00  0.00     0.187 C 
HETATM   19  O5  UNL     1      78.451  65.173  11.252  1.00  0.00    -0.388 OA
HETATM   20  C10 UNL     1      78.211  64.942  12.609  1.00  0.00     0.187 C 
ATOM     21  H2  UNL     1      80.607  60.823  11.513  1.00  0.00     0.165 HD
ENDBRANCH   7  12
ENDBRANCH   4   7
ENDBRANCH   2   3
BRANCH   2  22
HETATM   22  C12 UNL     1      85.320  60.738  13.154  1.00  0.00     0.244 C 
HETATM   23  O6  UNL     1      84.621  61.334  12.253  1.00  0.00    -0.271 OA
HETATM   24  N4  UNL     1      86.658  60.570  12.884  1.00  0.00    -0.331 N 
HETATM   25  C13 UNL     1      87.464  59.620  12.884  1.00  0.00     0.013 C 
ATOM     26  H4  UNL     1      87.104  61.447  12.614  1.00  0.00     0.168 HD
HETATM   27  C14 UNL     1      87.102  58.239  13.229  1.00  0.00     0.055 C 
HETATM   28  C24 UNL     1      88.897  59.884  12.512  1.00  0.00     0.220 C 
HETATM   29  C15 UNL     1      86.153  57.565  12.299  1.00  0.00     0.006 C 
HETATM   30  C16 UNL     1      86.727  57.027  11.038  1.00  0.00     0.000 C 
HETATM   31  C17 UNL     1      87.533  55.767  11.327  1.00  0.00     0.000 C 
HETATM   32  C18 UNL     1      88.616  55.674  10.310  1.00  0.00     0.000 C 
HETATM   33  C19 UNL     1      89.837  54.923  10.702  1.00  0.00     0.000 C 
HETATM   34  C20 UNL     1      90.103  54.737  12.141  1.00  0.00     0.000 C 
HETATM   35  C21 UNL     1      90.691  55.834  12.913  1.00  0.00     0.002 C 
HETATM   36  C22 UNL     1      91.145  57.043  12.196  1.00  0.00     0.026 C 
HETATM   37  C23 UNL     1      90.610  58.342  12.816  1.00  0.00     0.168 C 
HETATM   38  O7  UNL     1      89.530  58.765  12.047  1.00  0.00    -0.386 OA
ENDBRANCH   2  22
TORSDOF 6
ENDMDL
MODEL 3
REMARK VINA RESULT: -6.418937596      1.753      1.903
REMARK  6 active torsions:
REMARK  status: ('A' for Active; 'I' for Inactive)
REMARK    1  A    between atoms: C2_2  and  N1_3 
REMARK    2  A    between atoms: C2_2  and  C12_22 
REMARK       I    between atoms: N1_3  and  C3_5 
REMARK    3  A    between atoms: C3_5  and  C4_7 
REMARK    4  A    between atoms: C4_7  and  C5_8 
REMARK    5  A    between atoms: C4_7  and  N2_12 
REMARK    6  A    between atoms: C5_8  and  C6_9 
REMARK       I    between atoms: N2_12  and  C7_14 
REMARK       I    between atoms: C7_14  and  N3_16 
REMARK       I    between atoms: C12_22  and  N4_24 
ROOT
HETATM    1  C1  UNL     1      70.738  63.630  14.675  1.00  0.00     0.042 C 
HETATM    2  C2  UNL     1      72.232  63.671  14.450  1.00  0.00     0.172 C 
ENDROOT
BRANCH   2   3
HETATM    3  N1  UNL     1      72.861  63.119  15.642  1.00  0.00    -0.346 N 
HETATM    4  C3  UNL     1      73.535  63.896  16.593  1.00  0.00     0.241 C 
HETATM    5  O1  UNL     1      73.595  65.139  16.374  1.00  0.00    -0.271 OA
ATOM      6  H1  UNL     1      72.808  62.112  15.793  1.00  0.00     0.163 HD
BRANCH   4   7
HETATM    7  C4  UNL     1      74.169  63.368  17.810  1.00  0.00     0.188 C 
BRANCH   7   8
HETATM    8  C5  UNL     1      75.080  62.182  17.563  1.00  0.00     0.148 C 
BRANCH   8   9
HETATM    9  C6  UNL     1      76.481  62.546  17.821  1.00  0.00     0.175 C 
HETATM   10  O2  UNL     1      76.778  62.928  18.985  1.00  0.00    -0.648 OA
HETATM   11  O3  UNL     1      77.484  62.491  16.859  1.00  0.00    -0.648 OA
ENDBRANCH   8   9
ENDBRANCH   7   8
BRANCH   7  12
HETATM   12  N2  UNL     1      73.129  62.814  18.714  1.00  0.00    -0.329 N 
HETATM   13  C7  UNL     1      73.147  63.203  20.058  1.00  0.00     0.319 C 
HETATM   14  O4  UNL     1      74.056  64.016  20.450  1.00  0.00    -0.247 OA
HETATM   15  N3  UNL     1      72.198  62.725  20.980  1.00  0.00    -0.330 N 
HETATM   16  C8  UNL     1      71.170  61.811  20.579  1.00  0.00     0.153 C 
HETATM   17  C11 UNL     1      72.245  63.165  22.361  1.00  0.00     0.153 C 
HETATM   18  C9  UNL     1      71.055  60.731  21.657  1.00  0.00     0.187 C 
HETATM   19  O5  UNL     1      71.028  61.245  22.930  1.00  0.00    -0.388 OA
HETATM   20  C10 UNL     1      72.199  61.941  23.244  1.00  0.00     0.187 C 
ATOM     21  H2  UNL     1      72.422  62.168  18.365  1.00  0.00     0.165 HD
ENDBRANCH   7  12
ENDBRANCH   4   7
ENDBRANCH   2   3
BRANCH   2  22
HETATM   22  C12 UNL     1      72.662  62.998  13.208  1.00  0.00     0.244 C 
HETATM   23  O6  UNL     1      72.217  61.799  13.070  1.00  0.00    -0.271 OA
HETATM   24  N4  UNL     1      73.461  63.479  12.198  1.00  0.00    -0.331 N 
HETATM   25  C13 UNL     1      74.583  64.015  12.115  1.00  0.00     0.013 C 
ATOM     26  H4  UNL     1      73.024  63.369  11.283  1.00  0.00     0.168 HD
HETATM   27  C14 UNL     1      75.443  64.298  13.272  1.00  0.00     0.055 C 
HETATM   28  C24 UNL     1      75.102  64.405  10.758  1.00  0.00     0.220 C 
HETATM   29  C15 UNL     1      75.954  63.107  14.006  1.00  0.00     0.006 C 
HETATM   30  C16 UNL     1      77.115  62.402  13.401  1.00  0.00     0.000 C 
HETATM   31  C17 UNL     1      78.383  63.223  13.596  1.00  0.00     0.000 C 
HETATM   32  C18 UNL     1      79.297  62.929  12.458  1.00  0.00     0.000 C 
HETATM   33  C19 UNL     1      80.279  63.986  12.100  1.00  0.00     0.000 C 
HETATM   34  C20 UNL     1      80.000  65.367  12.540  1.00  0.00     0.000 C 
HETATM   35  C21 UNL     1      79.047  66.184  11.785  1.00  0.00     0.002 C 
HETATM   36  C22 UNL     1      78.509  65.656  10.515  1.00  0.00     0.026 C 
HETATM   37  C23 UNL     1      76.977  65.740  10.434  1.00  0.00     0.168 C 
HETATM   38  O7  UNL     1      76.467  64.479  10.724  1.00  0.00    -0.386 OA
ENDBRANCH   2  22
TORSDOF 6
ENDMDL
MODEL 4
REMARK VINA RESULT: -6.296902073      6.853     11.270
REMARK  6 active torsions:
REMARK  status: ('A' for Active; 'I' for Inactive)
REMARK    1  A    between atoms: C2_2  and  N1_3 
REMARK    2  A    between atoms: C2_2  and  C12_22 
REMARK       I    between atoms: N1_3  and  C3_5 
REMARK    3  A    between atoms: C3_5  and  C4_7 
REMARK    4  A    between atoms: C4_7  and  C5_8 
REMARK    5  A    between atoms: C4_7  and  N2_12 
REMARK    6  A    between atoms: C5_8  and  C6_9 
REMARK       I    between atoms: N2_12  and  C7_14 
REMARK       I    between atoms: C7_14  and  N3_16 
REMARK       I    between atoms: C12_22  and  N4_24 
ROOT
HETATM    1  C1  UNL     1      80.428  58.238  11.573  1.00  0.00     0.042 C 
HETATM    2  C2  UNL     1      80.645  59.719  11.782  1.00  0.00     0.172 C 
ENDROOT
BRANCH   2   3
HETATM    3  N1  UNL     1      82.017  59.892  12.237  1.00  0.00    -0.346 N 
HETATM    4  C3  UNL     1      82.362  60.539  13.431  1.00  0.00     0.241 C 
HETATM    5  O1  UNL     1      81.412  60.996  14.126  1.00  0.00    -0.271 OA
ATOM      6  H1  UNL     1      82.768  59.522  11.655  1.00  0.00     0.163 HD
BRANCH   4   7
HETATM    7  C4  UNL     1      83.737  60.718  13.919  1.00  0.00     0.188 C 
BRANCH   7   8
HETATM    8  C5  UNL     1      83.961  62.019  14.664  1.00  0.00     0.148 C 
BRANCH   8   9
HETATM    9  C6  UNL     1      84.632  61.770  15.948  1.00  0.00     0.175 C 
HETATM   10  O2  UNL     1      85.057  62.771  16.585  1.00  0.00    -0.648 OA
HETATM   11  O3  UNL     1      84.820  60.503  16.490  1.00  0.00    -0.648 OA
ENDBRANCH   8   9
ENDBRANCH   7   8
BRANCH   7  12
HETATM   12  N2  UNL     1      84.667  60.822  12.767  1.00  0.00    -0.329 N 
HETATM   13  C7  UNL     1      85.801  60.004  12.756  1.00  0.00     0.319 C 
HETATM   14  O4  UNL     1      85.989  59.201  13.737  1.00  0.00    -0.247 OA
HETATM   15  N3  UNL     1      86.732  60.040  11.701  1.00  0.00    -0.330 N 
HETATM   16  C8  UNL     1      86.557  60.929  10.590  1.00  0.00     0.153 C 
HETATM   17  C11 UNL     1      87.886  59.164  11.724  1.00  0.00     0.153 C 
HETATM   18  C9  UNL     1      87.915  61.559  10.275  1.00  0.00     0.187 C 
HETATM   19  O5  UNL     1      88.937  60.642  10.240  1.00  0.00    -0.388 OA
HETATM   20  C10 UNL     1      89.116  60.003  11.470  1.00  0.00     0.187 C 
ATOM     21  H2  UNL     1      84.484  61.474  12.004  1.00  0.00     0.165 HD
ENDBRANCH   7  12
ENDBRANCH   4   7
ENDBRANCH   2   3
BRANCH   2  22
HETATM   22  C12 UNL     1      80.324  60.535  10.595  1.00  0.00     0.244 C 
HETATM   23  O6  UNL     1      81.255  60.578   9.709  1.00  0.00    -0.271 OA
HETATM   24  N4  UNL     1      79.178  61.244  10.319  1.00  0.00    -0.331 N 
HETATM   25  C13 UNL     1      78.483  62.096  10.905  1.00  0.00     0.013 C 
ATOM     26  H4  UNL     1      78.800  61.012   9.400  1.00  0.00     0.168 HD
HETATM   27  C14 UNL     1      78.786  62.620  12.243  1.00  0.00     0.055 C 
HETATM   28  C24 UNL     1      77.256  62.629  10.217  1.00  0.00     0.220 C 
HETATM   29  C15 UNL     1      80.039  63.416  12.359  1.00  0.00     0.006 C 
HETATM   30  C16 UNL     1      79.977  64.827  11.895  1.00  0.00     0.000 C 
HETATM   31  C17 UNL     1      79.200  65.671  12.896  1.00  0.00     0.000 C 
HETATM   32  C18 UNL     1      78.549  66.782  12.149  1.00  0.00     0.000 C 
HETATM   33  C19 UNL     1      77.317  67.358  12.749  1.00  0.00     0.000 C 
HETATM   34  C20 UNL     1      76.577  66.540  13.729  1.00  0.00     0.000 C 
HETATM   35  C21 UNL     1      75.690  65.475  13.254  1.00  0.00     0.002 C 
HETATM   36  C22 UNL     1      75.441  65.352  11.804  1.00  0.00     0.026 C 
HETATM   37  C23 UNL     1      75.644  63.922  11.282  1.00  0.00     0.168 C 
HETATM   38  O7  UNL     1      76.896  63.865  10.678  1.00  0.00    -0.386 OA
ENDBRANCH   2  22
TORSDOF 6
ENDMDL
MODEL 5
REMARK VINA RESULT: -6.270930553      4.591      7.626
REMARK  6 active torsions:
REMARK  status: ('A' for Active; 'I' for Inactive)
REMARK    1  A    between atoms: C2_2  and  N1_3 
REMARK    2  A    between atoms: C2_2  and  C12_22 
REMARK       I    between atoms: N1_3  and  C3_5 
REMARK    3  A    between atoms: C3_5  and  C4_7 
REMARK    4  A    between atoms: C4_7  and  C5_8 
REMARK    5  A    between atoms: C4_7  and  N2_12 
REMARK    6  A    between atoms: C5_8  and  C6_9 
REMARK       I    between atoms: N2_12  and  C7_14 
REMARK       I    between atoms: C7_14  and  N3_16 
REMARK       I    between atoms: C12_22  and  N4_24 
ROOT
HETATM    1  C1  UNL     1      78.280  62.157  10.468  1.00  0.00     0.042 C 
HETATM    2  C2  UNL     1      78.549  62.600  11.887  1.00  0.00     0.172 C 
ENDROOT
BRANCH   2   3
HETATM    3  N1  UNL     1      77.469  63.500  12.269  1.00  0.00    -0.346 N 
HETATM    4  C3  UNL     1      77.678  64.783  12.790  1.00  0.00     0.241 C 
HETATM    5  O1  UNL     1      78.877  65.150  12.938  1.00  0.00    -0.271 OA
ATOM      6  H1  UNL     1      76.509  63.178  12.149  1.00  0.00     0.163 HD
BRANCH   4   7
HETATM    7  C4  UNL     1      76.608  65.715  13.173  1.00  0.00     0.188 C 
BRANCH   7   8
HETATM    8  C5  UNL     1      77.076  67.145  13.365  1.00  0.00     0.148 C 
BRANCH   8   9
HETATM    9  C6  UNL     1      76.075  67.919  14.112  1.00  0.00     0.175 C 
HETATM   10  O2  UNL     1      76.427  68.408  15.220  1.00  0.00    -0.648 OA
HETATM   11  O3  UNL     1      74.776  68.139  13.668  1.00  0.00    -0.648 OA
ENDBRANCH   8   9
ENDBRANCH   7   8
BRANCH   7  12
HETATM   12  N2  UNL     1      76.081  65.349  14.512  1.00  0.00    -0.329 N 
HETATM   13  C7  UNL     1      74.975  64.494  14.577  1.00  0.00     0.319 C 
HETATM   14  O4  UNL     1      74.465  64.066  13.482  1.00  0.00    -0.247 OA
HETATM   15  N3  UNL     1      74.416  64.098  15.806  1.00  0.00    -0.330 N 
HETATM   16  C8  UNL     1      74.956  64.561  17.049  1.00  0.00     0.153 C 
HETATM   17  C11 UNL     1      73.278  63.200  15.826  1.00  0.00     0.153 C 
HETATM   18  C9  UNL     1      73.786  64.943  17.957  1.00  0.00     0.187 C 
HETATM   19  O5  UNL     1      72.790  63.997  17.975  1.00  0.00    -0.388 OA
HETATM   20  C10 UNL     1      72.218  63.807  16.714  1.00  0.00     0.187 C 
ATOM     21  H2  UNL     1      76.514  65.711  15.362  1.00  0.00     0.165 HD
ENDBRANCH   7  12
ENDBRANCH   4   7
ENDBRANCH   2   3
BRANCH   2  22
HETATM   22  C12 UNL     1      78.727  61.480  12.832  1.00  0.00     0.244 C 
HETATM   23  O6  UNL     1      78.050  61.587  13.920  1.00  0.00    -0.271 OA
HETATM   24  N4  UNL     1      79.510  60.357  12.701  1.00  0.00    -0.331 N 
HETATM   25  C13 UNL     1      80.701  60.116  12.429  1.00  0.00     0.013 C 
ATOM     26  H4  UNL     1      78.979  59.503  12.871  1.00  0.00     0.168 HD
HETATM   27  C14 UNL     1      81.700  61.153  12.139  1.00  0.00     0.055 C 
HETATM   28  C24 UNL     1      81.161  58.685  12.387  1.00  0.00     0.220 C 
HETATM   29  C15 UNL     1      82.038  62.062  13.268  1.00  0.00     0.006 C 
HETATM   30  C16 UNL     1      82.982  61.534  14.288  1.00  0.00     0.000 C 
HETATM   31  C17 UNL     1      84.397  61.506  13.724  1.00  0.00     0.000 C 
HETATM   32  C18 UNL     1      85.130  60.392  14.385  1.00  0.00     0.000 C 
HETATM   33  C19 UNL     1      86.261  59.794  13.628  1.00  0.00     0.000 C 
HETATM   34  C20 UNL     1      86.294  59.989  12.166  1.00  0.00     0.000 C 
HETATM   35  C21 UNL     1      85.451  59.151  11.309  1.00  0.00     0.002 C 
HETATM   36  C22 UNL     1      84.708  58.031  11.920  1.00  0.00     0.026 C 
HETATM   37  C23 UNL     1      83.221  58.020  11.539  1.00  0.00     0.168 C 
HETATM   38  O7  UNL     1      82.506  58.563  12.601  1.00  0.00    -0.386 OA
ENDBRANCH   2  22
TORSDOF 6
ENDMDL
