MODEL 1
REMARK VINA RESULT: -7.825242661      0.000      0.000
REMARK  8 active torsions:
REMARK  status: ('A' for Active; 'I' for Inactive)
REMARK    1  A    between atoms: C3_5  and  N2_6 
REMARK    2  A    between atoms: C4_10  and  C5_11 
REMARK    3  A    between atoms: N3_14  and  C8_15 
REMARK    4  A    between atoms: C8_15  and  C9_16 
REMARK    5  A    between atoms: C12_19  and  C13_20 
REMARK    6  A    between atoms: C16_23  and  S2_24 
REMARK    7  A    between atoms: S2_24  and  N4_25 
REMARK    8  A    between atoms: C20_33  and  S3_34 
ROOT
HETATM    1  C9  UNL     1      78.982  63.002  13.480  1.00  0.00    -0.014 A 
HETATM    2  C10 UNL     1      80.053  63.706  12.858  1.00  0.00     0.011 A 
HETATM    3  C11 UNL     1      79.935  64.973  12.380  1.00  0.00     0.013 A 
HETATM    4  C12 UNL     1      78.714  65.615  12.499  1.00  0.00    -0.024 A 
HETATM    5  C19 UNL     1      77.685  64.938  13.095  1.00  0.00     0.039 A 
HETATM    6  C20 UNL     1      77.789  63.627  13.598  1.00  0.00     0.089 A 
ENDROOT
BRANCH   1   7
HETATM    7  C8  UNL     1      79.236  61.628  13.889  1.00  0.00     0.188 C 
BRANCH   7   8
HETATM    8  N3  UNL     1      80.411  60.986  13.368  1.00  0.00    -0.299 N 
HETATM    9  C7  UNL     1      80.592  60.232  12.305  1.00  0.00     0.113 A 
HETATM   10  C6  UNL     1      81.920  59.880  12.255  1.00  0.00     0.051 A 
HETATM   11  C5  UNL     1      82.545  60.467  13.359  1.00  0.00     0.068 A 
HETATM   12  N5  UNL     1      81.600  61.118  13.995  1.00  0.00    -0.297 N 
ATOM     13  H5  UNL     1      81.745  61.654  14.850  1.00  0.00     0.187 HD
BRANCH  11  14
HETATM   14  C4  UNL     1      83.971  60.298  13.651  1.00  0.00     0.058 A 
HETATM   15  C2  UNL     1      84.810  60.867  14.567  1.00  0.00     0.027 A 
HETATM   16  C1  UNL     1      84.254  61.889  15.558  1.00  0.00     0.070 C 
HETATM   17  N1  UNL     1      86.064  60.504  14.565  1.00  0.00    -0.340 N 
HETATM   18  C3  UNL     1      86.475  59.602  13.682  1.00  0.00     0.143 A 
ATOM     19  H1  UNL     1      86.720  60.908  15.233  1.00  0.00     0.168 HD
HETATM   20  S1  UNL     1      85.059  59.241  12.813  1.00  0.00    -0.050 SA
BRANCH  18  21
HETATM   21  N2  UNL     1      87.696  59.128  13.543  1.00  0.00    -0.380 N 
ATOM     22  H22 UNL     1      88.512  59.235  14.145  1.00  0.00     0.158 HD
ATOM     23  H21 UNL     1      88.046  58.549  12.780  1.00  0.00     0.158 HD
ENDBRANCH  18  21
ENDBRANCH  11  14
ENDBRANCH   7   8
ENDBRANCH   1   7
BRANCH   6  24
HETATM   24  S3  UNL     1      76.397  62.982  14.331  1.00  0.00     0.138 S 
HETATM   25  O3  UNL     1      76.642  62.534  15.767  1.00  0.00    -0.591 OA
HETATM   26  O4  UNL     1      75.362  64.088  14.497  1.00  0.00    -0.591 OA
HETATM   27  O5  UNL     1      75.609  61.770  13.500  1.00  0.00    -0.591 OA
ENDBRANCH   6  24
BRANCH   4  28
HETATM   28  C13 UNL     1      78.523  66.960  11.989  1.00  0.00    -0.026 A 
HETATM   29  C14 UNL     1      77.415  67.743  12.215  1.00  0.00     0.014 A 
HETATM   30  C15 UNL     1      77.281  69.016  11.713  1.00  0.00     0.026 A 
HETATM   31  C16 UNL     1      78.287  69.569  10.941  1.00  0.00     0.079 A 
HETATM   32  C17 UNL     1      79.421  68.801  10.694  1.00  0.00     0.026 A 
HETATM   33  C18 UNL     1      79.525  67.527  11.212  1.00  0.00     0.014 A 
BRANCH  31  34
HETATM   34  S2  UNL     1      78.140  71.189  10.312  1.00  0.00     0.256 S 
HETATM   35  O1  UNL     1      78.311  71.175   8.822  1.00  0.00    -0.201 OA
HETATM   36  O2  UNL     1      76.844  71.826  10.715  1.00  0.00    -0.201 OA
BRANCH  34  37
HETATM   37  N4  UNL     1      79.426  72.143  10.957  1.00  0.00    -0.324 N 
ATOM     38  H42 UNL     1      80.258  71.770  11.416  1.00  0.00     0.169 HD
ATOM     39  H41 UNL     1      79.208  73.127  10.799  1.00  0.00     0.169 HD
ENDBRANCH  34  37
ENDBRANCH  31  34
ENDBRANCH   4  28
TORSDOF 8
ENDMDL
MODEL 2
REMARK VINA RESULT: -7.638098355      4.518      9.309
REMARK  8 active torsions:
REMARK  status: ('A' for Active; 'I' for Inactive)
REMARK    1  A    between atoms: C3_5  and  N2_6 
REMARK    2  A    between atoms: C4_10  and  C5_11 
REMARK    3  A    between atoms: N3_14  and  C8_15 
REMARK    4  A    between atoms: C8_15  and  C9_16 
REMARK    5  A    between atoms: C12_19  and  C13_20 
REMARK    6  A    between atoms: C16_23  and  S2_24 
REMARK    7  A    between atoms: S2_24  and  N4_25 
REMARK    8  A    between atoms: C20_33  and  S3_34 
ROOT
HETATM    1  C9  UNL     1      77.923  64.093  12.561  1.00  0.00    -0.014 A 
HETATM    2  C10 UNL     1      79.171  64.758  12.739  1.00  0.00     0.011 A 
HETATM    3  C11 UNL     1      80.359  64.103  12.821  1.00  0.00     0.013 A 
HETATM    4  C12 UNL     1      80.363  62.722  12.729  1.00  0.00    -0.024 A 
HETATM    5  C19 UNL     1      79.165  62.084  12.558  1.00  0.00     0.039 A 
HETATM    6  C20 UNL     1      77.925  62.745  12.470  1.00  0.00     0.089 A 
ENDROOT
BRANCH   1   7
HETATM    7  C8  UNL     1      76.724  64.918  12.552  1.00  0.00     0.188 C 
BRANCH   7   8
HETATM    8  N3  UNL     1      76.143  65.260  13.821  1.00  0.00    -0.299 N 
HETATM    9  C7  UNL     1      75.751  66.415  14.316  1.00  0.00     0.113 A 
HETATM   10  C6  UNL     1      75.250  66.189  15.575  1.00  0.00     0.051 A 
HETATM   11  C5  UNL     1      75.360  64.819  15.824  1.00  0.00     0.068 A 
HETATM   12  N5  UNL     1      75.900  64.306  14.744  1.00  0.00    -0.297 N 
ATOM     13  H5  UNL     1      76.109  63.315  14.619  1.00  0.00     0.187 HD
BRANCH  11  14
HETATM   14  C4  UNL     1      74.941  64.200  17.085  1.00  0.00     0.058 A 
HETATM   15  C2  UNL     1      75.463  63.199  17.854  1.00  0.00     0.027 A 
HETATM   16  C1  UNL     1      76.763  62.522  17.419  1.00  0.00     0.070 C 
HETATM   17  N1  UNL     1      74.829  62.862  18.944  1.00  0.00    -0.340 N 
HETATM   18  C3  UNL     1      73.710  63.500  19.264  1.00  0.00     0.143 A 
ATOM     19  H1  UNL     1      75.188  62.117  19.541  1.00  0.00     0.168 HD
HETATM   20  S1  UNL     1      73.527  64.617  17.997  1.00  0.00    -0.050 SA
BRANCH  18  21
HETATM   21  N2  UNL     1      72.951  63.287  20.320  1.00  0.00    -0.380 N 
ATOM     22  H22 UNL     1      72.765  62.423  20.830  1.00  0.00     0.158 HD
ATOM     23  H21 UNL     1      72.400  63.978  20.829  1.00  0.00     0.158 HD
ENDBRANCH  18  21
ENDBRANCH  11  14
ENDBRANCH   7   8
ENDBRANCH   1   7
BRANCH   6  24
HETATM   24  S3  UNL     1      76.557  61.763  12.226  1.00  0.00     0.138 S 
HETATM   25  O3  UNL     1      75.908  61.987  10.865  1.00  0.00    -0.591 OA
HETATM   26  O4  UNL     1      76.996  60.306  12.151  1.00  0.00    -0.591 OA
HETATM   27  O5  UNL     1      75.386  61.806  13.412  1.00  0.00    -0.591 OA
ENDBRANCH   6  24
BRANCH   4  28
HETATM   28  C13 UNL     1      81.600  61.968  12.830  1.00  0.00    -0.026 A 
HETATM   29  C14 UNL     1      82.535  62.112  13.828  1.00  0.00     0.014 A 
HETATM   30  C15 UNL     1      83.693  61.372  13.883  1.00  0.00     0.026 A 
HETATM   31  C16 UNL     1      83.962  60.427  12.908  1.00  0.00     0.079 A 
HETATM   32  C17 UNL     1      83.033  60.259  11.885  1.00  0.00     0.026 A 
HETATM   33  C18 UNL     1      81.882  61.017  11.858  1.00  0.00     0.014 A 
BRANCH  31  34
HETATM   34  S2  UNL     1      85.416  59.467  12.974  1.00  0.00     0.256 S 
HETATM   35  O1  UNL     1      85.196  58.160  12.273  1.00  0.00    -0.201 OA
HETATM   36  O2  UNL     1      86.595  60.205  12.414  1.00  0.00    -0.201 OA
BRANCH  34  37
HETATM   37  N4  UNL     1      85.752  59.100  14.627  1.00  0.00    -0.324 N 
ATOM     38  H42 UNL     1      85.550  59.715  15.416  1.00  0.00     0.169 HD
ATOM     39  H41 UNL     1      86.179  58.175  14.672  1.00  0.00     0.169 HD
ENDBRANCH  34  37
ENDBRANCH  31  34
ENDBRANCH   4  28
TORSDOF 8
ENDMDL
MODEL 3
REMARK VINA RESULT: -7.548643735      3.994      9.874
REMARK  8 active torsions:
REMARK  status: ('A' for Active; 'I' for Inactive)
REMARK    1  A    between atoms: C3_5  and  N2_6 
REMARK    2  A    between atoms: C4_10  and  C5_11 
REMARK    3  A    between atoms: N3_14  and  C8_15 
REMARK    4  A    between atoms: C8_15  and  C9_16 
REMARK    5  A    between atoms: C12_19  and  C13_20 
REMARK    6  A    between atoms: C16_23  and  S2_24 
REMARK    7  A    between atoms: S2_24  and  N4_25 
REMARK    8  A    between atoms: C20_33  and  S3_34 
ROOT
HETATM    1  C9  UNL     1      77.755  64.115  12.043  1.00  0.00    -0.014 A 
HETATM    2  C10 UNL     1      78.858  64.207  11.144  1.00  0.00     0.011 A 
HETATM    3  C11 UNL     1      80.029  63.544  11.331  1.00  0.00     0.013 A 
HETATM    4  C12 UNL     1      80.164  62.739  12.449  1.00  0.00    -0.024 A 
HETATM    5  C19 UNL     1      79.106  62.650  13.311  1.00  0.00     0.039 A 
HETATM    6  C20 UNL     1      77.884  63.328  13.134  1.00  0.00     0.089 A 
ENDROOT
BRANCH   1   7
HETATM    7  C8  UNL     1      76.586  64.929  11.748  1.00  0.00     0.188 C 
BRANCH   7   8
HETATM    8  N3  UNL     1      76.643  66.324  12.088  1.00  0.00    -0.299 N 
HETATM    9  C7  UNL     1      77.218  67.343  11.486  1.00  0.00     0.113 A 
HETATM   10  C6  UNL     1      76.959  68.473  12.225  1.00  0.00     0.051 A 
HETATM   11  C5  UNL     1      76.186  68.082  13.321  1.00  0.00     0.068 A 
HETATM   12  N5  UNL     1      76.024  66.786  13.195  1.00  0.00    -0.297 N 
ATOM     13  H5  UNL     1      75.498  66.205  13.847  1.00  0.00     0.187 HD
BRANCH  11  14
HETATM   14  C4  UNL     1      75.727  69.020  14.349  1.00  0.00     0.058 A 
HETATM   15  C2  UNL     1      75.037  68.862  15.517  1.00  0.00     0.027 A 
HETATM   16  C1  UNL     1      74.622  67.458  15.957  1.00  0.00     0.070 C 
HETATM   17  N1  UNL     1      74.764  69.926  16.223  1.00  0.00    -0.340 N 
HETATM   18  C3  UNL     1      75.165  71.113  15.785  1.00  0.00     0.143 A 
ATOM     19  H1  UNL     1      74.249  69.846  17.100  1.00  0.00     0.168 HD
HETATM   20  S1  UNL     1      75.955  70.738  14.327  1.00  0.00    -0.050 SA
BRANCH  18  21
HETATM   21  N2  UNL     1      74.975  72.278  16.368  1.00  0.00    -0.380 N 
ATOM     22  H22 UNL     1      74.279  72.559  17.059  1.00  0.00     0.158 HD
ATOM     23  H21 UNL     1      75.513  73.132  16.223  1.00  0.00     0.158 HD
ENDBRANCH  18  21
ENDBRANCH  11  14
ENDBRANCH   7   8
ENDBRANCH   1   7
BRANCH   6  24
HETATM   24  S3  UNL     1      76.686  63.053  14.309  1.00  0.00     0.138 S 
HETATM   25  O3  UNL     1      75.654  62.022  13.867  1.00  0.00    -0.591 OA
HETATM   26  O4  UNL     1      77.322  62.390  15.525  1.00  0.00    -0.591 OA
HETATM   27  O5  UNL     1      75.904  64.399  14.906  1.00  0.00    -0.591 OA
ENDBRANCH   6  24
BRANCH   4  28
HETATM   28  C13 UNL     1      81.400  62.022  12.711  1.00  0.00    -0.026 A 
HETATM   29  C14 UNL     1      82.222  62.233  13.793  1.00  0.00     0.014 A 
HETATM   30  C15 UNL     1      83.383  61.525  14.000  1.00  0.00     0.026 A 
HETATM   31  C16 UNL     1      83.773  60.548  13.102  1.00  0.00     0.079 A 
HETATM   32  C17 UNL     1      82.961  60.313  11.997  1.00  0.00     0.026 A 
HETATM   33  C18 UNL     1      81.803  61.039  11.817  1.00  0.00     0.014 A 
BRANCH  31  34
HETATM   34  S2  UNL     1      85.233  59.630  13.361  1.00  0.00     0.256 S 
HETATM   35  O1  UNL     1      85.025  58.209  12.927  1.00  0.00    -0.201 OA
HETATM   36  O2  UNL     1      86.410  60.253  12.672  1.00  0.00    -0.201 OA
BRANCH  34  37
HETATM   37  N4  UNL     1      85.561  59.596  15.055  1.00  0.00    -0.324 N 
ATOM     38  H42 UNL     1      84.860  59.466  15.785  1.00  0.00     0.169 HD
ATOM     39  H41 UNL     1      86.564  59.725  15.191  1.00  0.00     0.169 HD
ENDBRANCH  34  37
ENDBRANCH  31  34
ENDBRANCH   4  28
TORSDOF 8
ENDMDL
MODEL 4
REMARK VINA RESULT: -7.387072600      2.309      2.783
REMARK  8 active torsions:
REMARK  status: ('A' for Active; 'I' for Inactive)
REMARK    1  A    between atoms: C3_5  and  N2_6 
REMARK    2  A    between atoms: C4_10  and  C5_11 
REMARK    3  A    between atoms: N3_14  and  C8_15 
REMARK    4  A    between atoms: C8_15  and  C9_16 
REMARK    5  A    between atoms: C12_19  and  C13_20 
REMARK    6  A    between atoms: C16_23  and  S2_24 
REMARK    7  A    between atoms: S2_24  and  N4_25 
REMARK    8  A    between atoms: C20_33  and  S3_34 
ROOT
HETATM    1  C9  UNL     1      79.121  63.947  12.052  1.00  0.00    -0.014 A 
HETATM    2  C10 UNL     1      79.812  65.151  12.373  1.00  0.00     0.011 A 
HETATM    3  C11 UNL     1      79.185  66.285  12.781  1.00  0.00     0.013 A 
HETATM    4  C12 UNL     1      77.805  66.277  12.889  1.00  0.00    -0.024 A 
HETATM    5  C19 UNL     1      77.141  65.121  12.581  1.00  0.00     0.039 A 
HETATM    6  C20 UNL     1      77.773  63.936  12.159  1.00  0.00     0.089 A 
ENDROOT
BRANCH   1   7
HETATM    7  C8  UNL     1      79.918  62.829  11.571  1.00  0.00     0.188 C 
BRANCH   7   8
HETATM    8  N3  UNL     1      80.650  62.065  12.544  1.00  0.00    -0.299 N 
HETATM    9  C7  UNL     1      80.251  61.399  13.606  1.00  0.00     0.113 A 
HETATM   10  C6  UNL     1      81.358  60.831  14.190  1.00  0.00     0.051 A 
HETATM   11  C5  UNL     1      82.465  61.193  13.418  1.00  0.00     0.068 A 
HETATM   12  N5  UNL     1      81.989  61.932  12.444  1.00  0.00    -0.297 N 
ATOM     13  H5  UNL     1      82.558  62.350  11.707  1.00  0.00     0.187 HD
BRANCH  11  14
HETATM   14  C4  UNL     1      83.834  60.784  13.745  1.00  0.00     0.058 A 
HETATM   15  C2  UNL     1      84.702  61.136  14.739  1.00  0.00     0.027 A 
HETATM   16  C1  UNL     1      84.256  62.142  15.801  1.00  0.00     0.070 C 
HETATM   17  N1  UNL     1      85.886  60.588  14.748  1.00  0.00    -0.340 N 
HETATM   18  C3  UNL     1      86.202  59.714  13.800  1.00  0.00     0.143 A 
ATOM     19  H1  UNL     1      86.561  60.828  15.474  1.00  0.00     0.168 HD
HETATM   20  S1  UNL     1      84.793  59.650  12.851  1.00  0.00    -0.050 SA
BRANCH  18  21
HETATM   21  N2  UNL     1      87.344  59.074  13.661  1.00  0.00    -0.380 N 
ATOM     22  H22 UNL     1      87.645  58.180  14.050  1.00  0.00     0.158 HD
ATOM     23  H21 UNL     1      88.154  59.374  13.119  1.00  0.00     0.158 HD
ENDBRANCH  18  21
ENDBRANCH  11  14
ENDBRANCH   7   8
ENDBRANCH   1   7
BRANCH   6  24
HETATM   24  S3  UNL     1      76.763  62.602  11.857  1.00  0.00     0.138 S 
HETATM   25  O3  UNL     1      76.896  61.512  12.914  1.00  0.00    -0.591 OA
HETATM   26  O4  UNL     1      75.309  63.034  12.004  1.00  0.00    -0.591 OA
HETATM   27  O5  UNL     1      76.862  61.919  10.340  1.00  0.00    -0.591 OA
ENDBRANCH   6  24
BRANCH   4  28
HETATM   28  C13 UNL     1      77.079  67.465  13.301  1.00  0.00    -0.026 A 
HETATM   29  C14 UNL     1      76.434  67.622  14.505  1.00  0.00     0.014 A 
HETATM   30  C15 UNL     1      75.762  68.770  14.852  1.00  0.00     0.026 A 
HETATM   31  C16 UNL     1      75.712  69.839  13.975  1.00  0.00     0.079 A 
HETATM   32  C17 UNL     1      76.355  69.710  12.748  1.00  0.00     0.026 A 
HETATM   33  C18 UNL     1      77.021  68.546  12.430  1.00  0.00     0.014 A 
BRANCH  31  34
HETATM   34  S2  UNL     1      74.879  71.309  14.407  1.00  0.00     0.256 S 
HETATM   35  O1  UNL     1      74.929  72.278  13.264  1.00  0.00    -0.201 OA
HETATM   36  O2  UNL     1      73.471  71.041  14.846  1.00  0.00    -0.201 OA
BRANCH  34  37
HETATM   37  N4  UNL     1      75.718  72.043  15.726  1.00  0.00    -0.324 N 
ATOM     38  H42 UNL     1      75.807  73.048  15.876  1.00  0.00     0.169 HD
ATOM     39  H41 UNL     1      76.101  71.303  16.315  1.00  0.00     0.169 HD
ENDBRANCH  34  37
ENDBRANCH  31  34
ENDBRANCH   4  28
TORSDOF 8
ENDMDL
MODEL 5
REMARK VINA RESULT: -7.316991915      7.044      8.998
REMARK  8 active torsions:
REMARK  status: ('A' for Active; 'I' for Inactive)
REMARK    1  A    between atoms: C3_5  and  N2_6 
REMARK    2  A    between atoms: C4_10  and  C5_11 
REMARK    3  A    between atoms: N3_14  and  C8_15 
REMARK    4  A    between atoms: C8_15  and  C9_16 
REMARK    5  A    between atoms: C12_19  and  C13_20 
REMARK    6  A    between atoms: C16_23  and  S2_24 
REMARK    7  A    between atoms: S2_24  and  N4_25 
REMARK    8  A    between atoms: C20_33  and  S3_34 
ROOT
HETATM    1  C9  UNL     1      85.895  60.109   9.120  1.00  0.00    -0.014 A 
HETATM    2  C10 UNL     1      85.419  60.742   7.935  1.00  0.00     0.011 A 
HETATM    3  C11 UNL     1      85.830  61.972   7.530  1.00  0.00     0.013 A 
HETATM    4  C12 UNL     1      86.757  62.649   8.305  1.00  0.00    -0.024 A 
HETATM    5  C19 UNL     1      87.214  62.042   9.441  1.00  0.00     0.039 A 
HETATM    6  C20 UNL     1      86.801  60.767   9.876  1.00  0.00     0.089 A 
ENDROOT
BRANCH   1   7
HETATM    7  C8  UNL     1      85.321  58.816   9.462  1.00  0.00     0.188 C 
BRANCH   7   8
HETATM    8  N3  UNL     1      84.494  58.745  10.635  1.00  0.00    -0.299 N 
HETATM    9  C7  UNL     1      84.266  57.762  11.480  1.00  0.00     0.113 A 
HETATM   10  C6  UNL     1      83.400  58.223  12.443  1.00  0.00     0.051 A 
HETATM   11  C5  UNL     1      83.110  59.555  12.134  1.00  0.00     0.068 A 
HETATM   12  N5  UNL     1      83.789  59.821  11.044  1.00  0.00    -0.297 N 
ATOM     13  H5  UNL     1      83.784  60.722  10.567  1.00  0.00     0.187 HD
BRANCH  11  14
HETATM   14  C4  UNL     1      82.199  60.379  12.934  1.00  0.00     0.058 A 
HETATM   15  C2  UNL     1      82.398  61.310  13.914  1.00  0.00     0.027 A 
HETATM   16  C1  UNL     1      83.825  61.662  14.332  1.00  0.00     0.070 C 
HETATM   17  N1  UNL     1      81.351  61.873  14.453  1.00  0.00    -0.340 N 
HETATM   18  C3  UNL     1      80.141  61.525  14.032  1.00  0.00     0.143 A 
ATOM     19  H1  UNL     1      81.461  62.571  15.188  1.00  0.00     0.168 HD
HETATM   20  S1  UNL     1      80.468  60.363  12.836  1.00  0.00    -0.050 SA
BRANCH  18  21
HETATM   21  N2  UNL     1      78.987  61.990  14.465  1.00  0.00    -0.380 N 
ATOM     22  H22 UNL     1      78.241  62.466  13.958  1.00  0.00     0.158 HD
ATOM     23  H21 UNL     1      78.629  61.952  15.419  1.00  0.00     0.158 HD
ENDBRANCH  18  21
ENDBRANCH  11  14
ENDBRANCH   7   8
ENDBRANCH   1   7
BRANCH   6  24
HETATM   24  S3  UNL     1      87.518  60.183  11.303  1.00  0.00     0.138 S 
HETATM   25  O3  UNL     1      88.113  58.789  11.134  1.00  0.00    -0.591 OA
HETATM   26  O4  UNL     1      88.741  61.031  11.631  1.00  0.00    -0.591 OA
HETATM   27  O5  UNL     1      86.579  60.221  12.680  1.00  0.00    -0.591 OA
ENDBRANCH   6  24
BRANCH   4  28
HETATM   28  C13 UNL     1      87.218  63.975   7.932  1.00  0.00    -0.026 A 
HETATM   29  C14 UNL     1      88.451  64.262   7.394  1.00  0.00     0.014 A 
HETATM   30  C15 UNL     1      88.841  65.535   7.053  1.00  0.00     0.026 A 
HETATM   31  C16 UNL     1      87.981  66.602   7.244  1.00  0.00     0.079 A 
HETATM   32  C17 UNL     1      86.727  66.343   7.787  1.00  0.00     0.026 A 
HETATM   33  C18 UNL     1      86.365  65.054   8.119  1.00  0.00     0.014 A 
BRANCH  31  34
HETATM   34  S2  UNL     1      88.455  68.221   6.800  1.00  0.00     0.256 S 
HETATM   35  O1  UNL     1      87.237  69.078   6.625  1.00  0.00    -0.201 OA
HETATM   36  O2  UNL     1      89.411  68.811   7.792  1.00  0.00    -0.201 OA
BRANCH  34  37
HETATM   37  N4  UNL     1      89.248  68.154   5.268  1.00  0.00    -0.324 N 
ATOM     38  H42 UNL     1      89.255  67.345   4.647  1.00  0.00     0.169 HD
ATOM     39  H41 UNL     1      89.698  69.054   5.099  1.00  0.00     0.169 HD
ENDBRANCH  34  37
ENDBRANCH  31  34
ENDBRANCH   4  28
TORSDOF 8
ENDMDL
