MODEL 1
REMARK VINA RESULT: -8.784899520      0.000      0.000
REMARK  13 active torsions:
REMARK  status: ('A' for Active; 'I' for Inactive)
REMARK    1  A    between atoms: C2_2  and  C3_3 
REMARK    2  A    between atoms: C3_3  and  C4_4 
REMARK    3  A    between atoms: C4_4  and  C5_5 
REMARK    4  A    between atoms: C7_7  and  C8_8 
REMARK    5  A    between atoms: C8_8  and  C9_9 
REMARK    6  A    between atoms: C9_9  and  C10_10 
REMARK    7  A    between atoms: C12_12  and  C13_13 
REMARK    8  A    between atoms: C13_13  and  C14_14 
REMARK    9  A    between atoms: C14_14  and  C15_15 
REMARK   10  A    between atoms: C15_15  and  C17_17 
REMARK   11  A    between atoms: C23_24  and  C24_25 
REMARK   12  A    between atoms: C24_25  and  C25_26 
REMARK   13  A    between atoms: C25_26  and  N1_27 
ROOT
HETATM    1  C17 UNL     1      15.341  17.712  10.182  1.00  0.00     0.117 C 
HETATM    2  C18 UNL     1      16.097  16.699   9.353  1.00  0.00     0.052 C 
HETATM    3  C19 UNL     1      14.200  18.344   9.484  1.00  0.00     0.212 C 
HETATM    4  O1  UNL     1      14.396  19.645   9.080  1.00  0.00    -0.348 OA
HETATM    5  C20 UNL     1      15.274  20.366   9.866  1.00  0.00     0.219 C 
HETATM    6  C21 UNL     1      16.582  20.496   9.120  1.00  0.00     0.076 C 
HETATM    7  C22 UNL     1      16.714  21.755   8.329  1.00  0.00     0.037 C 
HETATM    8  C23 UNL     1      16.131  22.965   9.036  1.00  0.00     0.123 C 
HETATM    9  O2  UNL     1      14.791  22.672   9.298  1.00  0.00    -0.380 OA
HETATM   10  C27 UNL     1      14.701  21.700  10.292  1.00  0.00     0.239 C 
HETATM   11  O3  UNL     1      15.576  19.679  11.065  1.00  0.00    -0.197 OA
HETATM   12  O4  UNL     1      16.275  18.618  10.677  1.00  0.00    -0.224 OA
ENDROOT
BRANCH   1  13
HETATM   13  C15 UNL     1      14.808  16.967  11.421  1.00  0.00     0.021 C 
HETATM   14  C16 UNL     1      13.510  16.327  11.095  1.00  0.00     0.013 C 
BRANCH  13  15
HETATM   15  C14 UNL     1      15.907  16.103  11.896  1.00  0.00     0.011 C 
BRANCH  15  16
HETATM   16  C13 UNL     1      16.361  16.246  13.300  1.00  0.00     0.028 C 
BRANCH  16  17
HETATM   17  C12 UNL     1      15.286  16.575  14.261  1.00  0.00    -0.024 C 
HETATM   18  C10 UNL     1      14.340  15.791  14.686  1.00  0.00    -0.087 C 
HETATM   19  C11 UNL     1      13.331  16.314  15.670  1.00  0.00     0.043 C 
BRANCH  18  20
HETATM   20  C9  UNL     1      14.187  14.407  14.258  1.00  0.00     0.037 C 
BRANCH  20  21
HETATM   21  C8  UNL     1      12.982  13.767  14.948  1.00  0.00     0.031 C 
BRANCH  21  22
HETATM   22  C7  UNL     1      12.144  13.194  13.908  1.00  0.00    -0.024 C 
HETATM   23  C5  UNL     1      10.847  13.362  13.817  1.00  0.00    -0.087 C 
HETATM   24  C6  UNL     1      10.110  12.742  12.633  1.00  0.00     0.043 C 
BRANCH  23  25
HETATM   25  C4  UNL     1      10.095  14.161  14.772  1.00  0.00     0.033 C 
BRANCH  25  26
HETATM   26  C3  UNL     1       8.831  13.580  15.315  1.00  0.00     0.004 C 
BRANCH  26  27
HETATM   27  C2  UNL     1       8.779  13.281  16.766  1.00  0.00    -0.004 C 
HETATM   28  C1  UNL     1      10.160  12.848  17.286  1.00  0.00     0.005 C 
ENDBRANCH  26  27
ENDBRANCH  25  26
ENDBRANCH  23  25
ENDBRANCH  21  22
ENDBRANCH  20  21
ENDBRANCH  18  20
ENDBRANCH  16  17
ENDBRANCH  15  16
ENDBRANCH  13  15
ENDBRANCH   1  13
BRANCH   8  29
HETATM   29  C24 UNL     1      16.190  24.123   8.081  1.00  0.00     0.051 C 
BRANCH  29  30
HETATM   30  C25 UNL     1      17.297  23.965   7.068  1.00  0.00     0.115 C 
BRANCH  30  31
HETATM   31  N1  UNL     1      17.221  24.865   5.969  1.00  0.00    -0.425 N 
HETATM   32  C26 UNL     1      17.449  24.312   4.682  1.00  0.00     0.139 C 
ATOM     33  H1  UNL     1      17.013  25.855   6.099  1.00  0.00     0.152 HD
ENDBRANCH  30  31
ENDBRANCH  29  30
ENDBRANCH   8  29
TORSDOF 13
ENDMDL
MODEL 2
REMARK VINA RESULT: -8.752635616      4.383      9.695
REMARK  13 active torsions:
REMARK  status: ('A' for Active; 'I' for Inactive)
REMARK    1  A    between atoms: C2_2  and  C3_3 
REMARK    2  A    between atoms: C3_3  and  C4_4 
REMARK    3  A    between atoms: C4_4  and  C5_5 
REMARK    4  A    between atoms: C7_7  and  C8_8 
REMARK    5  A    between atoms: C8_8  and  C9_9 
REMARK    6  A    between atoms: C9_9  and  C10_10 
REMARK    7  A    between atoms: C12_12  and  C13_13 
REMARK    8  A    between atoms: C13_13  and  C14_14 
REMARK    9  A    between atoms: C14_14  and  C15_15 
REMARK   10  A    between atoms: C15_15  and  C17_17 
REMARK   11  A    between atoms: C23_24  and  C24_25 
REMARK   12  A    between atoms: C24_25  and  C25_26 
REMARK   13  A    between atoms: C25_26  and  N1_27 
ROOT
HETATM    1  C17 UNL     1      15.616  17.242  10.264  1.00  0.00     0.117 C 
HETATM    2  C18 UNL     1      16.460  16.709   9.128  1.00  0.00     0.052 C 
HETATM    3  C19 UNL     1      16.229  18.365  11.006  1.00  0.00     0.212 C 
HETATM    4  O1  UNL     1      16.722  18.056  12.254  1.00  0.00    -0.348 OA
HETATM    5  C20 UNL     1      16.070  17.016  12.889  1.00  0.00     0.219 C 
HETATM    6  C21 UNL     1      16.951  15.791  12.820  1.00  0.00     0.076 C 
HETATM    7  C22 UNL     1      17.820  15.591  14.017  1.00  0.00     0.037 C 
HETATM    8  C23 UNL     1      17.125  15.942  15.319  1.00  0.00     0.123 C 
HETATM    9  O2  UNL     1      16.713  17.271  15.212  1.00  0.00    -0.380 OA
HETATM   10  C27 UNL     1      15.662  17.372  14.302  1.00  0.00     0.239 C 
HETATM   11  O3  UNL     1      14.872  16.673  12.221  1.00  0.00    -0.197 OA
HETATM   12  O4  UNL     1      15.270  16.156  11.063  1.00  0.00    -0.224 OA
ENDROOT
BRANCH   1  13
HETATM   13  C15 UNL     1      14.290  17.726   9.646  1.00  0.00     0.021 C 
HETATM   14  C16 UNL     1      13.188  16.830  10.072  1.00  0.00     0.013 C 
BRANCH  13  15
HETATM   15  C14 UNL     1      14.179  19.164   9.964  1.00  0.00     0.011 C 
BRANCH  15  16
HETATM   16  C13 UNL     1      12.887  19.845   9.710  1.00  0.00     0.028 C 
BRANCH  16  17
HETATM   17  C12 UNL     1      12.802  21.220  10.249  1.00  0.00    -0.024 C 
HETATM   18  C10 UNL     1      13.148  22.323   9.652  1.00  0.00    -0.087 C 
HETATM   19  C11 UNL     1      12.987  23.634  10.371  1.00  0.00     0.043 C 
BRANCH  18  20
HETATM   20  C9  UNL     1      13.697  22.373   8.304  1.00  0.00     0.037 C 
BRANCH  20  21
HETATM   21  C8  UNL     1      15.143  22.870   8.337  1.00  0.00     0.031 C 
BRANCH  21  22
HETATM   22  C7  UNL     1      16.000  21.715   8.132  1.00  0.00    -0.024 C 
HETATM   23  C5  UNL     1      17.310  21.759   8.066  1.00  0.00    -0.087 C 
HETATM   24  C6  UNL     1      18.079  20.451   7.904  1.00  0.00     0.043 C 
BRANCH  23  25
HETATM   25  C4  UNL     1      18.056  23.000   8.196  1.00  0.00     0.033 C 
BRANCH  25  26
HETATM   26  C3  UNL     1      18.529  23.657   6.941  1.00  0.00     0.004 C 
BRANCH  26  27
HETATM   27  C2  UNL     1      17.598  24.586   6.257  1.00  0.00    -0.004 C 
HETATM   28  C1  UNL     1      17.382  24.165   4.794  1.00  0.00     0.005 C 
ENDBRANCH  26  27
ENDBRANCH  25  26
ENDBRANCH  23  25
ENDBRANCH  21  22
ENDBRANCH  20  21
ENDBRANCH  18  20
ENDBRANCH  16  17
ENDBRANCH  15  16
ENDBRANCH  13  15
ENDBRANCH   1  13
BRANCH   8  29
HETATM   29  C24 UNL     1      18.144  15.844  16.420  1.00  0.00     0.051 C 
BRANCH  29  30
HETATM   30  C25 UNL     1      19.220  16.895  16.288  1.00  0.00     0.115 C 
BRANCH  30  31
HETATM   31  N1  UNL     1      18.948  18.104  16.986  1.00  0.00    -0.425 N 
HETATM   32  C26 UNL     1      20.056  18.954  17.235  1.00  0.00     0.139 C 
ATOM     33  H1  UNL     1      18.006  18.348  17.291  1.00  0.00     0.152 HD
ENDBRANCH  30  31
ENDBRANCH  29  30
ENDBRANCH   8  29
TORSDOF 13
ENDMDL
MODEL 3
REMARK VINA RESULT: -8.731090589      0.574      1.421
REMARK  13 active torsions:
REMARK  status: ('A' for Active; 'I' for Inactive)
REMARK    1  A    between atoms: C2_2  and  C3_3 
REMARK    2  A    between atoms: C3_3  and  C4_4 
REMARK    3  A    between atoms: C4_4  and  C5_5 
REMARK    4  A    between atoms: C7_7  and  C8_8 
REMARK    5  A    between atoms: C8_8  and  C9_9 
REMARK    6  A    between atoms: C9_9  and  C10_10 
REMARK    7  A    between atoms: C12_12  and  C13_13 
REMARK    8  A    between atoms: C13_13  and  C14_14 
REMARK    9  A    between atoms: C14_14  and  C15_15 
REMARK   10  A    between atoms: C15_15  and  C17_17 
REMARK   11  A    between atoms: C23_24  and  C24_25 
REMARK   12  A    between atoms: C24_25  and  C25_26 
REMARK   13  A    between atoms: C25_26  and  N1_27 
ROOT
HETATM    1  C17 UNL     1      15.320  17.624  10.234  1.00  0.00     0.117 C 
HETATM    2  C18 UNL     1      16.044  16.619   9.367  1.00  0.00     0.052 C 
HETATM    3  C19 UNL     1      14.145  18.251   9.591  1.00  0.00     0.212 C 
HETATM    4  O1  UNL     1      14.314  19.556   9.185  1.00  0.00    -0.348 OA
HETATM    5  C20 UNL     1      15.223  20.279   9.933  1.00  0.00     0.219 C 
HETATM    6  C21 UNL     1      16.494  20.420   9.129  1.00  0.00     0.076 C 
HETATM    7  C22 UNL     1      16.583  21.684   8.338  1.00  0.00     0.037 C 
HETATM    8  C23 UNL     1      16.025  22.886   9.076  1.00  0.00     0.123 C 
HETATM    9  O2  UNL     1      14.700  22.584   9.397  1.00  0.00    -0.380 OA
HETATM   10  C27 UNL     1      14.661  21.608  10.391  1.00  0.00     0.239 C 
HETATM   11  O3  UNL     1      15.583  19.589  11.114  1.00  0.00    -0.197 OA
HETATM   12  O4  UNL     1      16.270  18.534  10.690  1.00  0.00    -0.224 OA
ENDROOT
BRANCH   1  13
HETATM   13  C15 UNL     1      14.848  16.870  11.493  1.00  0.00     0.021 C 
HETATM   14  C16 UNL     1      13.543  16.221  11.222  1.00  0.00     0.013 C 
BRANCH  13  15
HETATM   15  C14 UNL     1      15.975  16.015  11.916  1.00  0.00     0.011 C 
BRANCH  15  16
HETATM   16  C13 UNL     1      16.355  16.005  13.349  1.00  0.00     0.028 C 
BRANCH  16  17
HETATM   17  C12 UNL     1      15.278  16.424  14.272  1.00  0.00    -0.024 C 
HETATM   18  C10 UNL     1      14.318  15.688  14.749  1.00  0.00    -0.087 C 
HETATM   19  C11 UNL     1      13.309  16.301  15.681  1.00  0.00     0.043 C 
BRANCH  18  20
HETATM   20  C9  UNL     1      14.150  14.276  14.432  1.00  0.00     0.037 C 
BRANCH  20  21
HETATM   21  C8  UNL     1      12.681  13.970  14.136  1.00  0.00     0.031 C 
BRANCH  21  22
HETATM   22  C7  UNL     1      12.105  13.416  15.350  1.00  0.00    -0.024 C 
HETATM   23  C5  UNL     1      10.823  13.405  15.631  1.00  0.00    -0.087 C 
HETATM   24  C6  UNL     1      10.363  12.735  16.923  1.00  0.00     0.043 C 
BRANCH  23  25
HETATM   25  C4  UNL     1       9.823  13.958  14.732  1.00  0.00     0.033 C 
BRANCH  25  26
HETATM   26  C3  UNL     1       8.557  13.187  14.550  1.00  0.00     0.004 C 
BRANCH  26  27
HETATM   27  C2  UNL     1       8.162  12.829  13.167  1.00  0.00    -0.004 C 
HETATM   28  C1  UNL     1       9.325  12.150  12.424  1.00  0.00     0.005 C 
ENDBRANCH  26  27
ENDBRANCH  25  26
ENDBRANCH  23  25
ENDBRANCH  21  22
ENDBRANCH  20  21
ENDBRANCH  18  20
ENDBRANCH  16  17
ENDBRANCH  15  16
ENDBRANCH  13  15
ENDBRANCH   1  13
BRANCH   8  29
HETATM   29  C24 UNL     1      16.033  24.049   8.124  1.00  0.00     0.051 C 
BRANCH  29  30
HETATM   30  C25 UNL     1      17.281  24.077   7.277  1.00  0.00     0.115 C 
BRANCH  30  31
HETATM   31  N1  UNL     1      17.134  24.760   6.037  1.00  0.00    -0.425 N 
HETATM   32  C26 UNL     1      17.514  24.046   4.872  1.00  0.00     0.139 C 
ATOM     33  H1  UNL     1      16.775  25.713   5.989  1.00  0.00     0.152 HD
ENDBRANCH  30  31
ENDBRANCH  29  30
ENDBRANCH   8  29
TORSDOF 13
ENDMDL
MODEL 4
REMARK VINA RESULT: -8.601468886      4.508      9.343
REMARK  13 active torsions:
REMARK  status: ('A' for Active; 'I' for Inactive)
REMARK    1  A    between atoms: C2_2  and  C3_3 
REMARK    2  A    between atoms: C3_3  and  C4_4 
REMARK    3  A    between atoms: C4_4  and  C5_5 
REMARK    4  A    between atoms: C7_7  and  C8_8 
REMARK    5  A    between atoms: C8_8  and  C9_9 
REMARK    6  A    between atoms: C9_9  and  C10_10 
REMARK    7  A    between atoms: C12_12  and  C13_13 
REMARK    8  A    between atoms: C13_13  and  C14_14 
REMARK    9  A    between atoms: C14_14  and  C15_15 
REMARK   10  A    between atoms: C15_15  and  C17_17 
REMARK   11  A    between atoms: C23_24  and  C24_25 
REMARK   12  A    between atoms: C24_25  and  C25_26 
REMARK   13  A    between atoms: C25_26  and  N1_27 
ROOT
HETATM    1  C17 UNL     1      15.752  17.167  10.419  1.00  0.00     0.117 C 
HETATM    2  C18 UNL     1      16.570  16.555   9.304  1.00  0.00     0.052 C 
HETATM    3  C19 UNL     1      16.451  18.229  11.177  1.00  0.00     0.212 C 
HETATM    4  O1  UNL     1      16.881  17.876  12.436  1.00  0.00    -0.348 OA
HETATM    5  C20 UNL     1      16.119  16.904  13.054  1.00  0.00     0.219 C 
HETATM    6  C21 UNL     1      16.881  15.600  13.006  1.00  0.00     0.076 C 
HETATM    7  C22 UNL     1      17.697  15.321  14.224  1.00  0.00     0.037 C 
HETATM    8  C23 UNL     1      17.007  15.738  15.509  1.00  0.00     0.123 C 
HETATM    9  O2  UNL     1      16.725  17.100  15.392  1.00  0.00    -0.380 OA
HETATM   10  C27 UNL     1      15.712  17.299  14.457  1.00  0.00     0.239 C 
HETATM   11  O3  UNL     1      14.910  16.675  12.356  1.00  0.00    -0.197 OA
HETATM   12  O4  UNL     1      15.286  16.120  11.209  1.00  0.00    -0.224 OA
ENDROOT
BRANCH   1  13
HETATM   13  C15 UNL     1      14.494  17.774   9.769  1.00  0.00     0.021 C 
HETATM   14  C16 UNL     1      13.332  16.888  10.017  1.00  0.00     0.013 C 
BRANCH  13  15
HETATM   15  C14 UNL     1      14.413  19.173  10.235  1.00  0.00     0.011 C 
BRANCH  15  16
HETATM   16  C13 UNL     1      13.799  20.181   9.339  1.00  0.00     0.028 C 
BRANCH  16  17
HETATM   17  C12 UNL     1      12.671  20.928   9.938  1.00  0.00    -0.024 C 
HETATM   18  C10 UNL     1      12.685  22.148  10.388  1.00  0.00    -0.087 C 
HETATM   19  C11 UNL     1      11.428  22.737  10.966  1.00  0.00     0.043 C 
BRANCH  18  20
HETATM   20  C9  UNL     1      13.865  23.001  10.370  1.00  0.00     0.037 C 
BRANCH  20  21
HETATM   21  C8  UNL     1      14.006  23.685   9.009  1.00  0.00     0.031 C 
BRANCH  21  22
HETATM   22  C7  UNL     1      15.377  24.156   8.904  1.00  0.00    -0.024 C 
HETATM   23  C5  UNL     1      16.320  23.562   8.212  1.00  0.00    -0.087 C 
HETATM   24  C6  UNL     1      17.701  24.210   8.151  1.00  0.00     0.043 C 
BRANCH  23  25
HETATM   25  C4  UNL     1      16.083  22.342   7.459  1.00  0.00     0.033 C 
BRANCH  25  26
HETATM   26  C3  UNL     1      17.180  21.329   7.422  1.00  0.00     0.004 C 
BRANCH  26  27
HETATM   27  C2  UNL     1      17.481  20.594   8.674  1.00  0.00    -0.004 C 
HETATM   28  C1  UNL     1      18.614  19.578   8.452  1.00  0.00     0.005 C 
ENDBRANCH  26  27
ENDBRANCH  25  26
ENDBRANCH  23  25
ENDBRANCH  21  22
ENDBRANCH  20  21
ENDBRANCH  18  20
ENDBRANCH  16  17
ENDBRANCH  15  16
ENDBRANCH  13  15
ENDBRANCH   1  13
BRANCH   8  29
HETATM   29  C24 UNL     1      17.985  15.547  16.634  1.00  0.00     0.051 C 
BRANCH  29  30
HETATM   30  C25 UNL     1      19.105  16.557  16.588  1.00  0.00     0.115 C 
BRANCH  30  31
HETATM   31  N1  UNL     1      18.947  17.650  17.484  1.00  0.00    -0.425 N 
HETATM   32  C26 UNL     1      19.742  18.798  17.230  1.00  0.00     0.139 C 
ATOM     33  H1  UNL     1      18.296  17.612  18.268  1.00  0.00     0.152 HD
ENDBRANCH  30  31
ENDBRANCH  29  30
ENDBRANCH   8  29
TORSDOF 13
ENDMDL
MODEL 5
REMARK VINA RESULT: -8.525947049      3.356      6.426
REMARK  13 active torsions:
REMARK  status: ('A' for Active; 'I' for Inactive)
REMARK    1  A    between atoms: C2_2  and  C3_3 
REMARK    2  A    between atoms: C3_3  and  C4_4 
REMARK    3  A    between atoms: C4_4  and  C5_5 
REMARK    4  A    between atoms: C7_7  and  C8_8 
REMARK    5  A    between atoms: C8_8  and  C9_9 
REMARK    6  A    between atoms: C9_9  and  C10_10 
REMARK    7  A    between atoms: C12_12  and  C13_13 
REMARK    8  A    between atoms: C13_13  and  C14_14 
REMARK    9  A    between atoms: C14_14  and  C15_15 
REMARK   10  A    between atoms: C15_15  and  C17_17 
REMARK   11  A    between atoms: C23_24  and  C24_25 
REMARK   12  A    between atoms: C24_25  and  C25_26 
REMARK   13  A    between atoms: C25_26  and  N1_27 
ROOT
HETATM    1  C17 UNL     1      15.718  17.987  10.265  1.00  0.00     0.117 C 
HETATM    2  C18 UNL     1      16.303  16.840   9.472  1.00  0.00     0.052 C 
HETATM    3  C19 UNL     1      14.536  18.620   9.641  1.00  0.00     0.212 C 
HETATM    4  O1  UNL     1      14.753  19.854   9.070  1.00  0.00    -0.348 OA
HETATM    5  C20 UNL     1      15.764  20.590   9.657  1.00  0.00     0.219 C 
HETATM    6  C21 UNL     1      16.971  20.547   8.749  1.00  0.00     0.076 C 
HETATM    7  C22 UNL     1      17.074  21.702   7.809  1.00  0.00     0.037 C 
HETATM    8  C23 UNL     1      16.656  23.018   8.438  1.00  0.00     0.123 C 
HETATM    9  O2  UNL     1      15.346  22.851   8.891  1.00  0.00    -0.380 OA
HETATM   10  C27 UNL     1      15.328  22.000   9.994  1.00  0.00     0.239 C 
HETATM   11  O3  UNL     1      16.176  20.015  10.882  1.00  0.00    -0.197 OA
HETATM   12  O4  UNL     1      16.758  18.872  10.536  1.00  0.00    -0.224 OA
ENDROOT
BRANCH   1  13
HETATM   13  C15 UNL     1      15.305  17.417  11.636  1.00  0.00     0.021 C 
HETATM   14  C16 UNL     1      14.297  16.348  11.445  1.00  0.00     0.013 C 
BRANCH  13  15
HETATM   15  C14 UNL     1      16.557  17.074  12.341  1.00  0.00     0.011 C 
BRANCH  15  16
HETATM   16  C13 UNL     1      16.464  16.337  13.624  1.00  0.00     0.028 C 
BRANCH  16  17
HETATM   17  C12 UNL     1      17.587  15.409  13.880  1.00  0.00    -0.024 C 
HETATM   18  C10 UNL     1      18.240  15.250  14.994  1.00  0.00    -0.087 C 
HETATM   19  C11 UNL     1      19.361  14.250  15.058  1.00  0.00     0.043 C 
BRANCH  18  20
HETATM   20  C9  UNL     1      17.951  15.997  16.211  1.00  0.00     0.037 C 
BRANCH  20  21
HETATM   21  C8  UNL     1      19.183  16.030  17.118  1.00  0.00     0.031 C 
BRANCH  21  22
HETATM   22  C7  UNL     1      19.482  17.426  17.386  1.00  0.00    -0.024 C 
HETATM   23  C5  UNL     1      20.363  18.140  16.728  1.00  0.00    -0.087 C 
HETATM   24  C6  UNL     1      20.527  19.615  17.088  1.00  0.00     0.043 C 
BRANCH  23  25
HETATM   25  C4  UNL     1      21.149  17.594  15.633  1.00  0.00     0.033 C 
BRANCH  25  26
HETATM   26  C3  UNL     1      22.108  18.510  14.946  1.00  0.00     0.004 C 
BRANCH  26  27
HETATM   27  C2  UNL     1      22.701  18.053  13.667  1.00  0.00    -0.004 C 
HETATM   28  C1  UNL     1      23.329  19.231  12.903  1.00  0.00     0.005 C 
ENDBRANCH  26  27
ENDBRANCH  25  26
ENDBRANCH  23  25
ENDBRANCH  21  22
ENDBRANCH  20  21
ENDBRANCH  18  20
ENDBRANCH  16  17
ENDBRANCH  15  16
ENDBRANCH  13  15
ENDBRANCH   1  13
BRANCH   8  29
HETATM   29  C24 UNL     1      16.659  24.061   7.356  1.00  0.00     0.051 C 
BRANCH  29  30
HETATM   30  C25 UNL     1      17.211  23.527   6.058  1.00  0.00     0.115 C 
BRANCH  30  31
HETATM   31  N1  UNL     1      17.266  24.483   5.005  1.00  0.00    -0.425 N 
HETATM   32  C26 UNL     1      17.698  25.788   5.357  1.00  0.00     0.139 C 
ATOM     33  H1  UNL     1      17.008  24.243   4.048  1.00  0.00     0.152 HD
ENDBRANCH  30  31
ENDBRANCH  29  30
ENDBRANCH   8  29
TORSDOF 13
ENDMDL
