MODEL 1
REMARK VINA RESULT: -9.039742854      0.000      0.000
REMARK  15 active torsions:
REMARK  status: ('A' for Active; 'I' for Inactive)
REMARK    1  A    between atoms: C4_6  and  O3_8 
REMARK    2  A    between atoms: C6_10  and  C7_11 
REMARK    3  A    between atoms: C7_11  and  C8_12 
REMARK    4  A    between atoms: C9_13  and  C10_14 
REMARK    5  A    between atoms: C10_14  and  C11_15 
REMARK    6  A    between atoms: C12_16  and  C13_17 
REMARK    7  A    between atoms: C13_17  and  C14_18 
REMARK    8  A    between atoms: C15_19  and  C16_20 
REMARK    9  A    between atoms: C16_20  and  C17_21 
REMARK   10  A    between atoms: C18_22  and  C19_23 
REMARK   11  A    between atoms: C19_23  and  C20_24 
REMARK   12  A    between atoms: C20_24  and  C21_25 
REMARK   13  A    between atoms: C21_25  and  C22_26 
REMARK   14  A    between atoms: C22_26  and  C24_28 
REMARK   15  A    between atoms: C25_29  and  C26_30 
ROOT
HETATM    1  C14 UNL     1      17.412  15.727  12.222  1.00  0.00    -0.027 C 
HETATM    2  C15 UNL     1      17.078  15.992  13.433  1.00  0.00    -0.027 C 
ENDROOT
BRANCH   1   3
HETATM    3  C13 UNL     1      17.506  16.641  11.040  1.00  0.00     0.053 C 
BRANCH   3   4
HETATM    4  C12 UNL     1      16.507  16.303  10.021  1.00  0.00    -0.027 C 
HETATM    5  C11 UNL     1      15.431  16.976   9.723  1.00  0.00    -0.027 C 
BRANCH   5   6
HETATM    6  C10 UNL     1      15.010  18.213  10.358  1.00  0.00     0.053 C 
BRANCH   6   7
HETATM    7  C9  UNL     1      13.902  18.946   9.762  1.00  0.00    -0.027 C 
HETATM    8  C8  UNL     1      13.541  20.164   9.749  1.00  0.00    -0.029 C 
BRANCH   8   9
HETATM    9  C7  UNL     1      14.163  21.329  10.377  1.00  0.00     0.041 C 
BRANCH   9  10
HETATM   10  C6  UNL     1      14.596  22.309   9.290  1.00  0.00     0.090 C 
HETATM   11  C2  UNL     1      16.077  22.406   9.248  1.00  0.00     0.018 C 
HETATM   12  C1  UNL     1      16.969  21.436   9.375  1.00  0.00     0.025 C 
HETATM   13  C3  UNL     1      16.373  23.813   9.036  1.00  0.00     0.291 C 
HETATM   14  O1  UNL     1      17.557  24.253   8.835  1.00  0.00    -0.260 OA
HETATM   15  O2  UNL     1      15.191  24.523   9.096  1.00  0.00    -0.279 OA
HETATM   16  C4  UNL     1      14.159  23.705   9.589  1.00  0.00     0.175 C 
HETATM   17  C5  UNL     1      12.837  24.035   8.906  1.00  0.00     0.080 C 
BRANCH  16  18
HETATM   18  O3  UNL     1      14.015  23.811  10.971  1.00  0.00    -0.364 OA
ATOM     19  H3  UNL     1      14.843  23.977  11.408  1.00  0.00     0.213 HD
ENDBRANCH  16  18
ENDBRANCH   9  10
ENDBRANCH   8   9
ENDBRANCH   6   7
ENDBRANCH   5   6
ENDBRANCH   3   4
ENDBRANCH   1   3
BRANCH   2  20
HETATM   20  C16 UNL     1      16.701  17.327  13.925  1.00  0.00     0.053 C 
BRANCH  20  21
HETATM   21  C17 UNL     1      15.319  17.319  14.499  1.00  0.00    -0.027 C 
HETATM   22  C18 UNL     1      14.889  16.235  15.111  1.00  0.00    -0.030 C 
BRANCH  22  23
HETATM   23  C19 UNL     1      13.529  16.182  15.696  1.00  0.00     0.027 C 
BRANCH  23  24
HETATM   24  C20 UNL     1      12.885  14.845  15.350  1.00  0.00     0.004 C 
BRANCH  24  25
HETATM   25  C21 UNL     1      13.617  14.231  14.209  1.00  0.00     0.008 C 
BRANCH  25  26
HETATM   26  C22 UNL     1      12.779  14.086  12.979  1.00  0.00     0.004 C 
HETATM   27  C23 UNL     1      13.013  15.271  12.017  1.00  0.00     0.014 C 
BRANCH  26  28
HETATM   28  C24 UNL     1      11.319  14.076  13.215  1.00  0.00    -0.020 C 
HETATM   29  C25 UNL     1      10.556  13.021  13.145  1.00  0.00     0.028 C 
BRANCH  29  30
HETATM   30  C26 UNL     1       9.097  13.133  13.400  1.00  0.00     0.055 A 
HETATM   31  C27 UNL     1       8.477  13.326  14.610  1.00  0.00     0.172 A 
HETATM   32  O4  UNL     1       7.191  13.366  14.376  1.00  0.00    -0.316 OA
HETATM   33  C28 UNL     1       6.946  13.214  13.104  1.00  0.00     0.233 A 
HETATM   34  N1  UNL     1       8.120  13.067  12.477  1.00  0.00    -0.345 N 
ATOM     35  H1  UNL     1       8.252  12.929  11.475  1.00  0.00     0.167 HD
ENDBRANCH  29  30
ENDBRANCH  26  28
ENDBRANCH  25  26
ENDBRANCH  24  25
ENDBRANCH  23  24
ENDBRANCH  22  23
ENDBRANCH  20  21
ENDBRANCH   2  20
TORSDOF 15
ENDMDL
MODEL 2
REMARK VINA RESULT: -8.806308543      4.761      9.206
REMARK  15 active torsions:
REMARK  status: ('A' for Active; 'I' for Inactive)
REMARK    1  A    between atoms: C4_6  and  O3_8 
REMARK    2  A    between atoms: C6_10  and  C7_11 
REMARK    3  A    between atoms: C7_11  and  C8_12 
REMARK    4  A    between atoms: C9_13  and  C10_14 
REMARK    5  A    between atoms: C10_14  and  C11_15 
REMARK    6  A    between atoms: C12_16  and  C13_17 
REMARK    7  A    between atoms: C13_17  and  C14_18 
REMARK    8  A    between atoms: C15_19  and  C16_20 
REMARK    9  A    between atoms: C16_20  and  C17_21 
REMARK   10  A    between atoms: C18_22  and  C19_23 
REMARK   11  A    between atoms: C19_23  and  C20_24 
REMARK   12  A    between atoms: C20_24  and  C21_25 
REMARK   13  A    between atoms: C21_25  and  C22_26 
REMARK   14  A    between atoms: C22_26  and  C24_28 
REMARK   15  A    between atoms: C25_29  and  C26_30 
ROOT
HETATM    1  C14 UNL     1      13.306  16.204  15.607  1.00  0.00    -0.027 C 
HETATM    2  C15 UNL     1      12.531  15.455  14.911  1.00  0.00    -0.027 C 
ENDROOT
BRANCH   1   3
HETATM    3  C13 UNL     1      14.802  16.286  15.607  1.00  0.00     0.053 C 
BRANCH   3   4
HETATM    4  C12 UNL     1      15.286  17.225  14.591  1.00  0.00    -0.027 C 
HETATM    5  C11 UNL     1      16.154  16.983  13.648  1.00  0.00    -0.027 C 
BRANCH   5   6
HETATM    6  C10 UNL     1      16.818  15.711  13.423  1.00  0.00     0.053 C 
BRANCH   6   7
HETATM    7  C9  UNL     1      18.185  15.558  13.901  1.00  0.00    -0.027 C 
HETATM    8  C8  UNL     1      18.860  16.060  14.853  1.00  0.00    -0.029 C 
BRANCH   8   9
HETATM    9  C7  UNL     1      18.461  17.037  15.867  1.00  0.00     0.041 C 
BRANCH   9  10
HETATM   10  C6  UNL     1      19.511  17.063  16.973  1.00  0.00     0.090 C 
HETATM   11  C2  UNL     1      18.916  16.610  18.255  1.00  0.00     0.018 C 
HETATM   12  C1  UNL     1      18.055  15.626  18.461  1.00  0.00     0.025 C 
HETATM   13  C3  UNL     1      19.472  17.483  19.276  1.00  0.00     0.291 C 
HETATM   14  O1  UNL     1      19.265  17.311  20.527  1.00  0.00    -0.260 OA
HETATM   15  O2  UNL     1      20.215  18.466  18.655  1.00  0.00    -0.279 OA
HETATM   16  C4  UNL     1      19.976  18.451  17.269  1.00  0.00     0.175 C 
HETATM   17  C5  UNL     1      21.248  18.790  16.500  1.00  0.00     0.080 C 
BRANCH  16  18
HETATM   18  O3  UNL     1      18.954  19.322  16.899  1.00  0.00    -0.364 OA
ATOM     19  H3  UNL     1      18.589  19.786  17.644  1.00  0.00     0.213 HD
ENDBRANCH  16  18
ENDBRANCH   9  10
ENDBRANCH   8   9
ENDBRANCH   6   7
ENDBRANCH   5   6
ENDBRANCH   3   4
ENDBRANCH   1   3
BRANCH   2  20
HETATM   20  C16 UNL     1      12.988  14.471  13.916  1.00  0.00     0.053 C 
BRANCH  20  21
HETATM   21  C17 UNL     1      12.618  14.896  12.529  1.00  0.00    -0.027 C 
HETATM   22  C18 UNL     1      13.328  15.835  11.938  1.00  0.00    -0.030 C 
BRANCH  22  23
HETATM   23  C19 UNL     1      12.998  16.286  10.566  1.00  0.00     0.027 C 
BRANCH  23  24
HETATM   24  C20 UNL     1      14.138  17.144  10.031  1.00  0.00     0.004 C 
BRANCH  24  25
HETATM   25  C21 UNL     1      15.396  16.348  10.046  1.00  0.00     0.008 C 
BRANCH  25  26
HETATM   26  C22 UNL     1      16.538  17.037   9.370  1.00  0.00     0.004 C 
HETATM   27  C23 UNL     1      17.870  16.706  10.078  1.00  0.00     0.014 C 
BRANCH  26  28
HETATM   28  C24 UNL     1      16.468  18.514   9.373  1.00  0.00    -0.020 C 
HETATM   29  C25 UNL     1      17.496  19.313   9.300  1.00  0.00     0.028 C 
BRANCH  29  30
HETATM   30  C26 UNL     1      17.303  20.785   9.315  1.00  0.00     0.055 A 
HETATM   31  C27 UNL     1      16.153  21.471   9.622  1.00  0.00     0.172 A 
HETATM   32  O4  UNL     1      16.429  22.745   9.513  1.00  0.00    -0.316 OA
HETATM   33  C28 UNL     1      17.671  22.922   9.159  1.00  0.00     0.233 A 
HETATM   34  N1  UNL     1      18.235  21.713   9.031  1.00  0.00    -0.345 N 
ATOM     35  H1  UNL     1      19.203  21.528   8.764  1.00  0.00     0.167 HD
ENDBRANCH  29  30
ENDBRANCH  26  28
ENDBRANCH  25  26
ENDBRANCH  24  25
ENDBRANCH  23  24
ENDBRANCH  22  23
ENDBRANCH  20  21
ENDBRANCH   2  20
TORSDOF 15
ENDMDL
MODEL 3
REMARK VINA RESULT: -8.655630704      5.352     10.454
REMARK  15 active torsions:
REMARK  status: ('A' for Active; 'I' for Inactive)
REMARK    1  A    between atoms: C4_6  and  O3_8 
REMARK    2  A    between atoms: C6_10  and  C7_11 
REMARK    3  A    between atoms: C7_11  and  C8_12 
REMARK    4  A    between atoms: C9_13  and  C10_14 
REMARK    5  A    between atoms: C10_14  and  C11_15 
REMARK    6  A    between atoms: C12_16  and  C13_17 
REMARK    7  A    between atoms: C13_17  and  C14_18 
REMARK    8  A    between atoms: C15_19  and  C16_20 
REMARK    9  A    between atoms: C16_20  and  C17_21 
REMARK   10  A    between atoms: C18_22  and  C19_23 
REMARK   11  A    between atoms: C19_23  and  C20_24 
REMARK   12  A    between atoms: C20_24  and  C21_25 
REMARK   13  A    between atoms: C21_25  and  C22_26 
REMARK   14  A    between atoms: C22_26  and  C24_28 
REMARK   15  A    between atoms: C25_29  and  C26_30 
ROOT
HETATM    1  C14 UNL     1      16.587  17.391  12.381  1.00  0.00    -0.027 C 
HETATM    2  C15 UNL     1      16.071  17.011  13.493  1.00  0.00    -0.027 C 
ENDROOT
BRANCH   1   3
HETATM    3  C13 UNL     1      17.103  16.568  11.241  1.00  0.00     0.053 C 
BRANCH   3   4
HETATM    4  C12 UNL     1      16.504  16.982   9.969  1.00  0.00    -0.027 C 
HETATM    5  C11 UNL     1      15.354  16.604   9.482  1.00  0.00    -0.027 C 
BRANCH   5   6
HETATM    6  C10 UNL     1      14.432  15.683  10.122  1.00  0.00     0.053 C 
BRANCH   6   7
HETATM    7  C9  UNL     1      13.299  16.241  10.846  1.00  0.00    -0.027 C 
HETATM    8  C8  UNL     1      12.549  15.830  11.786  1.00  0.00    -0.029 C 
BRANCH   8   9
HETATM    9  C7  UNL     1      12.574  14.561  12.513  1.00  0.00     0.041 C 
BRANCH   9  10
HETATM   10  C6  UNL     1      11.337  14.472  13.402  1.00  0.00     0.090 C 
HETATM   11  C2  UNL     1      11.737  14.306  14.822  1.00  0.00     0.018 C 
HETATM   12  C1  UNL     1      12.730  14.894  15.471  1.00  0.00     0.025 C 
HETATM   13  C3  UNL     1      10.805  13.342  15.383  1.00  0.00     0.291 C 
HETATM   14  O1  UNL     1      10.780  13.039  16.626  1.00  0.00    -0.260 OA
HETATM   15  O2  UNL     1      10.011  12.857  14.364  1.00  0.00    -0.279 OA
HETATM   16  C4  UNL     1      10.529  13.249  13.117  1.00  0.00     0.175 C 
HETATM   17  C5  UNL     1       9.402  13.541  12.133  1.00  0.00     0.080 C 
BRANCH  16  18
HETATM   18  O3  UNL     1      11.391  12.296  12.578  1.00  0.00    -0.364 OA
ATOM     19  H3  UNL     1      11.715  11.691  13.236  1.00  0.00     0.213 HD
ENDBRANCH  16  18
ENDBRANCH   9  10
ENDBRANCH   8   9
ENDBRANCH   6   7
ENDBRANCH   5   6
ENDBRANCH   3   4
ENDBRANCH   1   3
BRANCH   2  20
HETATM   20  C16 UNL     1      15.873  15.607  13.888  1.00  0.00     0.053 C 
BRANCH  20  21
HETATM   21  C17 UNL     1      16.944  15.157  14.833  1.00  0.00    -0.027 C 
HETATM   22  C18 UNL     1      18.166  14.983  14.374  1.00  0.00    -0.030 C 
BRANCH  22  23
HETATM   23  C19 UNL     1      19.257  14.539  15.272  1.00  0.00     0.027 C 
BRANCH  23  24
HETATM   24  C20 UNL     1      19.720  15.716  16.122  1.00  0.00     0.004 C 
BRANCH  24  25
HETATM   25  C21 UNL     1      20.112  16.840  15.229  1.00  0.00     0.008 C 
BRANCH  25  26
HETATM   26  C22 UNL     1      21.482  17.369  15.510  1.00  0.00     0.004 C 
HETATM   27  C23 UNL     1      21.404  18.679  16.323  1.00  0.00     0.014 C 
BRANCH  26  28
HETATM   28  C24 UNL     1      22.276  17.717  14.313  1.00  0.00    -0.020 C 
HETATM   29  C25 UNL     1      22.754  18.900  14.049  1.00  0.00     0.028 C 
BRANCH  29  30
HETATM   30  C26 UNL     1      23.538  19.133  12.809  1.00  0.00     0.055 A 
HETATM   31  C27 UNL     1      24.783  19.705  12.708  1.00  0.00     0.172 A 
HETATM   32  O4  UNL     1      25.097  19.711  11.438  1.00  0.00    -0.316 OA
HETATM   33  C28 UNL     1      24.142  19.185  10.722  1.00  0.00     0.233 A 
HETATM   34  N1  UNL     1      23.161  18.818  11.557  1.00  0.00    -0.345 N 
ATOM     35  H1  UNL     1      22.281  18.376  11.290  1.00  0.00     0.167 HD
ENDBRANCH  29  30
ENDBRANCH  26  28
ENDBRANCH  25  26
ENDBRANCH  24  25
ENDBRANCH  23  24
ENDBRANCH  22  23
ENDBRANCH  20  21
ENDBRANCH   2  20
TORSDOF 15
ENDMDL
MODEL 4
REMARK VINA RESULT: -8.593434513      4.907      8.758
REMARK  15 active torsions:
REMARK  status: ('A' for Active; 'I' for Inactive)
REMARK    1  A    between atoms: C4_6  and  O3_8 
REMARK    2  A    between atoms: C6_10  and  C7_11 
REMARK    3  A    between atoms: C7_11  and  C8_12 
REMARK    4  A    between atoms: C9_13  and  C10_14 
REMARK    5  A    between atoms: C10_14  and  C11_15 
REMARK    6  A    between atoms: C12_16  and  C13_17 
REMARK    7  A    between atoms: C13_17  and  C14_18 
REMARK    8  A    between atoms: C15_19  and  C16_20 
REMARK    9  A    between atoms: C16_20  and  C17_21 
REMARK   10  A    between atoms: C18_22  and  C19_23 
REMARK   11  A    between atoms: C19_23  and  C20_24 
REMARK   12  A    between atoms: C20_24  and  C21_25 
REMARK   13  A    between atoms: C21_25  and  C22_26 
REMARK   14  A    between atoms: C22_26  and  C24_28 
REMARK   15  A    between atoms: C25_29  and  C26_30 
ROOT
HETATM    1  C14 UNL     1      14.301  15.930  14.977  1.00  0.00    -0.027 C 
HETATM    2  C15 UNL     1      15.268  16.716  14.668  1.00  0.00    -0.027 C 
ENDROOT
BRANCH   1   3
HETATM    3  C13 UNL     1      13.781  14.730  14.248  1.00  0.00     0.053 C 
BRANCH   3   4
HETATM    4  C12 UNL     1      12.499  15.014  13.596  1.00  0.00    -0.027 C 
HETATM    5  C11 UNL     1      12.313  15.417  12.370  1.00  0.00    -0.027 C 
BRANCH   5   6
HETATM    6  C10 UNL     1      13.364  15.664  11.398  1.00  0.00     0.053 C 
BRANCH   6   7
HETATM    7  C9  UNL     1      13.115  16.651  10.357  1.00  0.00    -0.027 C 
HETATM    8  C8  UNL     1      13.687  17.725   9.989  1.00  0.00    -0.029 C 
BRANCH   8   9
HETATM    9  C7  UNL     1      14.877  18.381  10.529  1.00  0.00     0.041 C 
BRANCH   9  10
HETATM   10  C6  UNL     1      15.840  18.686   9.386  1.00  0.00     0.090 C 
HETATM   11  C2  UNL     1      17.033  17.808   9.473  1.00  0.00     0.018 C 
HETATM   12  C1  UNL     1      17.090  16.525   9.793  1.00  0.00     0.025 C 
HETATM   13  C3  UNL     1      18.168  18.652   9.134  1.00  0.00     0.291 C 
HETATM   14  O1  UNL     1      19.357  18.199   8.998  1.00  0.00    -0.260 OA
HETATM   15  O2  UNL     1      17.722  19.951   9.001  1.00  0.00    -0.279 OA
HETATM   16  C4  UNL     1      16.406  20.064   9.483  1.00  0.00     0.175 C 
HETATM   17  C5  UNL     1      15.609  21.057   8.645  1.00  0.00     0.080 C 
BRANCH  16  18
HETATM   18  O3  UNL     1      16.365  20.439  10.825  1.00  0.00    -0.364 OA
ATOM     19  H3  UNL     1      15.861  21.232  10.962  1.00  0.00     0.213 HD
ENDBRANCH  16  18
ENDBRANCH   9  10
ENDBRANCH   8   9
ENDBRANCH   6   7
ENDBRANCH   5   6
ENDBRANCH   3   4
ENDBRANCH   1   3
BRANCH   2  20
HETATM   20  C16 UNL     1      16.104  16.582  13.464  1.00  0.00     0.053 C 
BRANCH  20  21
HETATM   21  C17 UNL     1      17.257  15.660  13.709  1.00  0.00    -0.027 C 
HETATM   22  C18 UNL     1      17.927  15.763  14.838  1.00  0.00    -0.030 C 
BRANCH  22  23
HETATM   23  C19 UNL     1      19.075  14.871  15.124  1.00  0.00     0.027 C 
BRANCH  23  24
HETATM   24  C20 UNL     1      20.136  15.648  15.893  1.00  0.00     0.004 C 
BRANCH  24  25
HETATM   25  C21 UNL     1      20.353  16.964  15.232  1.00  0.00     0.008 C 
BRANCH  25  26
HETATM   26  C22 UNL     1      21.525  17.714  15.780  1.00  0.00     0.004 C 
HETATM   27  C23 UNL     1      21.060  18.796  16.778  1.00  0.00     0.014 C 
BRANCH  26  28
HETATM   28  C24 UNL     1      22.323  18.449  14.775  1.00  0.00    -0.020 C 
HETATM   29  C25 UNL     1      22.563  18.037  13.562  1.00  0.00     0.028 C 
BRANCH  29  30
HETATM   30  C26 UNL     1      23.382  18.862  12.638  1.00  0.00     0.055 A 
HETATM   31  C27 UNL     1      23.204  19.020  11.285  1.00  0.00     0.172 A 
HETATM   32  O4  UNL     1      24.145  19.829  10.870  1.00  0.00    -0.316 OA
HETATM   33  C28 UNL     1      24.908  20.199  11.860  1.00  0.00     0.233 A 
HETATM   34  N1  UNL     1      24.451  19.608  12.972  1.00  0.00    -0.345 N 
ATOM     35  H1  UNL     1      24.844  19.706  13.908  1.00  0.00     0.167 HD
ENDBRANCH  29  30
ENDBRANCH  26  28
ENDBRANCH  25  26
ENDBRANCH  24  25
ENDBRANCH  23  24
ENDBRANCH  22  23
ENDBRANCH  20  21
ENDBRANCH   2  20
TORSDOF 15
ENDMDL
MODEL 5
REMARK VINA RESULT: -8.591141369      1.310      2.154
REMARK  15 active torsions:
REMARK  status: ('A' for Active; 'I' for Inactive)
REMARK    1  A    between atoms: C4_6  and  O3_8 
REMARK    2  A    between atoms: C6_10  and  C7_11 
REMARK    3  A    between atoms: C7_11  and  C8_12 
REMARK    4  A    between atoms: C9_13  and  C10_14 
REMARK    5  A    between atoms: C10_14  and  C11_15 
REMARK    6  A    between atoms: C12_16  and  C13_17 
REMARK    7  A    between atoms: C13_17  and  C14_18 
REMARK    8  A    between atoms: C15_19  and  C16_20 
REMARK    9  A    between atoms: C16_20  and  C17_21 
REMARK   10  A    between atoms: C18_22  and  C19_23 
REMARK   11  A    between atoms: C19_23  and  C20_24 
REMARK   12  A    between atoms: C20_24  and  C21_25 
REMARK   13  A    between atoms: C21_25  and  C22_26 
REMARK   14  A    between atoms: C22_26  and  C24_28 
REMARK   15  A    between atoms: C25_29  and  C26_30 
ROOT
HETATM    1  C14 UNL     1      17.223  15.797  12.353  1.00  0.00    -0.027 C 
HETATM    2  C15 UNL     1      17.542  15.638  13.586  1.00  0.00    -0.027 C 
ENDROOT
BRANCH   1   3
HETATM    3  C13 UNL     1      16.611  16.984  11.675  1.00  0.00     0.053 C 
BRANCH   3   4
HETATM    4  C12 UNL     1      16.199  16.663  10.305  1.00  0.00    -0.027 C 
HETATM    5  C11 UNL     1      16.911  16.794   9.220  1.00  0.00    -0.027 C 
BRANCH   5   6
HETATM    6  C10 UNL     1      18.274  17.292   9.164  1.00  0.00     0.053 C 
BRANCH   6   7
HETATM    7  C9  UNL     1      18.556  18.420   8.287  1.00  0.00    -0.027 C 
HETATM    8  C8  UNL     1      18.381  19.677   8.364  1.00  0.00    -0.029 C 
BRANCH   8   9
HETATM    9  C7  UNL     1      17.792  20.473   9.440  1.00  0.00     0.041 C 
BRANCH   9  10
HETATM   10  C6  UNL     1      16.552  21.187   8.910  1.00  0.00     0.090 C 
HETATM   11  C2  UNL     1      16.761  22.656   8.923  1.00  0.00     0.018 C 
HETATM   12  C1  UNL     1      17.853  23.334   8.606  1.00  0.00     0.025 C 
HETATM   13  C3  UNL     1      15.501  23.229   9.366  1.00  0.00     0.291 C 
HETATM   14  O1  UNL     1      15.278  24.489   9.389  1.00  0.00    -0.260 OA
HETATM   15  O2  UNL     1      14.657  22.200   9.731  1.00  0.00    -0.279 OA
HETATM   16  C4  UNL     1      15.370  20.990   9.801  1.00  0.00     0.175 C 
HETATM   17  C5  UNL     1      14.504  19.827   9.332  1.00  0.00     0.080 C 
BRANCH  16  18
HETATM   18  O3  UNL     1      15.851  20.733  11.083  1.00  0.00    -0.364 OA
ATOM     19  H3  UNL     1      15.180  20.838  11.748  1.00  0.00     0.213 HD
ENDBRANCH  16  18
ENDBRANCH   9  10
ENDBRANCH   8   9
ENDBRANCH   6   7
ENDBRANCH   5   6
ENDBRANCH   3   4
ENDBRANCH   1   3
BRANCH   2  20
HETATM   20  C16 UNL     1      17.357  16.652  14.637  1.00  0.00     0.053 C 
BRANCH  20  21
HETATM   21  C17 UNL     1      16.148  16.353  15.468  1.00  0.00    -0.027 C 
HETATM   22  C18 UNL     1      14.955  16.498  14.931  1.00  0.00    -0.030 C 
BRANCH  22  23
HETATM   23  C19 UNL     1      13.730  16.213  15.715  1.00  0.00     0.027 C 
BRANCH  23  24
HETATM   24  C20 UNL     1      13.074  14.946  15.179  1.00  0.00     0.004 C 
BRANCH  24  25
HETATM   25  C21 UNL     1      13.751  14.541  13.918  1.00  0.00     0.008 C 
BRANCH  25  26
HETATM   26  C22 UNL     1      12.811  14.388  12.765  1.00  0.00     0.004 C 
HETATM   27  C23 UNL     1      12.871  15.627  11.845  1.00  0.00     0.014 C 
BRANCH  26  28
HETATM   28  C24 UNL     1      11.385  14.262  13.133  1.00  0.00    -0.020 C 
HETATM   29  C25 UNL     1      10.635  13.225  12.883  1.00  0.00     0.028 C 
BRANCH  29  30
HETATM   30  C26 UNL     1       9.210  13.212  13.300  1.00  0.00     0.055 A 
HETATM   31  C27 UNL     1       8.717  13.294  14.580  1.00  0.00     0.172 A 
HETATM   32  O4  UNL     1       7.413  13.249  14.488  1.00  0.00    -0.316 OA
HETATM   33  C28 UNL     1       7.039  13.145  13.244  1.00  0.00     0.233 A 
HETATM   34  N1  UNL     1       8.143  13.120  12.486  1.00  0.00    -0.345 N 
ATOM     35  H1  UNL     1       8.171  13.045  11.469  1.00  0.00     0.167 HD
ENDBRANCH  29  30
ENDBRANCH  26  28
ENDBRANCH  25  26
ENDBRANCH  24  25
ENDBRANCH  23  24
ENDBRANCH  22  23
ENDBRANCH  20  21
ENDBRANCH   2  20
TORSDOF 15
ENDMDL
