MODEL 1
REMARK VINA RESULT: -9.367199867      0.000      0.000
REMARK  16 active torsions:
REMARK  status: ('A' for Active; 'I' for Inactive)
REMARK    1  A    between atoms: C2_2  and  C4_4 
REMARK    2  A    between atoms: C4_4  and  C26_30 
REMARK    3  A    between atoms: C5_5  and  C6_6 
REMARK    4  A    between atoms: C6_6  and  C7_7 
REMARK    5  A    between atoms: C7_7  and  C8_8 
REMARK    6  A    between atoms: C11_11  and  C12_12 
REMARK    7  A    between atoms: C12_12  and  C13_13 
REMARK    8  A    between atoms: C13_13  and  C15_15 
REMARK    9  A    between atoms: C17_17  and  C18_18 
REMARK   10  A    between atoms: C18_18  and  C19_19 
REMARK   11  A    between atoms: C20_20  and  C22_22 
REMARK   12  A    between atoms: C22_22  and  C23_23 
REMARK   13  A    between atoms: C23_23  and  C24_24 
REMARK   14  A    between atoms: C24_24  and  O2_26 
REMARK   15  A    between atoms: C26_30  and  O5_31 
REMARK   16  A    between atoms: C26_30  and  C27_33 
ROOT
HETATM    1  C8  UNL     1      13.224  15.428  13.982  1.00  0.00     0.114 C 
HETATM    2  C9  UNL     1      12.609  16.121  15.158  1.00  0.00     0.054 C 
HETATM    3  C10 UNL     1      14.623  15.936  13.851  1.00  0.00     0.049 C 
HETATM    4  C11 UNL     1      14.822  16.154  12.566  1.00  0.00     0.087 C 
HETATM    5  O3  UNL     1      13.612  15.803  11.939  1.00  0.00    -0.201 OA
HETATM    6  O4  UNL     1      12.620  15.943  12.828  1.00  0.00    -0.221 OA
ENDROOT
BRANCH   4   7
HETATM    7  C12 UNL     1      16.069  16.661  11.971  1.00  0.00     0.105 C 
BRANCH   7   8
HETATM    8  C13 UNL     1      15.890  17.113  10.580  1.00  0.00    -0.056 C 
HETATM    9  C14 UNL     1      16.237  16.380   9.554  1.00  0.00     0.020 C 
BRANCH   8  10
HETATM   10  C15 UNL     1      15.300  18.438  10.317  1.00  0.00    -0.060 C 
HETATM   11  C16 UNL     1      14.012  18.504   9.630  1.00  0.00     0.048 C 
HETATM   12  C17 UNL     1      15.961  19.487  10.716  1.00  0.00    -0.016 C 
BRANCH  12  13
HETATM   13  C18 UNL     1      15.514  20.883  10.532  1.00  0.00     0.055 C 
BRANCH  13  14
HETATM   14  C19 UNL     1      16.360  21.431   9.415  1.00  0.00    -0.020 C 
HETATM   15  C20 UNL     1      15.844  21.906   8.316  1.00  0.00    -0.087 C 
HETATM   16  C21 UNL     1      14.358  21.923   8.123  1.00  0.00     0.043 C 
BRANCH  15  17
HETATM   17  C22 UNL     1      16.730  22.435   7.246  1.00  0.00     0.043 C 
BRANCH  17  18
HETATM   18  C23 UNL     1      16.695  23.926   7.317  1.00  0.00     0.115 C 
BRANCH  18  19
HETATM   19  C24 UNL     1      17.614  24.527   6.330  1.00  0.00     0.258 C 
HETATM   20  O1  UNL     1      18.795  24.775   6.674  1.00  0.00    -0.265 OA
BRANCH  19  21
HETATM   21  O2  UNL     1      17.190  24.811   5.053  1.00  0.00    -0.326 OA
HETATM   22  C25 UNL     1      17.570  23.958   3.992  1.00  0.00     0.213 C 
ENDBRANCH  19  21
ENDBRANCH  18  19
ENDBRANCH  17  18
ENDBRANCH  15  17
ENDBRANCH  13  14
ENDBRANCH  12  13
ENDBRANCH   8  10
ENDBRANCH   7   8
ENDBRANCH   4   7
BRANCH   1  23
HETATM   23  C7  UNL     1      13.247  13.951  14.013  1.00  0.00     0.049 C 
BRANCH  23  24
HETATM   24  C6  UNL     1      12.029  13.214  14.408  1.00  0.00     0.031 C 
BRANCH  24  25
HETATM   25  C5  UNL     1      11.025  12.919  13.406  1.00  0.00    -0.016 C 
HETATM   26  C4  UNL     1       9.712  12.908  13.504  1.00  0.00    -0.028 C 
BRANCH  26  27
HETATM   27  C2  UNL     1       8.966  12.558  12.276  1.00  0.00    -0.063 C 
HETATM   28  C1  UNL     1       8.692  11.312  11.973  1.00  0.00     0.019 C 
HETATM   29  C3  UNL     1       8.519  13.627  11.335  1.00  0.00     0.048 C 
ENDBRANCH  26  27
BRANCH  26  30
HETATM   30  C26 UNL     1       8.968  13.178  14.731  1.00  0.00     0.151 C 
BRANCH  30  31
HETATM   31  O5  UNL     1       8.060  14.217  14.682  1.00  0.00    -0.391 OA
ATOM     32  H5  UNL     1       8.318  14.980  14.178  1.00  0.00     0.210 HD
ENDBRANCH  30  31
BRANCH  30  33
HETATM   33  C27 UNL     1       9.807  13.237  15.987  1.00  0.00     0.032 C 
HETATM   34  C28 UNL     1       8.816  13.460  17.138  1.00  0.00     0.008 C 
ENDBRANCH  30  33
ENDBRANCH  26  30
ENDBRANCH  24  25
ENDBRANCH  23  24
ENDBRANCH   1  23
TORSDOF 16
ENDMDL
MODEL 2
REMARK VINA RESULT: -9.346926311      2.054     11.100
REMARK  16 active torsions:
REMARK  status: ('A' for Active; 'I' for Inactive)
REMARK    1  A    between atoms: C2_2  and  C4_4 
REMARK    2  A    between atoms: C4_4  and  C26_30 
REMARK    3  A    between atoms: C5_5  and  C6_6 
REMARK    4  A    between atoms: C6_6  and  C7_7 
REMARK    5  A    between atoms: C7_7  and  C8_8 
REMARK    6  A    between atoms: C11_11  and  C12_12 
REMARK    7  A    between atoms: C12_12  and  C13_13 
REMARK    8  A    between atoms: C13_13  and  C15_15 
REMARK    9  A    between atoms: C17_17  and  C18_18 
REMARK   10  A    between atoms: C18_18  and  C19_19 
REMARK   11  A    between atoms: C20_20  and  C22_22 
REMARK   12  A    between atoms: C22_22  and  C23_23 
REMARK   13  A    between atoms: C23_23  and  C24_24 
REMARK   14  A    between atoms: C24_24  and  O2_26 
REMARK   15  A    between atoms: C26_30  and  O5_31 
REMARK   16  A    between atoms: C26_30  and  C27_33 
ROOT
HETATM    1  C8  UNL     1      13.792  21.359  10.054  1.00  0.00     0.114 C 
HETATM    2  C9  UNL     1      12.729  22.038  10.859  1.00  0.00     0.054 C 
HETATM    3  C10 UNL     1      13.299  19.984   9.741  1.00  0.00     0.049 C 
HETATM    4  C11 UNL     1      14.318  19.169   9.932  1.00  0.00     0.087 C 
HETATM    5  O3  UNL     1      15.380  19.995  10.343  1.00  0.00    -0.201 OA
HETATM    6  O4  UNL     1      14.865  21.092  10.913  1.00  0.00    -0.221 OA
ENDROOT
BRANCH   4   7
HETATM    7  C12 UNL     1      14.289  17.710   9.742  1.00  0.00     0.105 C 
BRANCH   7   8
HETATM    8  C13 UNL     1      15.597  17.080   9.993  1.00  0.00    -0.056 C 
HETATM    9  C14 UNL     1      16.446  16.819   9.034  1.00  0.00     0.020 C 
BRANCH   8  10
HETATM   10  C15 UNL     1      15.978  16.723  11.372  1.00  0.00    -0.060 C 
HETATM   11  C16 UNL     1      17.387  16.809  11.751  1.00  0.00     0.048 C 
HETATM   12  C17 UNL     1      15.032  16.350  12.186  1.00  0.00    -0.016 C 
BRANCH  12  13
HETATM   13  C18 UNL     1      15.241  15.960  13.596  1.00  0.00     0.055 C 
BRANCH  13  14
HETATM   14  C19 UNL     1      14.164  14.952  13.897  1.00  0.00    -0.020 C 
HETATM   15  C20 UNL     1      13.332  15.095  14.890  1.00  0.00    -0.087 C 
HETATM   16  C21 UNL     1      13.421  16.293  15.786  1.00  0.00     0.043 C 
BRANCH  15  17
HETATM   17  C22 UNL     1      12.288  14.066  15.139  1.00  0.00     0.043 C 
BRANCH  17  18
HETATM   18  C23 UNL     1      12.127  13.266  13.889  1.00  0.00     0.115 C 
BRANCH  18  19
HETATM   19  C24 UNL     1      10.714  13.228  13.461  1.00  0.00     0.258 C 
HETATM   20  O1  UNL     1       9.882  13.960  14.049  1.00  0.00    -0.265 OA
BRANCH  19  21
HETATM   21  O2  UNL     1      10.310  12.407  12.433  1.00  0.00    -0.326 OA
HETATM   22  C25 UNL     1       8.990  11.904  12.428  1.00  0.00     0.213 C 
ENDBRANCH  19  21
ENDBRANCH  18  19
ENDBRANCH  17  18
ENDBRANCH  15  17
ENDBRANCH  13  14
ENDBRANCH  12  13
ENDBRANCH   8  10
ENDBRANCH   7   8
ENDBRANCH   4   7
BRANCH   1  23
HETATM   23  C7  UNL     1      14.206  22.020   8.799  1.00  0.00     0.049 C 
BRANCH  23  24
HETATM   24  C6  UNL     1      14.626  23.437   8.829  1.00  0.00     0.031 C 
BRANCH  24  25
HETATM   25  C5  UNL     1      15.704  23.872   7.966  1.00  0.00    -0.016 C 
HETATM   26  C4  UNL     1      16.896  23.347   7.771  1.00  0.00    -0.028 C 
BRANCH  26  27
HETATM   27  C2  UNL     1      17.774  24.049   6.810  1.00  0.00    -0.063 C 
HETATM   28  C1  UNL     1      18.792  24.770   7.213  1.00  0.00     0.019 C 
HETATM   29  C3  UNL     1      17.505  23.966   5.344  1.00  0.00     0.048 C 
ENDBRANCH  26  27
BRANCH  26  30
HETATM   30  C26 UNL     1      17.403  22.163   8.457  1.00  0.00     0.151 C 
BRANCH  30  31
HETATM   31  O5  UNL     1      18.269  22.387   9.509  1.00  0.00    -0.391 OA
ATOM     32  H5  UNL     1      18.992  21.776   9.598  1.00  0.00     0.210 HD
ENDBRANCH  30  31
BRANCH  30  33
HETATM   33  C27 UNL     1      17.908  21.064   7.550  1.00  0.00     0.032 C 
HETATM   34  C28 UNL     1      18.386  19.942   8.483  1.00  0.00     0.008 C 
ENDBRANCH  30  33
ENDBRANCH  26  30
ENDBRANCH  24  25
ENDBRANCH  23  24
ENDBRANCH   1  23
TORSDOF 16
ENDMDL
MODEL 3
REMARK VINA RESULT: -9.251522237      0.955      1.440
REMARK  16 active torsions:
REMARK  status: ('A' for Active; 'I' for Inactive)
REMARK    1  A    between atoms: C2_2  and  C4_4 
REMARK    2  A    between atoms: C4_4  and  C26_30 
REMARK    3  A    between atoms: C5_5  and  C6_6 
REMARK    4  A    between atoms: C6_6  and  C7_7 
REMARK    5  A    between atoms: C7_7  and  C8_8 
REMARK    6  A    between atoms: C11_11  and  C12_12 
REMARK    7  A    between atoms: C12_12  and  C13_13 
REMARK    8  A    between atoms: C13_13  and  C15_15 
REMARK    9  A    between atoms: C17_17  and  C18_18 
REMARK   10  A    between atoms: C18_18  and  C19_19 
REMARK   11  A    between atoms: C20_20  and  C22_22 
REMARK   12  A    between atoms: C22_22  and  C23_23 
REMARK   13  A    between atoms: C23_23  and  C24_24 
REMARK   14  A    between atoms: C24_24  and  O2_26 
REMARK   15  A    between atoms: C26_30  and  O5_31 
REMARK   16  A    between atoms: C26_30  and  C27_33 
ROOT
HETATM    1  C8  UNL     1      13.168  15.348  14.078  1.00  0.00     0.114 C 
HETATM    2  C9  UNL     1      13.520  16.210  15.249  1.00  0.00     0.054 C 
HETATM    3  C10 UNL     1      14.141  15.663  12.988  1.00  0.00     0.049 C 
HETATM    4  C11 UNL     1      13.441  15.744  11.874  1.00  0.00     0.087 C 
HETATM    5  O3  UNL     1      12.109  15.495  12.255  1.00  0.00    -0.201 OA
HETATM    6  O4  UNL     1      11.968  15.834  13.543  1.00  0.00    -0.221 OA
ENDROOT
BRANCH   4   7
HETATM    7  C12 UNL     1      13.991  16.038  10.541  1.00  0.00     0.105 C 
BRANCH   7   8
HETATM    8  C13 UNL     1      13.877  17.463  10.183  1.00  0.00    -0.056 C 
HETATM    9  C14 UNL     1      12.773  17.981   9.710  1.00  0.00     0.020 C 
BRANCH   8  10
HETATM   10  C15 UNL     1      15.040  18.352  10.358  1.00  0.00    -0.060 C 
HETATM   11  C16 UNL     1      16.360  17.748  10.526  1.00  0.00     0.048 C 
HETATM   12  C17 UNL     1      14.828  19.637  10.350  1.00  0.00    -0.016 C 
BRANCH  12  13
HETATM   13  C18 UNL     1      15.879  20.663  10.512  1.00  0.00     0.055 C 
BRANCH  13  14
HETATM   14  C19 UNL     1      15.587  21.704   9.464  1.00  0.00    -0.020 C 
HETATM   15  C20 UNL     1      16.511  22.179   8.676  1.00  0.00    -0.087 C 
HETATM   16  C21 UNL     1      17.925  21.696   8.789  1.00  0.00     0.043 C 
BRANCH  15  17
HETATM   17  C22 UNL     1      16.164  23.207   7.659  1.00  0.00     0.043 C 
BRANCH  17  18
HETATM   18  C23 UNL     1      17.070  23.016   6.488  1.00  0.00     0.115 C 
BRANCH  18  19
HETATM   19  C24 UNL     1      17.868  24.232   6.230  1.00  0.00     0.258 C 
HETATM   20  O1  UNL     1      19.107  24.197   6.424  1.00  0.00    -0.265 OA
BRANCH  19  21
HETATM   21  O2  UNL     1      17.269  25.387   5.782  1.00  0.00    -0.326 OA
HETATM   22  C25 UNL     1      18.015  26.291   4.993  1.00  0.00     0.213 C 
ENDBRANCH  19  21
ENDBRANCH  18  19
ENDBRANCH  17  18
ENDBRANCH  15  17
ENDBRANCH  13  14
ENDBRANCH  12  13
ENDBRANCH   8  10
ENDBRANCH   7   8
ENDBRANCH   4   7
BRANCH   1  23
HETATM   23  C7  UNL     1      13.152  13.887  14.302  1.00  0.00     0.049 C 
BRANCH  23  24
HETATM   24  C6  UNL     1      11.887  13.227  14.689  1.00  0.00     0.031 C 
BRANCH  24  25
HETATM   25  C5  UNL     1      10.925  12.886  13.661  1.00  0.00    -0.016 C 
HETATM   26  C4  UNL     1       9.609  12.882  13.703  1.00  0.00    -0.028 C 
BRANCH  26  27
HETATM   27  C2  UNL     1       8.913  12.474  12.463  1.00  0.00    -0.063 C 
HETATM   28  C1  UNL     1       8.631  11.218  12.219  1.00  0.00     0.019 C 
HETATM   29  C3  UNL     1       8.530  13.494  11.444  1.00  0.00     0.048 C 
ENDBRANCH  26  27
BRANCH  26  30
HETATM   30  C26 UNL     1       8.816  13.214  14.883  1.00  0.00     0.151 C 
BRANCH  30  31
HETATM   31  O5  UNL     1       8.091  14.388  14.825  1.00  0.00    -0.391 OA
ATOM     32  H5  UNL     1       7.574  14.603  15.594  1.00  0.00     0.210 HD
ENDBRANCH  30  31
BRANCH  30  33
HETATM   33  C27 UNL     1       9.542  13.077  16.201  1.00  0.00     0.032 C 
HETATM   34  C28 UNL     1       8.606  13.682  17.257  1.00  0.00     0.008 C 
ENDBRANCH  30  33
ENDBRANCH  26  30
ENDBRANCH  24  25
ENDBRANCH  23  24
ENDBRANCH   1  23
TORSDOF 16
ENDMDL
MODEL 4
REMARK VINA RESULT: -9.210505808      2.293      3.160
REMARK  16 active torsions:
REMARK  status: ('A' for Active; 'I' for Inactive)
REMARK    1  A    between atoms: C2_2  and  C4_4 
REMARK    2  A    between atoms: C4_4  and  C26_30 
REMARK    3  A    between atoms: C5_5  and  C6_6 
REMARK    4  A    between atoms: C6_6  and  C7_7 
REMARK    5  A    between atoms: C7_7  and  C8_8 
REMARK    6  A    between atoms: C11_11  and  C12_12 
REMARK    7  A    between atoms: C12_12  and  C13_13 
REMARK    8  A    between atoms: C13_13  and  C15_15 
REMARK    9  A    between atoms: C17_17  and  C18_18 
REMARK   10  A    between atoms: C18_18  and  C19_19 
REMARK   11  A    between atoms: C20_20  and  C22_22 
REMARK   12  A    between atoms: C22_22  and  C23_23 
REMARK   13  A    between atoms: C23_23  and  C24_24 
REMARK   14  A    between atoms: C24_24  and  O2_26 
REMARK   15  A    between atoms: C26_30  and  O5_31 
REMARK   16  A    between atoms: C26_30  and  C27_33 
ROOT
HETATM    1  C8  UNL     1      13.225  15.348  13.929  1.00  0.00     0.114 C 
HETATM    2  C9  UNL     1      13.662  16.197  15.082  1.00  0.00     0.054 C 
HETATM    3  C10 UNL     1      14.134  15.656  12.783  1.00  0.00     0.049 C 
HETATM    4  C11 UNL     1      13.368  15.755  11.715  1.00  0.00     0.087 C 
HETATM    5  O3  UNL     1      12.059  15.524  12.176  1.00  0.00    -0.201 OA
HETATM    6  O4  UNL     1      12.002  15.856  13.472  1.00  0.00    -0.221 OA
ENDROOT
BRANCH   4   7
HETATM    7  C12 UNL     1      13.840  16.050  10.352  1.00  0.00     0.105 C 
BRANCH   7   8
HETATM    8  C13 UNL     1      13.726  17.478  10.010  1.00  0.00    -0.056 C 
HETATM    9  C14 UNL     1      12.575  18.056   9.783  1.00  0.00     0.020 C 
BRANCH   8  10
HETATM   10  C15 UNL     1      14.945  18.302   9.915  1.00  0.00    -0.060 C 
HETATM   11  C16 UNL     1      16.224  17.633   9.687  1.00  0.00     0.048 C 
HETATM   12  C17 UNL     1      14.816  19.593  10.037  1.00  0.00    -0.016 C 
BRANCH  12  13
HETATM   13  C18 UNL     1      15.932  20.559   9.968  1.00  0.00     0.055 C 
BRANCH  13  14
HETATM   14  C19 UNL     1      15.287  21.919  10.017  1.00  0.00    -0.020 C 
HETATM   15  C20 UNL     1      15.203  22.689   8.968  1.00  0.00    -0.087 C 
HETATM   16  C21 UNL     1      15.757  22.239   7.651  1.00  0.00     0.043 C 
BRANCH  15  17
HETATM   17  C22 UNL     1      14.556  24.023   9.076  1.00  0.00     0.043 C 
BRANCH  17  18
HETATM   18  C23 UNL     1      13.739  24.036  10.326  1.00  0.00     0.115 C 
BRANCH  18  19
HETATM   19  C24 UNL     1      12.296  24.102  10.017  1.00  0.00     0.258 C 
HETATM   20  O1  UNL     1      11.665  25.151  10.291  1.00  0.00    -0.265 OA
BRANCH  19  21
HETATM   21  O2  UNL     1      11.649  23.035   9.438  1.00  0.00    -0.326 OA
HETATM   22  C25 UNL     1      11.603  21.799  10.123  1.00  0.00     0.213 C 
ENDBRANCH  19  21
ENDBRANCH  18  19
ENDBRANCH  17  18
ENDBRANCH  15  17
ENDBRANCH  13  14
ENDBRANCH  12  13
ENDBRANCH   8  10
ENDBRANCH   7   8
ENDBRANCH   4   7
BRANCH   1  23
HETATM   23  C7  UNL     1      13.200  13.887  14.145  1.00  0.00     0.049 C 
BRANCH  23  24
HETATM   24  C6  UNL     1      11.936  13.235  14.547  1.00  0.00     0.031 C 
BRANCH  24  25
HETATM   25  C5  UNL     1      10.959  12.899  13.531  1.00  0.00    -0.016 C 
HETATM   26  C4  UNL     1       9.644  12.893  13.593  1.00  0.00    -0.028 C 
BRANCH  26  27
HETATM   27  C2  UNL     1       8.931  12.492  12.361  1.00  0.00    -0.063 C 
HETATM   28  C1  UNL     1       8.558  13.376  11.468  1.00  0.00     0.019 C 
HETATM   29  C3  UNL     1       8.602  11.058  12.114  1.00  0.00     0.048 C 
ENDBRANCH  26  27
BRANCH  26  30
HETATM   30  C26 UNL     1       8.868  13.215  14.787  1.00  0.00     0.151 C 
BRANCH  30  31
HETATM   31  O5  UNL     1       8.044  14.320  14.703  1.00  0.00    -0.391 OA
ATOM     32  H5  UNL     1       7.110  14.157  14.775  1.00  0.00     0.210 HD
ENDBRANCH  30  31
BRANCH  30  33
HETATM   33  C27 UNL     1       9.649  13.205  16.080  1.00  0.00     0.032 C 
HETATM   34  C28 UNL     1       8.646  13.596  17.175  1.00  0.00     0.008 C 
ENDBRANCH  30  33
ENDBRANCH  26  30
ENDBRANCH  24  25
ENDBRANCH  23  24
ENDBRANCH   1  23
TORSDOF 16
ENDMDL
MODEL 5
REMARK VINA RESULT: -9.132962237      1.304      2.503
REMARK  16 active torsions:
REMARK  status: ('A' for Active; 'I' for Inactive)
REMARK    1  A    between atoms: C2_2  and  C4_4 
REMARK    2  A    between atoms: C4_4  and  C26_30 
REMARK    3  A    between atoms: C5_5  and  C6_6 
REMARK    4  A    between atoms: C6_6  and  C7_7 
REMARK    5  A    between atoms: C7_7  and  C8_8 
REMARK    6  A    between atoms: C11_11  and  C12_12 
REMARK    7  A    between atoms: C12_12  and  C13_13 
REMARK    8  A    between atoms: C13_13  and  C15_15 
REMARK    9  A    between atoms: C17_17  and  C18_18 
REMARK   10  A    between atoms: C18_18  and  C19_19 
REMARK   11  A    between atoms: C20_20  and  C22_22 
REMARK   12  A    between atoms: C22_22  and  C23_23 
REMARK   13  A    between atoms: C23_23  and  C24_24 
REMARK   14  A    between atoms: C24_24  and  O2_26 
REMARK   15  A    between atoms: C26_30  and  O5_31 
REMARK   16  A    between atoms: C26_30  and  C27_33 
ROOT
HETATM    1  C8  UNL     1      13.073  15.288  13.744  1.00  0.00     0.114 C 
HETATM    2  C9  UNL     1      13.519  15.964  15.003  1.00  0.00     0.054 C 
HETATM    3  C10 UNL     1      14.010  15.709  12.659  1.00  0.00     0.049 C 
HETATM    4  C11 UNL     1      13.266  15.973  11.604  1.00  0.00     0.087 C 
HETATM    5  O3  UNL     1      11.942  15.731  12.015  1.00  0.00    -0.201 OA
HETATM    6  O4  UNL     1      11.876  15.894  13.343  1.00  0.00    -0.221 OA
ENDROOT
BRANCH   4   7
HETATM    7  C12 UNL     1      13.770  16.425  10.297  1.00  0.00     0.105 C 
BRANCH   7   8
HETATM    8  C13 UNL     1      13.160  17.693   9.862  1.00  0.00    -0.056 C 
HETATM    9  C14 UNL     1      11.975  17.749   9.312  1.00  0.00     0.020 C 
BRANCH   8  10
HETATM   10  C15 UNL     1      13.899  18.956  10.046  1.00  0.00    -0.060 C 
HETATM   11  C16 UNL     1      13.190  20.216   9.832  1.00  0.00     0.048 C 
HETATM   12  C17 UNL     1      15.152  18.881  10.395  1.00  0.00    -0.016 C 
BRANCH  12  13
HETATM   13  C18 UNL     1      16.033  20.045  10.619  1.00  0.00     0.055 C 
BRANCH  13  14
HETATM   14  C19 UNL     1      16.673  20.326   9.287  1.00  0.00    -0.020 C 
HETATM   15  C20 UNL     1      16.609  21.495   8.713  1.00  0.00    -0.087 C 
HETATM   16  C21 UNL     1      15.879  22.624   9.375  1.00  0.00     0.043 C 
BRANCH  15  17
HETATM   17  C22 UNL     1      17.261  21.714   7.395  1.00  0.00     0.043 C 
BRANCH  17  18
HETATM   18  C23 UNL     1      16.560  22.846   6.720  1.00  0.00     0.115 C 
BRANCH  18  19
HETATM   19  C24 UNL     1      17.525  23.842   6.214  1.00  0.00     0.258 C 
HETATM   20  O1  UNL     1      17.267  24.447   5.145  1.00  0.00    -0.265 OA
BRANCH  19  21
HETATM   21  O2  UNL     1      18.688  24.109   6.898  1.00  0.00    -0.326 OA
HETATM   22  C25 UNL     1      19.207  25.424   6.895  1.00  0.00     0.213 C 
ENDBRANCH  19  21
ENDBRANCH  18  19
ENDBRANCH  17  18
ENDBRANCH  15  17
ENDBRANCH  13  14
ENDBRANCH  12  13
ENDBRANCH   8  10
ENDBRANCH   7   8
ENDBRANCH   4   7
BRANCH   1  23
HETATM   23  C7  UNL     1      12.994  13.813  13.768  1.00  0.00     0.049 C 
BRANCH  23  24
HETATM   24  C6  UNL     1      12.472  13.133  14.972  1.00  0.00     0.031 C 
BRANCH  24  25
HETATM   25  C5  UNL     1      11.081  13.310  15.335  1.00  0.00    -0.016 C 
HETATM   26  C4  UNL     1       9.997  13.227  14.592  1.00  0.00    -0.028 C 
BRANCH  26  27
HETATM   27  C2  UNL     1       8.710  13.469  15.279  1.00  0.00    -0.063 C 
HETATM   28  C1  UNL     1       7.593  13.616  14.609  1.00  0.00     0.019 C 
HETATM   29  C3  UNL     1       8.658  13.571  16.767  1.00  0.00     0.048 C 
ENDBRANCH  26  27
BRANCH  26  30
HETATM   30  C26 UNL     1       9.992  12.953  13.158  1.00  0.00     0.151 C 
BRANCH  30  31
HETATM   31  O5  UNL     1       9.779  14.035  12.327  1.00  0.00    -0.391 OA
ATOM     32  H5  UNL     1       9.399  14.808  12.730  1.00  0.00     0.210 HD
ENDBRANCH  30  31
BRANCH  30  33
HETATM   33  C27 UNL     1       9.164  11.762  12.737  1.00  0.00     0.032 C 
HETATM   34  C28 UNL     1       8.513  12.158  11.404  1.00  0.00     0.008 C 
ENDBRANCH  30  33
ENDBRANCH  26  30
ENDBRANCH  24  25
ENDBRANCH  23  24
ENDBRANCH   1  23
TORSDOF 16
ENDMDL
