MODEL 1
REMARK VINA RESULT: -8.689339958      0.000      0.000
REMARK  19 active torsions:
REMARK  status: ('A' for Active; 'I' for Inactive)
REMARK    1  A    between atoms: C2_2  and  C3_3 
REMARK    2  A    between atoms: C2_2  and  C17_19 
REMARK    3  A    between atoms: C3_3  and  C4_4 
REMARK    4  A    between atoms: C4_4  and  C5_5 
REMARK    5  A    between atoms: C5_5  and  C6_6 
REMARK    6  A    between atoms: C6_6  and  C8_8 
REMARK    7  A    between atoms: C8_8  and  O1_9 
REMARK    8  A    between atoms: C8_8  and  C9_11 
REMARK    9  A    between atoms: C9_11  and  C10_12 
REMARK   10  A    between atoms: C10_12  and  C11_13 
REMARK   11  A    between atoms: C11_13  and  C12_14 
REMARK   12  A    between atoms: C12_14  and  C14_16 
REMARK   13  A    between atoms: C18_20  and  C19_21 
REMARK   14  A    between atoms: C19_21  and  C20_22 
REMARK   15  A    between atoms: C20_22  and  C22_24 
REMARK   16  A    between atoms: C22_24  and  C23_25 
REMARK   17  A    between atoms: C23_25  and  O2_26 
REMARK   18  A    between atoms: O2_26  and  C24_27 
REMARK   19  A    between atoms: C24_27  and  C25_29 
ROOT
HETATM    1  C17 UNL     1      12.739  16.333  10.735  1.00  0.00     0.007 C 
HETATM    2  C18 UNL     1      13.298  15.810  11.939  1.00  0.00     0.001 C 
ENDROOT
BRANCH   1   3
HETATM    3  C2  UNL     1      13.256  17.392  10.083  1.00  0.00    -0.062 C 
HETATM    4  C1  UNL     1      12.389  18.477   9.605  1.00  0.00     0.048 C 
BRANCH   3   5
HETATM    5  C3  UNL     1      14.697  17.331   9.921  1.00  0.00     0.007 C 
BRANCH   5   6
HETATM    6  C4  UNL     1      15.568  18.230   9.886  1.00  0.00     0.001 C 
BRANCH   6   7
HETATM    7  C5  UNL     1      15.777  19.390  10.695  1.00  0.00     0.005 C 
BRANCH   7   8
HETATM    8  C6  UNL     1      16.099  20.572  10.121  1.00  0.00    -0.056 C 
HETATM    9  C7  UNL     1      15.059  21.587   9.975  1.00  0.00     0.046 C 
BRANCH   8  10
HETATM   10  C8  UNL     1      17.466  20.786   9.666  1.00  0.00     0.146 C 
BRANCH  10  11
HETATM   11  O1  UNL     1      17.894  22.046  10.089  1.00  0.00    -0.391 OA
ATOM     12  H1  UNL     1      17.414  22.712   9.611  1.00  0.00     0.210 HD
ENDBRANCH  10  11
BRANCH  10  13
HETATM   13  C9  UNL     1      17.425  20.781   8.107  1.00  0.00     0.036 C 
BRANCH  13  14
HETATM   14  C10 UNL     1      18.357  21.818   7.584  1.00  0.00     0.003 C 
BRANCH  14  15
HETATM   15  C11 UNL     1      17.764  22.731   6.606  1.00  0.00     0.005 C 
BRANCH  15  16
HETATM   16  C12 UNL     1      17.415  24.107   6.971  1.00  0.00    -0.015 C 
HETATM   17  C13 UNL     1      16.216  24.372   7.793  1.00  0.00     0.010 C 
BRANCH  16  18
HETATM   18  C14 UNL     1      17.310  24.964   5.711  1.00  0.00    -0.019 C 
HETATM   19  C15 UNL     1      17.464  24.136   4.465  1.00  0.00     0.010 C 
HETATM   20  C16 UNL     1      18.344  26.060   5.690  1.00  0.00     0.010 C 
ENDBRANCH  16  18
ENDBRANCH  15  16
ENDBRANCH  14  15
ENDBRANCH  13  14
ENDBRANCH  10  13
ENDBRANCH   8  10
ENDBRANCH   7   8
ENDBRANCH   6   7
ENDBRANCH   5   6
ENDBRANCH   3   5
ENDBRANCH   1   3
BRANCH   2  21
HETATM   21  C19 UNL     1      12.736  14.739  12.558  1.00  0.00     0.006 C 
BRANCH  21  22
HETATM   22  C20 UNL     1      13.308  14.328  13.824  1.00  0.00    -0.064 C 
HETATM   23  C21 UNL     1      14.643  14.886  14.251  1.00  0.00     0.048 C 
BRANCH  22  24
HETATM   24  C22 UNL     1      12.696  13.483  14.607  1.00  0.00     0.006 C 
BRANCH  24  25
HETATM   25  C23 UNL     1      11.859  13.876  15.747  1.00  0.00     0.207 C 
BRANCH  25  26
HETATM   26  O2  UNL     1      10.797  12.999  15.944  1.00  0.00    -0.312 OA
BRANCH  26  27
HETATM   27  C24 UNL     1       9.458  13.240  15.976  1.00  0.00     0.311 C 
HETATM   28  O3  UNL     1       8.893  13.380  17.077  1.00  0.00    -0.258 OA
BRANCH  27  29
HETATM   29  C25 UNL     1       8.657  13.341  14.735  1.00  0.00     0.126 A 
HETATM   30  C26 UNL     1       9.174  12.948  13.523  1.00  0.00     0.056 A 
HETATM   31  C27 UNL     1       8.409  13.052  12.384  1.00  0.00     0.111 A 
HETATM   32  N1  UNL     1       7.161  13.542  12.486  1.00  0.00    -0.297 N 
HETATM   33  N2  UNL     1       6.683  13.916  13.664  1.00  0.00    -0.243 N 
ATOM     34  H1  UNL     1       6.579  13.625  11.652  1.00  0.00     0.187 HD
HETATM   35  N3  UNL     1       7.404  13.821  14.765  1.00  0.00    -0.281 N 
ATOM     36  H2  UNL     1       5.734  14.286  13.720  1.00  0.00     0.208 HD
ATOM     37  H3  UNL     1       7.002  14.118  15.653  1.00  0.00     0.188 HD
ENDBRANCH  27  29
ENDBRANCH  26  27
ENDBRANCH  25  26
ENDBRANCH  24  25
ENDBRANCH  22  24
ENDBRANCH  21  22
ENDBRANCH   2  21
TORSDOF 19
ENDMDL
MODEL 2
REMARK VINA RESULT: -8.595690026      5.240      6.818
REMARK  19 active torsions:
REMARK  status: ('A' for Active; 'I' for Inactive)
REMARK    1  A    between atoms: C2_2  and  C3_3 
REMARK    2  A    between atoms: C2_2  and  C17_19 
REMARK    3  A    between atoms: C3_3  and  C4_4 
REMARK    4  A    between atoms: C4_4  and  C5_5 
REMARK    5  A    between atoms: C5_5  and  C6_6 
REMARK    6  A    between atoms: C6_6  and  C8_8 
REMARK    7  A    between atoms: C8_8  and  O1_9 
REMARK    8  A    between atoms: C8_8  and  C9_11 
REMARK    9  A    between atoms: C9_11  and  C10_12 
REMARK   10  A    between atoms: C10_12  and  C11_13 
REMARK   11  A    between atoms: C11_13  and  C12_14 
REMARK   12  A    between atoms: C12_14  and  C14_16 
REMARK   13  A    between atoms: C18_20  and  C19_21 
REMARK   14  A    between atoms: C19_21  and  C20_22 
REMARK   15  A    between atoms: C20_22  and  C22_24 
REMARK   16  A    between atoms: C22_24  and  C23_25 
REMARK   17  A    between atoms: C23_25  and  O2_26 
REMARK   18  A    between atoms: O2_26  and  C24_27 
REMARK   19  A    between atoms: C24_27  and  C25_29 
ROOT
HETATM    1  C17 UNL     1      15.921  16.337  11.249  1.00  0.00     0.007 C 
HETATM    2  C18 UNL     1      14.878  16.664  12.167  1.00  0.00     0.001 C 
ENDROOT
BRANCH   1   3
HETATM    3  C2  UNL     1      16.508  17.247  10.448  1.00  0.00    -0.062 C 
HETATM    4  C1  UNL     1      17.153  16.839   9.194  1.00  0.00     0.048 C 
BRANCH   3   5
HETATM    5  C3  UNL     1      16.427  18.605  10.951  1.00  0.00     0.007 C 
BRANCH   5   6
HETATM    6  C4  UNL     1      16.059  19.672  10.407  1.00  0.00     0.001 C 
BRANCH   6   7
HETATM    7  C5  UNL     1      15.161  19.933   9.327  1.00  0.00     0.005 C 
BRANCH   7   8
HETATM    8  C6  UNL     1      13.842  20.116   9.566  1.00  0.00    -0.056 C 
HETATM    9  C7  UNL     1      12.985  18.942   9.702  1.00  0.00     0.046 C 
BRANCH   8  10
HETATM   10  C8  UNL     1      13.325  21.474   9.674  1.00  0.00     0.146 C 
BRANCH  10  11
HETATM   11  O1  UNL     1      11.931  21.436   9.620  1.00  0.00    -0.391 OA
ATOM     12  H1  UNL     1      11.663  21.183   8.744  1.00  0.00     0.210 HD
ENDBRANCH  10  11
BRANCH  10  13
HETATM   13  C9  UNL     1      13.844  22.250   8.426  1.00  0.00     0.036 C 
BRANCH  13  14
HETATM   14  C10 UNL     1      14.498  23.514   8.865  1.00  0.00     0.003 C 
BRANCH  14  15
HETATM   15  C11 UNL     1      15.936  23.579   8.600  1.00  0.00     0.005 C 
BRANCH  15  16
HETATM   16  C12 UNL     1      16.489  23.133   7.317  1.00  0.00    -0.015 C 
HETATM   17  C13 UNL     1      17.405  21.974   7.270  1.00  0.00     0.010 C 
BRANCH  16  18
HETATM   18  C14 UNL     1      17.186  24.302   6.622  1.00  0.00    -0.019 C 
HETATM   19  C15 UNL     1      17.348  24.051   5.148  1.00  0.00     0.010 C 
HETATM   20  C16 UNL     1      18.543  24.579   7.215  1.00  0.00     0.010 C 
ENDBRANCH  16  18
ENDBRANCH  15  16
ENDBRANCH  14  15
ENDBRANCH  13  14
ENDBRANCH  10  13
ENDBRANCH   8  10
ENDBRANCH   7   8
ENDBRANCH   6   7
ENDBRANCH   5   6
ENDBRANCH   3   5
ENDBRANCH   1   3
BRANCH   2  21
HETATM   21  C19 UNL     1      14.319  15.708  12.952  1.00  0.00     0.006 C 
BRANCH  21  22
HETATM   22  C20 UNL     1      14.799  15.602  14.315  1.00  0.00    -0.064 C 
HETATM   23  C21 UNL     1      14.050  16.301  15.421  1.00  0.00     0.048 C 
BRANCH  22  24
HETATM   24  C22 UNL     1      15.868  14.914  14.609  1.00  0.00     0.006 C 
BRANCH  24  25
HETATM   25  C23 UNL     1      17.217  15.487  14.695  1.00  0.00     0.207 C 
BRANCH  25  26
HETATM   26  O2  UNL     1      17.878  15.099  15.855  1.00  0.00    -0.312 OA
BRANCH  26  27
HETATM   27  C24 UNL     1      19.021  15.583  16.414  1.00  0.00     0.311 C 
HETATM   28  O3  UNL     1      20.099  15.004  16.183  1.00  0.00    -0.258 OA
BRANCH  27  29
HETATM   29  C25 UNL     1      19.014  16.777  17.287  1.00  0.00     0.126 A 
HETATM   30  C26 UNL     1      18.929  16.657  18.654  1.00  0.00     0.056 A 
HETATM   31  C27 UNL     1      18.925  17.783  19.444  1.00  0.00     0.111 A 
HETATM   32  N1  UNL     1      19.005  18.987  18.853  1.00  0.00    -0.297 N 
HETATM   33  N2  UNL     1      19.085  19.081  17.534  1.00  0.00    -0.243 N 
ATOM     34  H1  UNL     1      19.004  19.833  19.423  1.00  0.00     0.187 HD
HETATM   35  N3  UNL     1      19.091  18.011  16.763  1.00  0.00    -0.281 N 
ATOM     36  H2  UNL     1      19.144  20.005  17.104  1.00  0.00     0.208 HD
ATOM     37  H3  UNL     1      19.156  18.122  15.752  1.00  0.00     0.188 HD
ENDBRANCH  27  29
ENDBRANCH  26  27
ENDBRANCH  25  26
ENDBRANCH  24  25
ENDBRANCH  22  24
ENDBRANCH  21  22
ENDBRANCH   2  21
TORSDOF 19
ENDMDL
MODEL 3
REMARK VINA RESULT: -8.572008702      4.329      5.708
REMARK  19 active torsions:
REMARK  status: ('A' for Active; 'I' for Inactive)
REMARK    1  A    between atoms: C2_2  and  C3_3 
REMARK    2  A    between atoms: C2_2  and  C17_19 
REMARK    3  A    between atoms: C3_3  and  C4_4 
REMARK    4  A    between atoms: C4_4  and  C5_5 
REMARK    5  A    between atoms: C5_5  and  C6_6 
REMARK    6  A    between atoms: C6_6  and  C8_8 
REMARK    7  A    between atoms: C8_8  and  O1_9 
REMARK    8  A    between atoms: C8_8  and  C9_11 
REMARK    9  A    between atoms: C9_11  and  C10_12 
REMARK   10  A    between atoms: C10_12  and  C11_13 
REMARK   11  A    between atoms: C11_13  and  C12_14 
REMARK   12  A    between atoms: C12_14  and  C14_16 
REMARK   13  A    between atoms: C18_20  and  C19_21 
REMARK   14  A    between atoms: C19_21  and  C20_22 
REMARK   15  A    between atoms: C20_22  and  C22_24 
REMARK   16  A    between atoms: C22_24  and  C23_25 
REMARK   17  A    between atoms: C23_25  and  O2_26 
REMARK   18  A    between atoms: O2_26  and  C24_27 
REMARK   19  A    between atoms: C24_27  and  C25_29 
ROOT
HETATM    1  C17 UNL     1      13.817  16.166  11.141  1.00  0.00     0.007 C 
HETATM    2  C18 UNL     1      12.927  15.675  12.143  1.00  0.00     0.001 C 
ENDROOT
BRANCH   1   3
HETATM    3  C2  UNL     1      13.456  17.083  10.223  1.00  0.00    -0.062 C 
HETATM    4  C1  UNL     1      12.088  17.114   9.689  1.00  0.00     0.048 C 
BRANCH   3   5
HETATM    5  C3  UNL     1      14.528  17.985   9.848  1.00  0.00     0.007 C 
BRANCH   5   6
HETATM    6  C4  UNL     1      14.511  19.152   9.390  1.00  0.00     0.001 C 
BRANCH   6   7
HETATM    7  C5  UNL     1      14.756  20.420  10.001  1.00  0.00     0.005 C 
BRANCH   7   8
HETATM    8  C6  UNL     1      13.755  21.322  10.123  1.00  0.00    -0.056 C 
HETATM    9  C7  UNL     1      12.381  20.877   9.912  1.00  0.00     0.046 C 
BRANCH   8  10
HETATM   10  C8  UNL     1      14.084  22.701  10.456  1.00  0.00     0.146 C 
BRANCH  10  11
HETATM   11  O1  UNL     1      13.323  23.098  11.557  1.00  0.00    -0.391 OA
ATOM     12  H1  UNL     1      13.876  23.106  12.329  1.00  0.00     0.210 HD
ENDBRANCH  10  11
BRANCH  10  13
HETATM   13  C9  UNL     1      13.663  23.570   9.232  1.00  0.00     0.036 C 
BRANCH  13  14
HETATM   14  C10 UNL     1      14.788  24.469   8.852  1.00  0.00     0.003 C 
BRANCH  14  15
HETATM   15  C11 UNL     1      16.063  23.786   8.627  1.00  0.00     0.005 C 
BRANCH  15  16
HETATM   16  C12 UNL     1      16.410  23.248   7.308  1.00  0.00    -0.015 C 
HETATM   17  C13 UNL     1      17.140  21.969   7.199  1.00  0.00     0.010 C 
BRANCH  16  18
HETATM   18  C14 UNL     1      17.190  24.295   6.514  1.00  0.00    -0.019 C 
HETATM   19  C15 UNL     1      17.413  23.858   5.092  1.00  0.00     0.010 C 
HETATM   20  C16 UNL     1      18.528  24.592   7.140  1.00  0.00     0.010 C 
ENDBRANCH  16  18
ENDBRANCH  15  16
ENDBRANCH  14  15
ENDBRANCH  13  14
ENDBRANCH  10  13
ENDBRANCH   8  10
ENDBRANCH   7   8
ENDBRANCH   6   7
ENDBRANCH   5   6
ENDBRANCH   3   5
ENDBRANCH   1   3
BRANCH   2  21
HETATM   21  C19 UNL     1      13.340  14.748  13.046  1.00  0.00     0.006 C 
BRANCH  21  22
HETATM   22  C20 UNL     1      12.833  14.865  14.398  1.00  0.00    -0.064 C 
HETATM   23  C21 UNL     1      12.152  13.682  15.038  1.00  0.00     0.048 C 
BRANCH  22  24
HETATM   24  C22 UNL     1      12.950  15.973  15.077  1.00  0.00     0.006 C 
BRANCH  24  25
HETATM   25  C23 UNL     1      14.171  16.380  15.782  1.00  0.00     0.207 C 
BRANCH  25  26
HETATM   26  O2  UNL     1      14.858  17.383  15.104  1.00  0.00    -0.312 OA
BRANCH  26  27
HETATM   27  C24 UNL     1      16.011  17.319  14.384  1.00  0.00     0.311 C 
HETATM   28  O3  UNL     1      16.055  17.862  13.264  1.00  0.00    -0.258 OA
BRANCH  27  29
HETATM   29  C25 UNL     1      17.211  16.622  14.897  1.00  0.00     0.126 A 
HETATM   30  C26 UNL     1      17.528  15.352  14.476  1.00  0.00     0.056 A 
HETATM   31  C27 UNL     1      18.650  14.725  14.968  1.00  0.00     0.111 A 
HETATM   32  N1  UNL     1      19.416  15.378  15.858  1.00  0.00    -0.297 N 
HETATM   33  N2  UNL     1      19.092  16.601  16.251  1.00  0.00    -0.243 N 
ATOM     34  H1  UNL     1      20.252  14.929  16.233  1.00  0.00     0.187 HD
HETATM   35  N3  UNL     1      18.020  17.215  15.788  1.00  0.00    -0.281 N 
ATOM     36  H2  UNL     1      19.686  17.079  16.929  1.00  0.00     0.208 HD
ATOM     37  H3  UNL     1      17.804  18.157  16.113  1.00  0.00     0.188 HD
ENDBRANCH  27  29
ENDBRANCH  26  27
ENDBRANCH  25  26
ENDBRANCH  24  25
ENDBRANCH  22  24
ENDBRANCH  21  22
ENDBRANCH   2  21
TORSDOF 19
ENDMDL
MODEL 4
REMARK VINA RESULT: -8.497090354      5.931      7.360
REMARK  19 active torsions:
REMARK  status: ('A' for Active; 'I' for Inactive)
REMARK    1  A    between atoms: C2_2  and  C3_3 
REMARK    2  A    between atoms: C2_2  and  C17_19 
REMARK    3  A    between atoms: C3_3  and  C4_4 
REMARK    4  A    between atoms: C4_4  and  C5_5 
REMARK    5  A    between atoms: C5_5  and  C6_6 
REMARK    6  A    between atoms: C6_6  and  C8_8 
REMARK    7  A    between atoms: C8_8  and  O1_9 
REMARK    8  A    between atoms: C8_8  and  C9_11 
REMARK    9  A    between atoms: C9_11  and  C10_12 
REMARK   10  A    between atoms: C10_12  and  C11_13 
REMARK   11  A    between atoms: C11_13  and  C12_14 
REMARK   12  A    between atoms: C12_14  and  C14_16 
REMARK   13  A    between atoms: C18_20  and  C19_21 
REMARK   14  A    between atoms: C19_21  and  C20_22 
REMARK   15  A    between atoms: C20_22  and  C22_24 
REMARK   16  A    between atoms: C22_24  and  C23_25 
REMARK   17  A    between atoms: C23_25  and  O2_26 
REMARK   18  A    between atoms: O2_26  and  C24_27 
REMARK   19  A    between atoms: C24_27  and  C25_29 
ROOT
HETATM    1  C17 UNL     1      16.773  16.308  10.913  1.00  0.00     0.007 C 
HETATM    2  C18 UNL     1      17.522  16.588  12.095  1.00  0.00     0.001 C 
ENDROOT
BRANCH   1   3
HETATM    3  C2  UNL     1      16.706  17.153   9.867  1.00  0.00    -0.062 C 
HETATM    4  C1  UNL     1      17.863  17.348   8.983  1.00  0.00     0.048 C 
BRANCH   3   5
HETATM    5  C3  UNL     1      15.420  17.811   9.730  1.00  0.00     0.007 C 
BRANCH   5   6
HETATM    6  C4  UNL     1      15.041  18.966  10.031  1.00  0.00     0.001 C 
BRANCH   6   7
HETATM    7  C5  UNL     1      15.737  20.087  10.580  1.00  0.00     0.005 C 
BRANCH   7   8
HETATM    8  C6  UNL     1      15.574  21.319  10.045  1.00  0.00    -0.056 C 
HETATM    9  C7  UNL     1      14.299  22.003  10.239  1.00  0.00     0.046 C 
BRANCH   8  10
HETATM   10  C8  UNL     1      16.671  21.914   9.295  1.00  0.00     0.146 C 
BRANCH  10  11
HETATM   11  O1  UNL     1      17.843  21.816  10.047  1.00  0.00    -0.391 OA
ATOM     12  H1  UNL     1      17.862  22.521  10.683  1.00  0.00     0.210 HD
ENDBRANCH  10  11
BRANCH  10  13
HETATM   13  C9  UNL     1      16.326  23.425   9.120  1.00  0.00     0.036 C 
BRANCH  13  14
HETATM   14  C10 UNL     1      16.173  23.734   7.671  1.00  0.00     0.003 C 
BRANCH  14  15
HETATM   15  C11 UNL     1      17.231  23.188   6.818  1.00  0.00     0.005 C 
BRANCH  15  16
HETATM   16  C12 UNL     1      18.140  24.072   6.082  1.00  0.00    -0.015 C 
HETATM   17  C13 UNL     1      18.881  25.131   6.796  1.00  0.00     0.010 C 
BRANCH  16  18
HETATM   18  C14 UNL     1      17.391  24.732   4.924  1.00  0.00    -0.019 C 
HETATM   19  C15 UNL     1      17.507  23.925   3.661  1.00  0.00     0.010 C 
HETATM   20  C16 UNL     1      17.894  26.126   4.653  1.00  0.00     0.010 C 
ENDBRANCH  16  18
ENDBRANCH  15  16
ENDBRANCH  14  15
ENDBRANCH  13  14
ENDBRANCH  10  13
ENDBRANCH   8  10
ENDBRANCH   7   8
ENDBRANCH   6   7
ENDBRANCH   5   6
ENDBRANCH   3   5
ENDBRANCH   1   3
BRANCH   2  21
HETATM   21  C19 UNL     1      17.556  15.702  13.123  1.00  0.00     0.006 C 
BRANCH  21  22
HETATM   22  C20 UNL     1      16.984  16.125  14.385  1.00  0.00    -0.064 C 
HETATM   23  C21 UNL     1      15.844  17.112  14.388  1.00  0.00     0.048 C 
BRANCH  22  24
HETATM   24  C22 UNL     1      17.433  15.672  15.523  1.00  0.00     0.006 C 
BRANCH  24  25
HETATM   25  C23 UNL     1      18.737  15.020  15.692  1.00  0.00     0.207 C 
BRANCH  25  26
HETATM   26  O2  UNL     1      19.635  15.818  16.392  1.00  0.00    -0.312 OA
BRANCH  26  27
HETATM   27  C24 UNL     1      20.082  17.075  16.123  1.00  0.00     0.311 C 
HETATM   28  O3  UNL     1      20.648  17.297  15.036  1.00  0.00    -0.258 OA
BRANCH  27  29
HETATM   29  C25 UNL     1      19.911  18.184  17.088  1.00  0.00     0.126 A 
HETATM   30  C26 UNL     1      20.646  19.341  16.976  1.00  0.00     0.056 A 
HETATM   31  C27 UNL     1      20.470  20.358  17.886  1.00  0.00     0.111 A 
HETATM   32  N1  UNL     1      19.572  20.193  18.873  1.00  0.00    -0.297 N 
HETATM   33  N2  UNL     1      18.876  19.070  18.963  1.00  0.00    -0.243 N 
ATOM     34  H1  UNL     1      19.427  20.937  19.556  1.00  0.00     0.187 HD
HETATM   35  N3  UNL     1      19.033  18.086  18.098  1.00  0.00    -0.281 N 
ATOM     36  H2  UNL     1      18.200  18.963  19.720  1.00  0.00     0.208 HD
ATOM     37  H3  UNL     1      18.478  17.237  18.199  1.00  0.00     0.188 HD
ENDBRANCH  27  29
ENDBRANCH  26  27
ENDBRANCH  25  26
ENDBRANCH  24  25
ENDBRANCH  22  24
ENDBRANCH  21  22
ENDBRANCH   2  21
TORSDOF 19
ENDMDL
MODEL 5
REMARK VINA RESULT: -8.425991431      5.620      9.332
REMARK  19 active torsions:
REMARK  status: ('A' for Active; 'I' for Inactive)
REMARK    1  A    between atoms: C2_2  and  C3_3 
REMARK    2  A    between atoms: C2_2  and  C17_19 
REMARK    3  A    between atoms: C3_3  and  C4_4 
REMARK    4  A    between atoms: C4_4  and  C5_5 
REMARK    5  A    between atoms: C5_5  and  C6_6 
REMARK    6  A    between atoms: C6_6  and  C8_8 
REMARK    7  A    between atoms: C8_8  and  O1_9 
REMARK    8  A    between atoms: C8_8  and  C9_11 
REMARK    9  A    between atoms: C9_11  and  C10_12 
REMARK   10  A    between atoms: C10_12  and  C11_13 
REMARK   11  A    between atoms: C11_13  and  C12_14 
REMARK   12  A    between atoms: C12_14  and  C14_16 
REMARK   13  A    between atoms: C18_20  and  C19_21 
REMARK   14  A    between atoms: C19_21  and  C20_22 
REMARK   15  A    between atoms: C20_22  and  C22_24 
REMARK   16  A    between atoms: C22_24  and  C23_25 
REMARK   17  A    between atoms: C23_25  and  O2_26 
REMARK   18  A    between atoms: O2_26  and  C24_27 
REMARK   19  A    between atoms: C24_27  and  C25_29 
ROOT
HETATM    1  C17 UNL     1      17.769  16.830  10.042  1.00  0.00     0.007 C 
HETATM    2  C18 UNL     1      17.804  16.866  11.468  1.00  0.00     0.001 C 
ENDROOT
BRANCH   1   3
HETATM    3  C2  UNL     1      18.172  17.858   9.271  1.00  0.00    -0.062 C 
HETATM    4  C1  UNL     1      19.528  17.887   8.706  1.00  0.00     0.048 C 
BRANCH   3   5
HETATM    5  C3  UNL     1      17.157  18.876   9.079  1.00  0.00     0.007 C 
BRANCH   5   6
HETATM    6  C4  UNL     1      16.499  19.559   9.898  1.00  0.00     0.001 C 
BRANCH   6   7
HETATM    7  C5  UNL     1      15.316  19.274  10.647  1.00  0.00     0.005 C 
BRANCH   7   8
HETATM    8  C6  UNL     1      14.130  19.121  10.014  1.00  0.00    -0.056 C 
HETATM    9  C7  UNL     1      13.330  20.309   9.729  1.00  0.00     0.046 C 
BRANCH   8  10
HETATM   10  C8  UNL     1      13.693  17.781   9.647  1.00  0.00     0.146 C 
BRANCH  10  11
HETATM   11  O1  UNL     1      12.299  17.760   9.578  1.00  0.00    -0.391 OA
ATOM     12  H1  UNL     1      11.947  17.650  10.454  1.00  0.00     0.210 HD
ENDBRANCH  10  11
BRANCH  10  13
HETATM   13  C9  UNL     1      14.141  16.832  10.800  1.00  0.00     0.036 C 
BRANCH  13  14
HETATM   14  C10 UNL     1      12.952  16.118  11.344  1.00  0.00     0.003 C 
BRANCH  14  15
HETATM   15  C11 UNL     1      13.217  15.319  12.541  1.00  0.00     0.005 C 
BRANCH  15  16
HETATM   16  C12 UNL     1      12.443  15.518  13.770  1.00  0.00    -0.015 C 
HETATM   17  C13 UNL     1      13.128  15.899  15.022  1.00  0.00     0.010 C 
BRANCH  16  18
HETATM   18  C14 UNL     1      11.608  14.272  14.060  1.00  0.00    -0.019 C 
HETATM   19  C15 UNL     1      11.934  13.689  15.407  1.00  0.00     0.010 C 
HETATM   20  C16 UNL     1      11.810  13.206  13.015  1.00  0.00     0.010 C 
ENDBRANCH  16  18
ENDBRANCH  15  16
ENDBRANCH  14  15
ENDBRANCH  13  14
ENDBRANCH  10  13
ENDBRANCH   8  10
ENDBRANCH   7   8
ENDBRANCH   6   7
ENDBRANCH   5   6
ENDBRANCH   3   5
ENDBRANCH   1   3
BRANCH   2  21
HETATM   21  C19 UNL     1      17.384  15.802  12.200  1.00  0.00     0.006 C 
BRANCH  21  22
HETATM   22  C20 UNL     1      16.758  16.078  13.477  1.00  0.00    -0.064 C 
HETATM   23  C21 UNL     1      16.248  17.467  13.766  1.00  0.00     0.048 C 
BRANCH  22  24
HETATM   24  C22 UNL     1      16.625  15.152  14.386  1.00  0.00     0.006 C 
BRANCH  24  25
HETATM   25  C23 UNL     1      16.961  15.336  15.803  1.00  0.00     0.207 C 
BRANCH  25  26
HETATM   26  O2  UNL     1      18.264  14.940  16.089  1.00  0.00    -0.312 OA
BRANCH  26  27
HETATM   27  C24 UNL     1      19.338  15.681  16.476  1.00  0.00     0.311 C 
HETATM   28  O3  UNL     1      20.473  15.352  16.085  1.00  0.00    -0.258 OA
BRANCH  27  29
HETATM   29  C25 UNL     1      19.190  16.867  17.349  1.00  0.00     0.126 A 
HETATM   30  C26 UNL     1      19.039  16.732  18.709  1.00  0.00     0.056 A 
HETATM   31  C27 UNL     1      18.903  17.850  19.500  1.00  0.00     0.111 A 
HETATM   32  N1  UNL     1      18.922  19.060  18.915  1.00  0.00    -0.297 N 
HETATM   33  N2  UNL     1      19.068  19.168  17.603  1.00  0.00    -0.243 N 
ATOM     34  H1  UNL     1      18.824  19.900  19.486  1.00  0.00     0.187 HD
HETATM   35  N3  UNL     1      19.200  18.105  16.832  1.00  0.00    -0.281 N 
ATOM     36  H2  UNL     1      19.078  20.095  17.178  1.00  0.00     0.208 HD
ATOM     37  H3  UNL     1      19.311  18.228  15.826  1.00  0.00     0.188 HD
ENDBRANCH  27  29
ENDBRANCH  26  27
ENDBRANCH  25  26
ENDBRANCH  24  25
ENDBRANCH  22  24
ENDBRANCH  21  22
ENDBRANCH   2  21
TORSDOF 19
ENDMDL
