MODEL 1
REMARK VINA RESULT: -9.511668945      0.000      0.000
REMARK  15 active torsions:
REMARK  status: ('A' for Active; 'I' for Inactive)
REMARK    1  A    between atoms: C2_2  and  O1_3 
REMARK    2  A    between atoms: O1_3  and  C3_4 
REMARK    3  A    between atoms: C3_4  and  C4_5 
REMARK    4  A    between atoms: C4_5  and  C5_6 
REMARK    5  A    between atoms: C5_6  and  C6_7 
REMARK    6  A    between atoms: C6_7  and  C7_8 
REMARK    7  A    between atoms: C9_10  and  C10_11 
REMARK    8  A    between atoms: C10_11  and  C11_12 
REMARK    9  A    between atoms: C11_12  and  C12_13 
REMARK   10  A    between atoms: C15_17  and  C16_18 
REMARK   11  A    between atoms: C16_18  and  C17_19 
REMARK   12  A    between atoms: C16_18  and  C20_24 
REMARK   13  A    between atoms: C18_20  and  C19_21 
REMARK   14  A    between atoms: C19_21  and  O3_22 
REMARK   15  A    between atoms: C21_25  and  C22_26 
ROOT
HETATM    1  C12 UNL     1      15.520  18.098  10.483  1.00  0.00     0.066 C 
HETATM    2  C13 UNL     1      14.204  18.269   9.769  1.00  0.00     0.028 C 
HETATM    3  C14 UNL     1      15.724  19.230  11.487  1.00  0.00     0.190 C 
HETATM    4  O2  UNL     1      15.612  20.422  10.776  1.00  0.00    -0.359 OA
HETATM    5  C15 UNL     1      16.702  20.633   9.950  1.00  0.00     0.280 C 
HETATM    6  O4  UNL     1      16.824  19.582   9.016  1.00  0.00    -0.288 OA
HETATM    7  C28 UNL     1      16.576  18.297   9.442  1.00  0.00     0.271 C 
HETATM    8  O5  UNL     1      17.222  17.337   8.964  1.00  0.00    -0.264 OA
ENDROOT
BRANCH   5   9
HETATM    9  C16 UNL     1      16.521  21.924   9.120  1.00  0.00     0.086 C 
BRANCH   9  10
HETATM   10  C17 UNL     1      15.407  22.699   9.609  1.00  0.00    -0.015 C 
HETATM   11  C18 UNL     1      14.999  23.855   9.073  1.00  0.00    -0.004 C 
BRANCH  11  12
HETATM   12  C19 UNL     1      13.864  24.634   9.579  1.00  0.00     0.191 C 
BRANCH  12  13
HETATM   13  O3  UNL     1      14.380  25.630  10.433  1.00  0.00    -0.397 OA
ATOM     14  H3  UNL     1      14.841  26.260   9.892  1.00  0.00     0.209 HD
ENDBRANCH  12  13
ENDBRANCH  11  12
ENDBRANCH   9  10
BRANCH   9  15
HETATM   15  C20 UNL     1      17.776  22.602   8.929  1.00  0.00    -0.013 C 
HETATM   16  C21 UNL     1      18.457  23.310   8.134  1.00  0.00     0.003 C 
BRANCH  16  17
HETATM   17  C22 UNL     1      18.464  23.935   6.865  1.00  0.00    -0.062 C 
HETATM   18  C23 UNL     1      17.449  23.660   5.980  1.00  0.00    -0.020 C 
HETATM   19  C24 UNL     1      17.514  24.344   4.672  1.00  0.00     0.027 C 
HETATM   20  C25 UNL     1      17.601  25.843   4.831  1.00  0.00     0.004 C 
HETATM   21  C26 UNL     1      18.663  26.175   5.838  1.00  0.00     0.005 C 
HETATM   22  C27 UNL     1      19.408  24.901   6.300  1.00  0.00     0.038 C 
ENDBRANCH  16  17
ENDBRANCH   9  15
ENDBRANCH   5   9
BRANCH   1  23
HETATM   23  C11 UNL     1      15.767  16.773  11.083  1.00  0.00     0.025 C 
BRANCH  23  24
HETATM   24  C10 UNL     1      14.660  16.092  11.819  1.00  0.00     0.029 C 
BRANCH  24  25
HETATM   25  C9  UNL     1      14.510  16.343  13.221  1.00  0.00    -0.020 C 
HETATM   26  C7  UNL     1      14.181  15.553  14.191  1.00  0.00    -0.070 C 
HETATM   27  C8  UNL     1      14.129  16.227  15.615  1.00  0.00     0.047 C 
BRANCH  26  28
HETATM   28  C6  UNL     1      13.840  14.146  14.274  1.00  0.00    -0.020 C 
BRANCH  28  29
HETATM   29  C5  UNL     1      12.461  13.674  14.367  1.00  0.00     0.030 C 
BRANCH  29  30
HETATM   30  C4  UNL     1      11.957  13.458  12.908  1.00  0.00     0.030 C 
BRANCH  30  31
HETATM   31  C3  UNL     1      10.480  13.102  13.071  1.00  0.00     0.174 C 
BRANCH  31  32
HETATM   32  O1  UNL     1       9.850  13.860  14.059  1.00  0.00    -0.364 OA
BRANCH  32  33
HETATM   33  C2  UNL     1       8.848  13.267  14.808  1.00  0.00     0.124 C 
HETATM   34  C1  UNL     1       8.601  13.592  16.046  1.00  0.00     0.037 C 
ENDBRANCH  32  33
ENDBRANCH  31  32
ENDBRANCH  30  31
ENDBRANCH  29  30
ENDBRANCH  28  29
ENDBRANCH  26  28
ENDBRANCH  24  25
ENDBRANCH  23  24
ENDBRANCH   1  23
TORSDOF 15
ENDMDL
MODEL 2
REMARK VINA RESULT: -9.343128166      2.094      3.600
REMARK  15 active torsions:
REMARK  status: ('A' for Active; 'I' for Inactive)
REMARK    1  A    between atoms: C2_2  and  O1_3 
REMARK    2  A    between atoms: O1_3  and  C3_4 
REMARK    3  A    between atoms: C3_4  and  C4_5 
REMARK    4  A    between atoms: C4_5  and  C5_6 
REMARK    5  A    between atoms: C5_6  and  C6_7 
REMARK    6  A    between atoms: C6_7  and  C7_8 
REMARK    7  A    between atoms: C9_10  and  C10_11 
REMARK    8  A    between atoms: C10_11  and  C11_12 
REMARK    9  A    between atoms: C11_12  and  C12_13 
REMARK   10  A    between atoms: C15_17  and  C16_18 
REMARK   11  A    between atoms: C16_18  and  C17_19 
REMARK   12  A    between atoms: C16_18  and  C20_24 
REMARK   13  A    between atoms: C18_20  and  C19_21 
REMARK   14  A    between atoms: C19_21  and  O3_22 
REMARK   15  A    between atoms: C21_25  and  C22_26 
ROOT
HETATM    1  C12 UNL     1      14.864  17.343  10.490  1.00  0.00     0.066 C 
HETATM    2  C13 UNL     1      15.798  17.005   9.357  1.00  0.00     0.028 C 
HETATM    3  C14 UNL     1      13.595  17.994   9.947  1.00  0.00     0.190 C 
HETATM    4  O2  UNL     1      13.998  19.093   9.193  1.00  0.00    -0.359 OA
HETATM    5  C15 UNL     1      14.472  20.119   9.991  1.00  0.00     0.280 C 
HETATM    6  O4  UNL     1      15.581  19.683  10.749  1.00  0.00    -0.288 OA
HETATM    7  C28 UNL     1      15.552  18.412  11.278  1.00  0.00     0.271 C 
HETATM    8  O5  UNL     1      16.088  18.177  12.385  1.00  0.00    -0.264 OA
ENDROOT
BRANCH   5   9
HETATM    9  C16 UNL     1      14.980  21.298   9.130  1.00  0.00     0.086 C 
BRANCH   9  10
HETATM   10  C17 UNL     1      14.682  22.561   9.761  1.00  0.00    -0.015 C 
HETATM   11  C18 UNL     1      14.369  23.680   9.097  1.00  0.00    -0.004 C 
BRANCH  11  12
HETATM   12  C19 UNL     1      14.067  24.958   9.749  1.00  0.00     0.191 C 
BRANCH  12  13
HETATM   13  O3  UNL     1      14.043  24.730  11.140  1.00  0.00    -0.397 OA
ATOM     14  H3  UNL     1      14.801  25.162  11.514  1.00  0.00     0.209 HD
ENDBRANCH  12  13
ENDBRANCH  11  12
ENDBRANCH   9  10
BRANCH   9  15
HETATM   15  C20 UNL     1      16.329  21.075   8.682  1.00  0.00    -0.013 C 
HETATM   16  C21 UNL     1      17.272  21.532   7.975  1.00  0.00     0.003 C 
BRANCH  16  17
HETATM   17  C22 UNL     1      17.664  22.591   7.123  1.00  0.00    -0.062 C 
HETATM   18  C23 UNL     1      16.813  22.990   6.120  1.00  0.00    -0.020 C 
HETATM   19  C24 UNL     1      17.281  24.099   5.264  1.00  0.00     0.027 C 
HETATM   20  C25 UNL     1      17.644  25.317   6.079  1.00  0.00     0.004 C 
HETATM   21  C26 UNL     1      18.527  24.905   7.220  1.00  0.00     0.005 C 
HETATM   22  C27 UNL     1      18.882  23.402   7.134  1.00  0.00     0.038 C 
ENDBRANCH  16  17
ENDBRANCH   9  15
ENDBRANCH   5   9
BRANCH   1  23
HETATM   23  C11 UNL     1      14.567  16.251  11.436  1.00  0.00     0.025 C 
BRANCH  23  24
HETATM   24  C10 UNL     1      13.146  15.847  11.655  1.00  0.00     0.029 C 
BRANCH  24  25
HETATM   25  C9  UNL     1      12.867  14.770  12.557  1.00  0.00    -0.020 C 
HETATM   26  C7  UNL     1      12.634  14.771  13.828  1.00  0.00    -0.070 C 
HETATM   27  C8  UNL     1      12.366  13.352  14.461  1.00  0.00     0.047 C 
BRANCH  26  28
HETATM   28  C6  UNL     1      12.559  15.809  14.839  1.00  0.00    -0.020 C 
BRANCH  28  29
HETATM   29  C5  UNL     1      13.617  16.029  15.821  1.00  0.00     0.030 C 
BRANCH  29  30
HETATM   30  C4  UNL     1      14.732  16.852  15.107  1.00  0.00     0.030 C 
BRANCH  30  31
HETATM   31  C3  UNL     1      15.952  15.931  15.134  1.00  0.00     0.174 C 
BRANCH  31  32
HETATM   32  O1  UNL     1      16.985  16.430  15.928  1.00  0.00    -0.364 OA
BRANCH  32  33
HETATM   33  C2  UNL     1      17.770  15.531  16.630  1.00  0.00     0.124 C 
HETATM   34  C1  UNL     1      18.077  15.690  17.888  1.00  0.00     0.037 C 
ENDBRANCH  32  33
ENDBRANCH  31  32
ENDBRANCH  30  31
ENDBRANCH  29  30
ENDBRANCH  28  29
ENDBRANCH  26  28
ENDBRANCH  24  25
ENDBRANCH  23  24
ENDBRANCH   1  23
TORSDOF 15
ENDMDL
MODEL 3
REMARK VINA RESULT: -9.202522784      1.283      1.834
REMARK  15 active torsions:
REMARK  status: ('A' for Active; 'I' for Inactive)
REMARK    1  A    between atoms: C2_2  and  O1_3 
REMARK    2  A    between atoms: O1_3  and  C3_4 
REMARK    3  A    between atoms: C3_4  and  C4_5 
REMARK    4  A    between atoms: C4_5  and  C5_6 
REMARK    5  A    between atoms: C5_6  and  C6_7 
REMARK    6  A    between atoms: C6_7  and  C7_8 
REMARK    7  A    between atoms: C9_10  and  C10_11 
REMARK    8  A    between atoms: C10_11  and  C11_12 
REMARK    9  A    between atoms: C11_12  and  C12_13 
REMARK   10  A    between atoms: C15_17  and  C16_18 
REMARK   11  A    between atoms: C16_18  and  C17_19 
REMARK   12  A    between atoms: C16_18  and  C20_24 
REMARK   13  A    between atoms: C18_20  and  C19_21 
REMARK   14  A    between atoms: C19_21  and  O3_22 
REMARK   15  A    between atoms: C21_25  and  C22_26 
ROOT
HETATM    1  C12 UNL     1      16.048  17.871  10.392  1.00  0.00     0.066 C 
HETATM    2  C13 UNL     1      14.740  17.875   9.644  1.00  0.00     0.028 C 
HETATM    3  C14 UNL     1      16.057  18.982  11.439  1.00  0.00     0.190 C 
HETATM    4  O2  UNL     1      15.789  20.171  10.766  1.00  0.00    -0.359 OA
HETATM    5  C15 UNL     1      16.856  20.571   9.981  1.00  0.00     0.280 C 
HETATM    6  O4  UNL     1      17.156  19.585   9.015  1.00  0.00    -0.288 OA
HETATM    7  C28 UNL     1      17.088  18.262   9.390  1.00  0.00     0.271 C 
HETATM    8  O5  UNL     1      17.881  17.426   8.899  1.00  0.00    -0.264 OA
ENDROOT
BRANCH   5   9
HETATM    9  C16 UNL     1      16.508  21.852   9.189  1.00  0.00     0.086 C 
BRANCH   9  10
HETATM   10  C17 UNL     1      15.281  22.437   9.671  1.00  0.00    -0.015 C 
HETATM   11  C18 UNL     1      14.971  23.734   9.565  1.00  0.00    -0.004 C 
BRANCH  11  12
HETATM   12  C19 UNL     1      13.719  24.317  10.058  1.00  0.00     0.191 C 
BRANCH  12  13
HETATM   13  O3  UNL     1      13.472  23.773  11.336  1.00  0.00    -0.397 OA
ATOM     14  H3  UNL     1      14.308  23.703  11.783  1.00  0.00     0.209 HD
ENDBRANCH  12  13
ENDBRANCH  11  12
ENDBRANCH   9  10
BRANCH   9  15
HETATM   15  C20 UNL     1      17.654  22.712   9.058  1.00  0.00    -0.013 C 
HETATM   16  C21 UNL     1      18.297  23.464   8.271  1.00  0.00     0.003 C 
BRANCH  16  17
HETATM   17  C22 UNL     1      18.342  23.989   6.958  1.00  0.00    -0.062 C 
HETATM   18  C23 UNL     1      17.341  23.662   6.075  1.00  0.00    -0.020 C 
HETATM   19  C24 UNL     1      17.445  24.242   4.720  1.00  0.00     0.027 C 
HETATM   20  C25 UNL     1      17.555  25.747   4.765  1.00  0.00     0.004 C 
HETATM   21  C26 UNL     1      18.601  26.139   5.766  1.00  0.00     0.005 C 
HETATM   22  C27 UNL     1      19.314  24.893   6.342  1.00  0.00     0.038 C 
ENDBRANCH  16  17
ENDBRANCH   9  15
ENDBRANCH   5   9
BRANCH   1  23
HETATM   23  C11 UNL     1      16.472  16.575  10.953  1.00  0.00     0.025 C 
BRANCH  23  24
HETATM   24  C10 UNL     1      17.680  16.524  11.830  1.00  0.00     0.029 C 
BRANCH  24  25
HETATM   25  C9  UNL     1      17.632  15.733  13.023  1.00  0.00    -0.020 C 
HETATM   26  C7  UNL     1      16.880  15.828  14.070  1.00  0.00    -0.070 C 
HETATM   27  C8  UNL     1      17.142  14.743  15.184  1.00  0.00     0.047 C 
BRANCH  26  28
HETATM   28  C6  UNL     1      15.815  16.729  14.470  1.00  0.00    -0.020 C 
BRANCH  28  29
HETATM   29  C5  UNL     1      14.505  16.254  14.908  1.00  0.00     0.030 C 
BRANCH  29  30
HETATM   30  C4  UNL     1      13.867  15.508  13.697  1.00  0.00     0.030 C 
BRANCH  30  31
HETATM   31  C3  UNL     1      13.585  14.104  14.231  1.00  0.00     0.174 C 
BRANCH  31  32
HETATM   32  O1  UNL     1      12.487  13.504  13.613  1.00  0.00    -0.364 OA
BRANCH  32  33
HETATM   33  C2  UNL     1      11.442  13.063  14.408  1.00  0.00     0.124 C 
HETATM   34  C1  UNL     1      11.355  13.335  15.680  1.00  0.00     0.037 C 
ENDBRANCH  32  33
ENDBRANCH  31  32
ENDBRANCH  30  31
ENDBRANCH  29  30
ENDBRANCH  28  29
ENDBRANCH  26  28
ENDBRANCH  24  25
ENDBRANCH  23  24
ENDBRANCH   1  23
TORSDOF 15
ENDMDL
MODEL 4
REMARK VINA RESULT: -9.198753896      2.133      3.721
REMARK  15 active torsions:
REMARK  status: ('A' for Active; 'I' for Inactive)
REMARK    1  A    between atoms: C2_2  and  O1_3 
REMARK    2  A    between atoms: O1_3  and  C3_4 
REMARK    3  A    between atoms: C3_4  and  C4_5 
REMARK    4  A    between atoms: C4_5  and  C5_6 
REMARK    5  A    between atoms: C5_6  and  C6_7 
REMARK    6  A    between atoms: C6_7  and  C7_8 
REMARK    7  A    between atoms: C9_10  and  C10_11 
REMARK    8  A    between atoms: C10_11  and  C11_12 
REMARK    9  A    between atoms: C11_12  and  C12_13 
REMARK   10  A    between atoms: C15_17  and  C16_18 
REMARK   11  A    between atoms: C16_18  and  C17_19 
REMARK   12  A    between atoms: C16_18  and  C20_24 
REMARK   13  A    between atoms: C18_20  and  C19_21 
REMARK   14  A    between atoms: C19_21  and  O3_22 
REMARK   15  A    between atoms: C21_25  and  C22_26 
ROOT
HETATM    1  C12 UNL     1      14.677  17.408  10.387  1.00  0.00     0.066 C 
HETATM    2  C13 UNL     1      15.593  17.103   9.230  1.00  0.00     0.028 C 
HETATM    3  C14 UNL     1      13.356  17.976   9.874  1.00  0.00     0.190 C 
HETATM    4  O2  UNL     1      13.672  19.083   9.090  1.00  0.00    -0.359 OA
HETATM    5  C15 UNL     1      14.111  20.148   9.856  1.00  0.00     0.280 C 
HETATM    6  O4  UNL     1      15.267  19.789  10.585  1.00  0.00    -0.288 OA
HETATM    7  C28 UNL     1      15.327  18.529  11.135  1.00  0.00     0.271 C 
HETATM    8  O5  UNL     1      15.910  18.344  12.228  1.00  0.00    -0.264 OA
ENDROOT
BRANCH   5   9
HETATM    9  C16 UNL     1      14.524  21.338   8.960  1.00  0.00     0.086 C 
BRANCH   9  10
HETATM   10  C17 UNL     1      14.179  22.593   9.582  1.00  0.00    -0.015 C 
HETATM   11  C18 UNL     1      13.772  23.679   8.915  1.00  0.00    -0.004 C 
BRANCH  11  12
HETATM   12  C19 UNL     1      13.424  24.950   9.558  1.00  0.00     0.191 C 
BRANCH  12  13
HETATM   13  O3  UNL     1      14.497  25.307  10.401  1.00  0.00    -0.397 OA
ATOM     14  H3  UNL     1      14.278  26.137  10.808  1.00  0.00     0.209 HD
ENDBRANCH  12  13
ENDBRANCH  11  12
ENDBRANCH   9  10
BRANCH   9  15
HETATM   15  C20 UNL     1      15.866  21.181   8.468  1.00  0.00    -0.013 C 
HETATM   16  C21 UNL     1      16.842  21.770   7.922  1.00  0.00     0.003 C 
BRANCH  16  17
HETATM   17  C22 UNL     1      17.301  23.006   7.409  1.00  0.00    -0.062 C 
HETATM   18  C23 UNL     1      18.390  23.607   7.992  1.00  0.00    -0.020 C 
HETATM   19  C24 UNL     1      18.820  24.895   7.411  1.00  0.00     0.027 C 
HETATM   20  C25 UNL     1      19.091  24.775   5.930  1.00  0.00     0.004 C 
HETATM   21  C26 UNL     1      17.943  24.069   5.271  1.00  0.00     0.005 C 
HETATM   22  C27 UNL     1      16.804  23.796   6.281  1.00  0.00     0.038 C 
ENDBRANCH  16  17
ENDBRANCH   9  15
ENDBRANCH   5   9
BRANCH   1  23
HETATM   23  C11 UNL     1      14.472  16.318  11.359  1.00  0.00     0.025 C 
BRANCH  23  24
HETATM   24  C10 UNL     1      13.081  15.872  11.668  1.00  0.00     0.029 C 
BRANCH  24  25
HETATM   25  C9  UNL     1      12.893  14.784  12.580  1.00  0.00    -0.020 C 
HETATM   26  C7  UNL     1      12.686  14.776  13.856  1.00  0.00    -0.070 C 
HETATM   27  C8  UNL     1      12.526  13.346  14.500  1.00  0.00     0.047 C 
BRANCH  26  28
HETATM   28  C6  UNL     1      12.562  15.812  14.864  1.00  0.00    -0.020 C 
BRANCH  28  29
HETATM   29  C5  UNL     1      13.624  16.106  15.824  1.00  0.00     0.030 C 
BRANCH  29  30
HETATM   30  C4  UNL     1      14.730  16.884  15.050  1.00  0.00     0.030 C 
BRANCH  30  31
HETATM   31  C3  UNL     1      15.936  15.945  15.078  1.00  0.00     0.174 C 
BRANCH  31  32
HETATM   32  O1  UNL     1      16.743  16.138  16.199  1.00  0.00    -0.364 OA
BRANCH  32  33
HETATM   33  C2  UNL     1      17.943  15.451  16.275  1.00  0.00     0.124 C 
HETATM   34  C1  UNL     1      18.435  14.772  15.278  1.00  0.00     0.037 C 
ENDBRANCH  32  33
ENDBRANCH  31  32
ENDBRANCH  30  31
ENDBRANCH  29  30
ENDBRANCH  28  29
ENDBRANCH  26  28
ENDBRANCH  24  25
ENDBRANCH  23  24
ENDBRANCH   1  23
TORSDOF 15
ENDMDL
MODEL 5
REMARK VINA RESULT: -9.117595777      2.595      4.340
REMARK  15 active torsions:
REMARK  status: ('A' for Active; 'I' for Inactive)
REMARK    1  A    between atoms: C2_2  and  O1_3 
REMARK    2  A    between atoms: O1_3  and  C3_4 
REMARK    3  A    between atoms: C3_4  and  C4_5 
REMARK    4  A    between atoms: C4_5  and  C5_6 
REMARK    5  A    between atoms: C5_6  and  C6_7 
REMARK    6  A    between atoms: C6_7  and  C7_8 
REMARK    7  A    between atoms: C9_10  and  C10_11 
REMARK    8  A    between atoms: C10_11  and  C11_12 
REMARK    9  A    between atoms: C11_12  and  C12_13 
REMARK   10  A    between atoms: C15_17  and  C16_18 
REMARK   11  A    between atoms: C16_18  and  C17_19 
REMARK   12  A    between atoms: C16_18  and  C20_24 
REMARK   13  A    between atoms: C18_20  and  C19_21 
REMARK   14  A    between atoms: C19_21  and  O3_22 
REMARK   15  A    between atoms: C21_25  and  C22_26 
ROOT
HETATM    1  C12 UNL     1      15.856  18.322  10.270  1.00  0.00     0.066 C 
HETATM    2  C13 UNL     1      14.619  18.326   9.410  1.00  0.00     0.028 C 
HETATM    3  C14 UNL     1      15.768  19.425  11.321  1.00  0.00     0.190 C 
HETATM    4  O2  UNL     1      15.555  20.617  10.635  1.00  0.00    -0.359 OA
HETATM    5  C15 UNL     1      16.686  21.027   9.950  1.00  0.00     0.280 C 
HETATM    6  O4  UNL     1      17.073  20.048   9.008  1.00  0.00    -0.288 OA
HETATM    7  C28 UNL     1      16.979  18.723   9.366  1.00  0.00     0.271 C 
HETATM    8  O5  UNL     1      17.815  17.893   8.942  1.00  0.00    -0.264 OA
ENDROOT
BRANCH   5   9
HETATM    9  C16 UNL     1      16.404  22.312   9.139  1.00  0.00     0.086 C 
BRANCH   9  10
HETATM   10  C17 UNL     1      15.219  22.976   9.624  1.00  0.00    -0.015 C 
HETATM   11  C18 UNL     1      14.909  24.252   9.365  1.00  0.00    -0.004 C 
BRANCH  11  12
HETATM   12  C19 UNL     1      13.701  24.916   9.863  1.00  0.00     0.191 C 
BRANCH  12  13
HETATM   13  O3  UNL     1      14.097  25.813  10.877  1.00  0.00    -0.397 OA
ATOM     14  H3  UNL     1      13.845  25.431  11.710  1.00  0.00     0.209 HD
ENDBRANCH  12  13
ENDBRANCH  11  12
ENDBRANCH   9  10
BRANCH   9  15
HETATM   15  C20 UNL     1      17.596  23.101   8.980  1.00  0.00    -0.013 C 
HETATM   16  C21 UNL     1      18.283  23.782   8.166  1.00  0.00     0.003 C 
BRANCH  16  17
HETATM   17  C22 UNL     1      18.363  24.249   6.833  1.00  0.00    -0.062 C 
HETATM   18  C23 UNL     1      17.419  23.835   5.925  1.00  0.00    -0.020 C 
HETATM   19  C24 UNL     1      17.557  24.356   4.549  1.00  0.00     0.027 C 
HETATM   20  C25 UNL     1      17.595  25.866   4.528  1.00  0.00     0.004 C 
HETATM   21  C26 UNL     1      18.576  26.352   5.553  1.00  0.00     0.005 C 
HETATM   22  C27 UNL     1      19.319  25.170   6.217  1.00  0.00     0.038 C 
ENDBRANCH  16  17
ENDBRANCH   9  15
ENDBRANCH   5   9
BRANCH   1  23
HETATM   23  C11 UNL     1      16.234  17.023  10.858  1.00  0.00     0.025 C 
BRANCH  23  24
HETATM   24  C10 UNL     1      16.299  16.890  12.344  1.00  0.00     0.029 C 
BRANCH  24  25
HETATM   25  C9  UNL     1      15.280  16.138  13.013  1.00  0.00    -0.020 C 
HETATM   26  C7  UNL     1      15.231  15.665  14.215  1.00  0.00    -0.070 C 
HETATM   27  C8  UNL     1      13.909  14.883  14.574  1.00  0.00     0.047 C 
BRANCH  26  28
HETATM   28  C6  UNL     1      16.138  15.689  15.347  1.00  0.00    -0.020 C 
BRANCH  28  29
HETATM   29  C5  UNL     1      17.477  15.106  15.295  1.00  0.00     0.030 C 
BRANCH  29  30
HETATM   30  C4  UNL     1      18.481  16.245  15.646  1.00  0.00     0.030 C 
BRANCH  30  31
HETATM   31  C3  UNL     1      18.664  16.128  17.159  1.00  0.00     0.174 C 
BRANCH  31  32
HETATM   32  O1  UNL     1      18.872  17.363  17.773  1.00  0.00    -0.364 OA
BRANCH  32  33
HETATM   33  C2  UNL     1      19.711  18.275  17.155  1.00  0.00     0.124 C 
HETATM   34  C1  UNL     1      19.925  19.473  17.623  1.00  0.00     0.037 C 
ENDBRANCH  32  33
ENDBRANCH  31  32
ENDBRANCH  30  31
ENDBRANCH  29  30
ENDBRANCH  28  29
ENDBRANCH  26  28
ENDBRANCH  24  25
ENDBRANCH  23  24
ENDBRANCH   1  23
TORSDOF 15
ENDMDL
