MODEL 1
REMARK VINA RESULT: -8.801271082      0.000      0.000
REMARK  13 active torsions:
REMARK  status: ('A' for Active; 'I' for Inactive)
REMARK    1  A    between atoms: C2_3  and  C3_4 
REMARK    2  A    between atoms: C7_10  and  C8_11 
REMARK       I    between atoms: C8_11  and  N2_13 
REMARK    3  A    between atoms: N2_13  and  C9_15 
REMARK    4  A    between atoms: C10_20  and  C11_21 
REMARK    5  A    between atoms: C11_21  and  C12_22 
REMARK    6  A    between atoms: C12_22  and  S1_23 
REMARK    7  A    between atoms: S1_23  and  C13_26 
REMARK    8  A    between atoms: C13_26  and  C14_27 
REMARK    9  A    between atoms: C14_27  and  C15_28 
REMARK   10  A    between atoms: C15_28  and  C16_29 
REMARK   11  A    between atoms: C16_29  and  C17_30 
REMARK   12  A    between atoms: C17_30  and  C18_31 
REMARK   13  A    between atoms: C18_31  and  N5_32 
ROOT
HETATM    1  C9  UNL     1      17.293  24.010  15.992  1.00  0.00     0.168 A 
HETATM    2  N3  UNL     1      16.697  25.028  16.613  1.00  0.00    -0.279 N 
ATOM      3  H3  UNL     1      15.681  25.062  16.688  1.00  0.00     0.189 HD
HETATM    4  N4  UNL     1      17.403  25.950  17.106  1.00  0.00    -0.296 N 
ATOM      5  H4  UNL     1      16.952  26.731  17.583  1.00  0.00     0.187 HD
HETATM    6  C10 UNL     1      18.737  25.915  17.012  1.00  0.00     0.070 A 
HETATM    7  S2  UNL     1      18.941  24.427  16.141  1.00  0.00    -0.038 SA
ENDROOT
BRANCH   1   8
HETATM    8  N2  UNL     1      16.730  22.969  15.420  1.00  0.00    -0.302 N 
HETATM    9  C8  UNL     1      16.631  21.816  16.220  1.00  0.00     0.257 C 
HETATM   10  O3  UNL     1      17.654  21.216  16.584  1.00  0.00    -0.267 OA
ATOM     11  H2  UNL     1      16.388  22.995  14.460  1.00  0.00     0.171 HD
BRANCH   9  12
HETATM   12  C7  UNL     1      15.315  21.337  16.616  1.00  0.00     0.033 A 
HETATM   13  C6  UNL     1      15.146  20.460  17.670  1.00  0.00     0.030 A 
HETATM   14  C5  UNL     1      13.896  20.022  18.024  1.00  0.00    -0.006 A 
HETATM   15  C4  UNL     1      13.432  19.154  19.021  1.00  0.00     0.050 A 
HETATM   16  C25 UNL     1      12.751  20.420  17.367  1.00  0.00     0.045 A 
HETATM   17  C2  UNL     1      12.055  19.056  18.938  1.00  0.00     0.113 A 
HETATM   18  N1  UNL     1      11.656  19.837  17.922  1.00  0.00    -0.345 N 
HETATM   19  C1  UNL     1      10.283  20.025  17.488  1.00  0.00     0.156 C 
HETATM   20  C24 UNL     1      12.940  21.296  16.319  1.00  0.00     0.031 A 
HETATM   21  C23 UNL     1      14.179  21.749  15.944  1.00  0.00     0.019 A 
BRANCH  17  22
HETATM   22  C3  UNL     1      11.210  18.247  19.807  1.00  0.00     0.227 C 
HETATM   23  O1  UNL     1      10.727  18.769  20.839  1.00  0.00    -0.643 OA
HETATM   24  O2  UNL     1      10.941  16.902  19.492  1.00  0.00    -0.643 OA
ENDBRANCH  17  22
ENDBRANCH   9  12
ENDBRANCH   1   8
BRANCH   6  25
HETATM   25  C11 UNL     1      19.744  26.851  17.501  1.00  0.00     0.082 C 
BRANCH  25  26
HETATM   26  C12 UNL     1      20.606  27.523  16.559  1.00  0.00     0.151 C 
BRANCH  26  27
HETATM   27  S1  UNL     1      22.367  27.356  16.651  1.00  0.00     0.165 S 
HETATM   28  O4  UNL     1      22.838  26.288  15.697  1.00  0.00    -0.223 OA
HETATM   29  O5  UNL     1      22.846  28.705  16.043  1.00  0.00    -0.223 OA
BRANCH  27  30
HETATM   30  C13 UNL     1      22.927  27.183  18.272  1.00  0.00     0.105 C 
BRANCH  30  31
HETATM   31  C14 UNL     1      23.007  25.903  18.959  1.00  0.00    -0.015 C 
BRANCH  31  32
HETATM   32  C15 UNL     1      23.174  25.679  20.392  1.00  0.00     0.028 C 
BRANCH  32  33
HETATM   33  C16 UNL     1      21.957  25.438  21.200  1.00  0.00     0.005 C 
BRANCH  33  34
HETATM   34  C17 UNL     1      20.921  24.720  20.324  1.00  0.00     0.020 C 
BRANCH  34  35
HETATM   35  C18 UNL     1      19.527  24.933  20.799  1.00  0.00     0.125 C 
BRANCH  35  36
HETATM   36  N5  UNL     1      18.640  23.812  20.716  1.00  0.00    -0.352 N 
HETATM   37  C19 UNL     1      18.885  22.484  21.244  1.00  0.00     0.126 C 
HETATM   38  C20 UNL     1      18.156  21.591  20.217  1.00  0.00     0.029 C 
HETATM   39  C21 UNL     1      16.912  22.398  20.011  1.00  0.00     0.104 C 
HETATM   40  C22 UNL     1      17.373  23.800  20.054  1.00  0.00     0.219 C 
HETATM   41  O6  UNL     1      16.750  24.812  19.583  1.00  0.00    -0.273 OA
ENDBRANCH  35  36
ENDBRANCH  34  35
ENDBRANCH  33  34
ENDBRANCH  32  33
ENDBRANCH  31  32
ENDBRANCH  30  31
ENDBRANCH  27  30
ENDBRANCH  26  27
ENDBRANCH  25  26
ENDBRANCH   6  25
TORSDOF 13
ENDMDL
MODEL 2
REMARK VINA RESULT: -8.780220438      3.905     10.822
REMARK  13 active torsions:
REMARK  status: ('A' for Active; 'I' for Inactive)
REMARK    1  A    between atoms: C2_3  and  C3_4 
REMARK    2  A    between atoms: C7_10  and  C8_11 
REMARK       I    between atoms: C8_11  and  N2_13 
REMARK    3  A    between atoms: N2_13  and  C9_15 
REMARK    4  A    between atoms: C10_20  and  C11_21 
REMARK    5  A    between atoms: C11_21  and  C12_22 
REMARK    6  A    between atoms: C12_22  and  S1_23 
REMARK    7  A    between atoms: S1_23  and  C13_26 
REMARK    8  A    between atoms: C13_26  and  C14_27 
REMARK    9  A    between atoms: C14_27  and  C15_28 
REMARK   10  A    between atoms: C15_28  and  C16_29 
REMARK   11  A    between atoms: C16_29  and  C17_30 
REMARK   12  A    between atoms: C17_30  and  C18_31 
REMARK   13  A    between atoms: C18_31  and  N5_32 
ROOT
HETATM    1  C9  UNL     1      13.047  22.230  15.689  1.00  0.00     0.168 A 
HETATM    2  N3  UNL     1      13.912  21.242  15.457  1.00  0.00    -0.279 N 
ATOM      3  H3  UNL     1      14.847  21.270  15.862  1.00  0.00     0.189 HD
HETATM    4  N4  UNL     1      13.561  20.271  14.731  1.00  0.00    -0.296 N 
ATOM      5  H4  UNL     1      14.219  19.513  14.551  1.00  0.00     0.187 HD
HETATM    6  C10 UNL     1      12.336  20.225  14.195  1.00  0.00     0.070 A 
HETATM    7  S2  UNL     1      11.680  21.711  14.811  1.00  0.00    -0.038 SA
ENDROOT
BRANCH   1   8
HETATM    8  N2  UNL     1      13.230  23.312  16.412  1.00  0.00    -0.302 N 
HETATM    9  C8  UNL     1      14.176  23.201  17.446  1.00  0.00     0.257 C 
HETATM   10  O3  UNL     1      13.965  22.448  18.409  1.00  0.00    -0.267 OA
ATOM     11  H2  UNL     1      12.718  24.177  16.233  1.00  0.00     0.171 HD
BRANCH   9  12
HETATM   12  C7  UNL     1      15.403  23.979  17.373  1.00  0.00     0.033 A 
HETATM   13  C6  UNL     1      15.787  24.626  16.215  1.00  0.00     0.030 A 
HETATM   14  C5  UNL     1      16.948  25.353  16.169  1.00  0.00    -0.006 A 
HETATM   15  C4  UNL     1      17.576  26.095  15.160  1.00  0.00     0.050 A 
HETATM   16  C25 UNL     1      17.791  25.484  17.254  1.00  0.00     0.045 A 
HETATM   17  C2  UNL     1      18.748  26.638  15.652  1.00  0.00     0.113 A 
HETATM   18  N1  UNL     1      18.863  26.254  16.934  1.00  0.00    -0.345 N 
HETATM   19  C1  UNL     1      19.954  26.604  17.827  1.00  0.00     0.156 C 
HETATM   20  C24 UNL     1      17.390  24.832  18.401  1.00  0.00     0.031 A 
HETATM   21  C23 UNL     1      16.233  24.098  18.472  1.00  0.00     0.019 A 
BRANCH  17  22
HETATM   22  C3  UNL     1      19.677  27.472  14.900  1.00  0.00     0.227 C 
HETATM   23  O1  UNL     1      20.531  26.920  14.169  1.00  0.00    -0.643 OA
HETATM   24  O2  UNL     1      19.615  28.875  14.996  1.00  0.00    -0.643 OA
ENDBRANCH  17  22
ENDBRANCH   9  12
ENDBRANCH   1   8
BRANCH   6  25
HETATM   25  C11 UNL     1      11.715  19.219  13.340  1.00  0.00     0.082 C 
BRANCH  25  26
HETATM   26  C12 UNL     1      10.312  19.324  13.023  1.00  0.00     0.151 C 
BRANCH  26  27
HETATM   27  S1  UNL     1       9.395  17.919  12.455  1.00  0.00     0.165 S 
HETATM   28  O4  UNL     1       7.946  18.288  12.262  1.00  0.00    -0.223 OA
HETATM   29  O5  UNL     1       9.973  17.721  11.025  1.00  0.00    -0.223 OA
BRANCH  27  30
HETATM   30  C13 UNL     1       9.669  16.520  13.425  1.00  0.00     0.105 C 
BRANCH  30  31
HETATM   31  C14 UNL     1       9.280  16.427  14.824  1.00  0.00    -0.015 C 
BRANCH  31  32
HETATM   32  C15 UNL     1      10.160  16.432  15.987  1.00  0.00     0.028 C 
BRANCH  32  33
HETATM   33  C16 UNL     1       9.802  17.313  17.122  1.00  0.00     0.005 C 
BRANCH  33  34
HETATM   34  C17 UNL     1      10.042  18.770  16.704  1.00  0.00     0.020 C 
BRANCH  34  35
HETATM   35  C18 UNL     1      10.488  19.623  17.839  1.00  0.00     0.125 C 
BRANCH  35  36
HETATM   36  N5  UNL     1      11.632  19.171  18.573  1.00  0.00    -0.352 N 
HETATM   37  C19 UNL     1      12.983  19.044  18.063  1.00  0.00     0.126 C 
HETATM   38  C20 UNL     1      13.510  17.827  18.852  1.00  0.00     0.029 C 
HETATM   39  C21 UNL     1      12.952  18.137  20.206  1.00  0.00     0.104 C 
HETATM   40  C22 UNL     1      11.626  18.723  19.931  1.00  0.00     0.219 C 
HETATM   41  O6  UNL     1      10.655  18.812  20.757  1.00  0.00    -0.273 OA
ENDBRANCH  35  36
ENDBRANCH  34  35
ENDBRANCH  33  34
ENDBRANCH  32  33
ENDBRANCH  31  32
ENDBRANCH  30  31
ENDBRANCH  27  30
ENDBRANCH  26  27
ENDBRANCH  25  26
ENDBRANCH   6  25
TORSDOF 13
ENDMDL
MODEL 3
REMARK VINA RESULT: -8.645026890      1.944      2.652
REMARK  13 active torsions:
REMARK  status: ('A' for Active; 'I' for Inactive)
REMARK    1  A    between atoms: C2_3  and  C3_4 
REMARK    2  A    between atoms: C7_10  and  C8_11 
REMARK       I    between atoms: C8_11  and  N2_13 
REMARK    3  A    between atoms: N2_13  and  C9_15 
REMARK    4  A    between atoms: C10_20  and  C11_21 
REMARK    5  A    between atoms: C11_21  and  C12_22 
REMARK    6  A    between atoms: C12_22  and  S1_23 
REMARK    7  A    between atoms: S1_23  and  C13_26 
REMARK    8  A    between atoms: C13_26  and  C14_27 
REMARK    9  A    between atoms: C14_27  and  C15_28 
REMARK   10  A    between atoms: C15_28  and  C16_29 
REMARK   11  A    between atoms: C16_29  and  C17_30 
REMARK   12  A    between atoms: C17_30  and  C18_31 
REMARK   13  A    between atoms: C18_31  and  N5_32 
ROOT
HETATM    1  C9  UNL     1      15.927  24.247  16.771  1.00  0.00     0.168 A 
HETATM    2  N3  UNL     1      16.507  23.372  15.948  1.00  0.00    -0.279 N 
ATOM      3  H3  UNL     1      16.063  22.475  15.754  1.00  0.00     0.189 HD
HETATM    4  N4  UNL     1      17.610  23.666  15.412  1.00  0.00    -0.296 N 
ATOM      5  H4  UNL     1      18.058  23.000  14.781  1.00  0.00     0.187 HD
HETATM    6  C10 UNL     1      18.201  24.840  15.660  1.00  0.00     0.070 A 
HETATM    7  S2  UNL     1      17.043  25.537  16.751  1.00  0.00    -0.038 SA
ENDROOT
BRANCH   1   8
HETATM    8  N2  UNL     1      14.790  24.120  17.417  1.00  0.00    -0.302 N 
HETATM    9  C8  UNL     1      13.822  23.312  16.792  1.00  0.00     0.257 C 
HETATM   10  O3  UNL     1      13.312  23.664  15.717  1.00  0.00    -0.267 OA
ATOM     11  H2  UNL     1      14.620  24.577  18.313  1.00  0.00     0.171 HD
BRANCH   9  12
HETATM   12  C7  UNL     1      13.428  22.061  17.421  1.00  0.00     0.033 A 
HETATM   13  C6  UNL     1      12.495  21.220  16.846  1.00  0.00     0.030 A 
HETATM   14  C5  UNL     1      12.139  20.045  17.457  1.00  0.00    -0.006 A 
HETATM   15  C4  UNL     1      11.244  19.022  17.119  1.00  0.00     0.050 A 
HETATM   16  C25 UNL     1      12.678  19.635  18.659  1.00  0.00     0.045 A 
HETATM   17  C2  UNL     1      11.268  18.049  18.101  1.00  0.00     0.113 A 
HETATM   18  N1  UNL     1      12.151  18.440  19.034  1.00  0.00    -0.345 N 
HETATM   19  C1  UNL     1      12.483  17.708  20.243  1.00  0.00     0.156 C 
HETATM   20  C24 UNL     1      13.607  20.487  19.216  1.00  0.00     0.031 A 
HETATM   21  C23 UNL     1      13.981  21.667  18.626  1.00  0.00     0.019 A 
BRANCH  17  22
HETATM   22  C3  UNL     1      10.473  16.828  18.103  1.00  0.00     0.227 C 
HETATM   23  O1  UNL     1       9.445  16.776  18.819  1.00  0.00    -0.643 OA
HETATM   24  O2  UNL     1      10.854  15.725  17.317  1.00  0.00    -0.643 OA
ENDBRANCH  17  22
ENDBRANCH   9  12
ENDBRANCH   1   8
BRANCH   6  25
HETATM   25  C11 UNL     1      19.456  25.392  15.160  1.00  0.00     0.082 C 
BRANCH  25  26
HETATM   26  C12 UNL     1      19.435  26.594  14.361  1.00  0.00     0.151 C 
BRANCH  26  27
HETATM   27  S1  UNL     1      20.641  27.869  14.596  1.00  0.00     0.165 S 
HETATM   28  O4  UNL     1      20.938  28.551  13.285  1.00  0.00    -0.223 OA
HETATM   29  O5  UNL     1      19.846  28.905  15.440  1.00  0.00    -0.223 OA
BRANCH  27  30
HETATM   30  C13 UNL     1      22.026  27.312  15.458  1.00  0.00     0.105 C 
BRANCH  30  31
HETATM   31  C14 UNL     1      22.280  27.628  16.856  1.00  0.00    -0.015 C 
BRANCH  31  32
HETATM   32  C15 UNL     1      21.927  26.825  18.021  1.00  0.00     0.028 C 
BRANCH  32  33
HETATM   33  C16 UNL     1      20.493  26.697  18.365  1.00  0.00     0.005 C 
BRANCH  33  34
HETATM   34  C17 UNL     1      20.341  25.605  19.434  1.00  0.00     0.020 C 
BRANCH  34  35
HETATM   35  C18 UNL     1      19.918  24.299  18.858  1.00  0.00     0.125 C 
BRANCH  35  36
HETATM   36  N5  UNL     1      19.037  23.499  19.656  1.00  0.00    -0.352 N 
HETATM   37  C19 UNL     1      18.810  23.636  21.081  1.00  0.00     0.126 C 
HETATM   38  C20 UNL     1      18.555  22.174  21.506  1.00  0.00     0.029 C 
HETATM   39  C21 UNL     1      17.690  21.723  20.370  1.00  0.00     0.104 C 
HETATM   40  C22 UNL     1      18.261  22.395  19.186  1.00  0.00     0.219 C 
HETATM   41  O6  UNL     1      18.089  22.048  17.967  1.00  0.00    -0.273 OA
ENDBRANCH  35  36
ENDBRANCH  34  35
ENDBRANCH  33  34
ENDBRANCH  32  33
ENDBRANCH  31  32
ENDBRANCH  30  31
ENDBRANCH  27  30
ENDBRANCH  26  27
ENDBRANCH  25  26
ENDBRANCH   6  25
TORSDOF 13
ENDMDL
MODEL 4
REMARK VINA RESULT: -8.582455290      1.821      2.783
REMARK  13 active torsions:
REMARK  status: ('A' for Active; 'I' for Inactive)
REMARK    1  A    between atoms: C2_3  and  C3_4 
REMARK    2  A    between atoms: C7_10  and  C8_11 
REMARK       I    between atoms: C8_11  and  N2_13 
REMARK    3  A    between atoms: N2_13  and  C9_15 
REMARK    4  A    between atoms: C10_20  and  C11_21 
REMARK    5  A    between atoms: C11_21  and  C12_22 
REMARK    6  A    between atoms: C12_22  and  S1_23 
REMARK    7  A    between atoms: S1_23  and  C13_26 
REMARK    8  A    between atoms: C13_26  and  C14_27 
REMARK    9  A    between atoms: C14_27  and  C15_28 
REMARK   10  A    between atoms: C15_28  and  C16_29 
REMARK   11  A    between atoms: C16_29  and  C17_30 
REMARK   12  A    between atoms: C17_30  and  C18_31 
REMARK   13  A    between atoms: C18_31  and  N5_32 
ROOT
HETATM    1  C9  UNL     1      17.191  24.034  16.031  1.00  0.00     0.168 A 
HETATM    2  N3  UNL     1      16.653  24.845  16.942  1.00  0.00    -0.279 N 
ATOM      3  H3  UNL     1      15.695  24.697  17.261  1.00  0.00     0.189 HD
HETATM    4  N4  UNL     1      17.339  25.795  17.407  1.00  0.00    -0.296 N 
ATOM      5  H4  UNL     1      16.932  26.418  18.105  1.00  0.00     0.187 HD
HETATM    6  C10 UNL     1      18.596  25.996  16.995  1.00  0.00     0.070 A 
HETATM    7  S2  UNL     1      18.754  24.695  15.855  1.00  0.00    -0.038 SA
ENDROOT
BRANCH   1   8
HETATM    8  N2  UNL     1      16.636  23.001  15.437  1.00  0.00    -0.302 N 
HETATM    9  C8  UNL     1      16.560  21.826  16.206  1.00  0.00     0.257 C 
HETATM   10  O3  UNL     1      17.594  21.230  16.544  1.00  0.00    -0.267 OA
ATOM     11  H2  UNL     1      16.283  23.049  14.481  1.00  0.00     0.171 HD
BRANCH   9  12
HETATM   12  C7  UNL     1      15.255  21.319  16.602  1.00  0.00     0.033 A 
HETATM   13  C6  UNL     1      15.103  20.453  17.668  1.00  0.00     0.030 A 
HETATM   14  C5  UNL     1      13.863  19.988  18.022  1.00  0.00    -0.006 A 
HETATM   15  C4  UNL     1      13.415  19.123  19.029  1.00  0.00     0.050 A 
HETATM   16  C25 UNL     1      12.711  20.346  17.352  1.00  0.00     0.045 A 
HETATM   17  C2  UNL     1      12.042  18.988  18.940  1.00  0.00     0.113 A 
HETATM   18  N1  UNL     1      11.629  19.743  17.910  1.00  0.00    -0.345 N 
HETATM   19  C1  UNL     1      10.253  19.888  17.466  1.00  0.00     0.156 C 
HETATM   20  C24 UNL     1      12.884  21.211  16.292  1.00  0.00     0.031 A 
HETATM   21  C23 UNL     1      14.112  21.691  15.918  1.00  0.00     0.019 A 
BRANCH  17  22
HETATM   22  C3  UNL     1      11.213  18.171  19.817  1.00  0.00     0.227 C 
HETATM   23  O1  UNL     1      10.697  18.699  20.828  1.00  0.00    -0.643 OA
HETATM   24  O2  UNL     1      10.997  16.809  19.531  1.00  0.00    -0.643 OA
ENDBRANCH  17  22
ENDBRANCH   9  12
ENDBRANCH   1   8
BRANCH   6  25
HETATM   25  C11 UNL     1      19.569  27.011  17.386  1.00  0.00     0.082 C 
BRANCH  25  26
HETATM   26  C12 UNL     1      20.793  27.149  16.636  1.00  0.00     0.151 C 
BRANCH  26  27
HETATM   27  S1  UNL     1      20.839  28.070  15.123  1.00  0.00     0.165 S 
HETATM   28  O4  UNL     1      20.642  27.148  13.947  1.00  0.00    -0.223 OA
HETATM   29  O5  UNL     1      19.534  28.909  15.224  1.00  0.00    -0.223 OA
BRANCH  27  30
HETATM   30  C13 UNL     1      22.219  29.097  15.021  1.00  0.00     0.105 C 
BRANCH  30  31
HETATM   31  C14 UNL     1      23.442  28.874  15.779  1.00  0.00    -0.015 C 
BRANCH  31  32
HETATM   32  C15 UNL     1      24.241  27.654  15.825  1.00  0.00     0.028 C 
BRANCH  32  33
HETATM   33  C16 UNL     1      24.959  27.346  17.083  1.00  0.00     0.005 C 
BRANCH  33  34
HETATM   34  C17 UNL     1      24.130  26.332  17.884  1.00  0.00     0.020 C 
BRANCH  34  35
HETATM   35  C18 UNL     1      23.568  26.915  19.133  1.00  0.00     0.125 C 
BRANCH  35  36
HETATM   36  N5  UNL     1      22.540  26.164  19.788  1.00  0.00    -0.352 N 
HETATM   37  C19 UNL     1      22.450  24.719  19.864  1.00  0.00     0.126 C 
HETATM   38  C20 UNL     1      20.923  24.493  19.853  1.00  0.00     0.029 C 
HETATM   39  C21 UNL     1      20.493  25.595  20.770  1.00  0.00     0.104 C 
HETATM   40  C22 UNL     1      21.396  26.715  20.446  1.00  0.00     0.219 C 
HETATM   41  O6  UNL     1      21.190  27.950  20.707  1.00  0.00    -0.273 OA
ENDBRANCH  35  36
ENDBRANCH  34  35
ENDBRANCH  33  34
ENDBRANCH  32  33
ENDBRANCH  31  32
ENDBRANCH  30  31
ENDBRANCH  27  30
ENDBRANCH  26  27
ENDBRANCH  25  26
ENDBRANCH   6  25
TORSDOF 13
ENDMDL
MODEL 5
REMARK VINA RESULT: -8.541979286      3.695      6.454
REMARK  13 active torsions:
REMARK  status: ('A' for Active; 'I' for Inactive)
REMARK    1  A    between atoms: C2_3  and  C3_4 
REMARK    2  A    between atoms: C7_10  and  C8_11 
REMARK       I    between atoms: C8_11  and  N2_13 
REMARK    3  A    between atoms: N2_13  and  C9_15 
REMARK    4  A    between atoms: C10_20  and  C11_21 
REMARK    5  A    between atoms: C11_21  and  C12_22 
REMARK    6  A    between atoms: C12_22  and  S1_23 
REMARK    7  A    between atoms: S1_23  and  C13_26 
REMARK    8  A    between atoms: C13_26  and  C14_27 
REMARK    9  A    between atoms: C14_27  and  C15_28 
REMARK   10  A    between atoms: C15_28  and  C16_29 
REMARK   11  A    between atoms: C16_29  and  C17_30 
REMARK   12  A    between atoms: C17_30  and  C18_31 
REMARK   13  A    between atoms: C18_31  and  N5_32 
ROOT
HETATM    1  C9  UNL     1      12.750  21.930  16.098  1.00  0.00     0.168 A 
HETATM    2  N3  UNL     1      12.996  23.215  16.357  1.00  0.00    -0.279 N 
ATOM      3  H3  UNL     1      12.266  23.810  16.748  1.00  0.00     0.189 HD
HETATM    4  N4  UNL     1      14.141  23.686  16.115  1.00  0.00    -0.296 N 
ATOM      5  H4  UNL     1      14.334  24.668  16.312  1.00  0.00     0.187 HD
HETATM    6  C10 UNL     1      15.105  22.913  15.602  1.00  0.00     0.070 A 
HETATM    7  S2  UNL     1      14.251  21.406  15.479  1.00  0.00    -0.038 SA
ENDROOT
BRANCH   1   8
HETATM    8  N2  UNL     1      11.630  21.267  16.282  1.00  0.00    -0.302 N 
HETATM    9  C8  UNL     1      10.872  21.020  15.124  1.00  0.00     0.257 C 
HETATM   10  O3  UNL     1      10.355  21.961  14.502  1.00  0.00    -0.267 OA
ATOM     11  H2  UNL     1      11.331  20.952  17.206  1.00  0.00     0.171 HD
BRANCH   9  12
HETATM   12  C7  UNL     1      10.702  19.650  14.664  1.00  0.00     0.033 A 
HETATM   13  C6  UNL     1      10.282  18.644  15.513  1.00  0.00     0.030 A 
HETATM   14  C5  UNL     1      10.130  17.360  15.057  1.00  0.00    -0.006 A 
HETATM   15  C4  UNL     1       9.730  16.166  15.671  1.00  0.00     0.050 A 
HETATM   16  C25 UNL     1      10.380  16.997  13.750  1.00  0.00     0.045 A 
HETATM   17  C2  UNL     1       9.751  15.144  14.741  1.00  0.00     0.113 A 
HETATM   18  N1  UNL     1      10.150  15.670  13.572  1.00  0.00    -0.345 N 
HETATM   19  C1  UNL     1      10.310  14.940  12.327  1.00  0.00     0.156 C 
HETATM   20  C24 UNL     1      10.798  18.015  12.919  1.00  0.00     0.031 A 
HETATM   21  C23 UNL     1      10.958  19.307  13.349  1.00  0.00     0.019 A 
BRANCH  17  22
HETATM   22  C3  UNL     1       9.399  13.754  15.002  1.00  0.00     0.227 C 
HETATM   23  O1  UNL     1      10.248  13.005  15.538  1.00  0.00    -0.643 OA
HETATM   24  O2  UNL     1       8.126  13.261  14.656  1.00  0.00    -0.643 OA
ENDBRANCH  17  22
ENDBRANCH   9  12
ENDBRANCH   1   8
BRANCH   6  25
HETATM   25  C11 UNL     1      16.484  23.231  15.248  1.00  0.00     0.082 C 
BRANCH  25  26
HETATM   26  C12 UNL     1      17.036  24.510  15.624  1.00  0.00     0.151 C 
BRANCH  26  27
HETATM   27  S1  UNL     1      17.501  24.847  17.299  1.00  0.00     0.165 S 
HETATM   28  O4  UNL     1      18.411  26.048  17.354  1.00  0.00    -0.223 OA
HETATM   29  O5  UNL     1      16.151  25.313  17.915  1.00  0.00    -0.223 OA
BRANCH  27  30
HETATM   30  C13 UNL     1      18.092  23.447  18.112  1.00  0.00     0.105 C 
BRANCH  30  31
HETATM   31  C14 UNL     1      17.466  22.887  19.301  1.00  0.00    -0.015 C 
BRANCH  31  32
HETATM   32  C15 UNL     1      16.657  21.676  19.386  1.00  0.00     0.028 C 
BRANCH  32  33
HETATM   33  C16 UNL     1      15.194  21.807  19.201  1.00  0.00     0.005 C 
BRANCH  33  34
HETATM   34  C17 UNL     1      14.613  20.418  18.901  1.00  0.00     0.020 C 
BRANCH  34  35
HETATM   35  C18 UNL     1      13.359  20.149  19.657  1.00  0.00     0.125 C 
BRANCH  35  36
HETATM   36  N5  UNL     1      12.815  18.829  19.554  1.00  0.00    -0.352 N 
HETATM   37  C19 UNL     1      13.390  17.719  18.819  1.00  0.00     0.126 C 
HETATM   38  C20 UNL     1      12.131  16.964  18.343  1.00  0.00     0.029 C 
HETATM   39  C21 UNL     1      11.297  17.047  19.583  1.00  0.00     0.104 C 
HETATM   40  C22 UNL     1      11.580  18.390  20.126  1.00  0.00     0.219 C 
HETATM   41  O6  UNL     1      10.852  19.036  20.954  1.00  0.00    -0.273 OA
ENDBRANCH  35  36
ENDBRANCH  34  35
ENDBRANCH  33  34
ENDBRANCH  32  33
ENDBRANCH  31  32
ENDBRANCH  30  31
ENDBRANCH  27  30
ENDBRANCH  26  27
ENDBRANCH  25  26
ENDBRANCH   6  25
TORSDOF 13
ENDMDL
