MODEL 1
REMARK VINA RESULT: -8.973202473      0.000      0.000
REMARK  12 active torsions:
REMARK  status: ('A' for Active; 'I' for Inactive)
REMARK    1  A    between atoms: N1_10  and  C8_11 
REMARK    2  A    between atoms: C8_11  and  C9_12 
REMARK       I    between atoms: C9_12  and  N2_14 
REMARK    3  A    between atoms: N2_14  and  C10_16 
REMARK    4  A    between atoms: C10_16  and  C11_17 
REMARK    5  A    between atoms: N3_25  and  C18_26 
REMARK    6  A    between atoms: C18_26  and  C19_27 
REMARK    7  A    between atoms: C19_27  and  C20_28 
REMARK    8  A    between atoms: C20_28  and  C21_29 
REMARK       I    between atoms: C21_29  and  N4_31 
REMARK    9  A    between atoms: N4_31  and  C22_33 
REMARK   10  A    between atoms: C22_33  and  C23_34 
REMARK   11  A    between atoms: C23_34  and  C24_35 
REMARK   12  A    between atoms: C24_35  and  N5_36 
ROOT
HETATM    1  C1  UNL     1      24.000  27.281  18.370  1.00  0.00     0.057 C 
HETATM    2  C2  UNL     1      22.576  26.781  18.399  1.00  0.00    -0.012 A 
HETATM    3  S1  UNL     1      21.766  25.888  19.608  1.00  0.00    -0.075 SA
HETATM    4  C3  UNL     1      20.242  25.750  18.861  1.00  0.00     0.097 A 
HETATM    5  C4  UNL     1      20.403  26.407  17.681  1.00  0.00     0.073 A 
HETATM    6  C5  UNL     1      21.614  26.944  17.437  1.00  0.00    -0.031 A 
HETATM    7  C6  UNL     1      21.959  27.708  16.164  1.00  0.00     0.050 C 
HETATM    8  C7  UNL     1      19.260  26.436  16.867  1.00  0.00     0.265 A 
HETATM    9  O1  UNL     1      19.229  26.998  15.746  1.00  0.00    -0.267 OA
HETATM   10  N1  UNL     1      18.123  25.847  17.264  1.00  0.00    -0.257 N 
HETATM   11  C17 UNL     1      17.996  25.198  18.450  1.00  0.00     0.333 A 
HETATM   12  O3  UNL     1      16.959  24.643  18.848  1.00  0.00    -0.246 OA
HETATM   13  N3  UNL     1      19.085  25.158  19.254  1.00  0.00    -0.292 N 
ENDROOT
BRANCH  13  14
HETATM   14  C18 UNL     1      19.067  24.516  20.518  1.00  0.00     0.135 C 
BRANCH  14  15
HETATM   15  C19 UNL     1      19.406  23.072  20.559  1.00  0.00     0.029 C 
BRANCH  15  16
HETATM   16  C20 UNL     1      18.345  22.159  21.068  1.00  0.00     0.104 C 
BRANCH  16  17
HETATM   17  C21 UNL     1      17.422  21.858  19.912  1.00  0.00     0.217 C 
HETATM   18  O4  UNL     1      17.873  21.414  18.812  1.00  0.00    -0.274 OA
HETATM   19  N4  UNL     1      16.042  22.067  20.041  1.00  0.00    -0.361 N 
ATOM     20  H4  UNL     1      15.707  22.429  20.933  1.00  0.00     0.162 HD
BRANCH  19  21
HETATM   21  C22 UNL     1      15.064  21.817  19.029  1.00  0.00     0.124 C 
BRANCH  21  22
HETATM   22  C23 UNL     1      14.532  20.396  19.019  1.00  0.00     0.050 C 
BRANCH  22  23
HETATM   23  C24 UNL     1      13.198  20.463  18.263  1.00  0.00     0.274 C 
BRANCH  23  24
HETATM   24  N5  UNL     1      12.130  19.887  19.003  1.00  0.00     0.092 N 
HETATM   25  C25 UNL     1      12.475  18.797  19.863  1.00  0.00     0.298 C 
HETATM   26  C26 UNL     1      11.292  18.477  20.757  1.00  0.00     0.198 C 
HETATM   27  O5  UNL     1      10.174  18.172  20.012  1.00  0.00    -0.388 OA
HETATM   28  C27 UNL     1      10.323  18.337  18.659  1.00  0.00     0.198 C 
HETATM   29  C28 UNL     1      10.962  19.620  18.227  1.00  0.00     0.298 C 
ENDBRANCH  23  24
ENDBRANCH  22  23
ENDBRANCH  21  22
ENDBRANCH  19  21
ENDBRANCH  16  17
ENDBRANCH  15  16
ENDBRANCH  14  15
ENDBRANCH  13  14
BRANCH  10  30
HETATM   30  C8  UNL     1      16.934  25.867  16.443  1.00  0.00     0.239 C 
BRANCH  30  31
HETATM   31  C9  UNL     1      16.806  24.639  15.617  1.00  0.00     0.236 C 
HETATM   32  O2  UNL     1      17.301  24.671  14.487  1.00  0.00    -0.272 OA
HETATM   33  N2  UNL     1      16.149  23.514  16.113  1.00  0.00    -0.359 N 
ATOM     34  H2  UNL     1      15.797  23.622  17.065  1.00  0.00     0.162 HD
BRANCH  33  35
HETATM   35  C10 UNL     1      15.883  22.249  15.535  1.00  0.00     0.127 C 
BRANCH  35  36
HETATM   36  C11 UNL     1      14.509  21.914  15.106  1.00  0.00     0.003 C 
HETATM   37  C12 UNL     1      13.464  22.937  15.521  1.00  0.00     0.006 C 
HETATM   38  C13 UNL     1      12.139  22.438  14.972  1.00  0.00     0.000 C 
HETATM   39  C14 UNL     1      12.117  20.934  14.781  1.00  0.00     0.000 C 
HETATM   40  C15 UNL     1      13.119  20.487  13.737  1.00  0.00     0.000 C 
HETATM   41  C16 UNL     1      14.316  21.455  13.714  1.00  0.00     0.006 C 
ENDBRANCH  35  36
ENDBRANCH  33  35
ENDBRANCH  30  31
ENDBRANCH  10  30
TORSDOF 12
ENDMDL
MODEL 2
REMARK VINA RESULT: -8.851225941      3.367      7.642
REMARK  12 active torsions:
REMARK  status: ('A' for Active; 'I' for Inactive)
REMARK    1  A    between atoms: N1_10  and  C8_11 
REMARK    2  A    between atoms: C8_11  and  C9_12 
REMARK       I    between atoms: C9_12  and  N2_14 
REMARK    3  A    between atoms: N2_14  and  C10_16 
REMARK    4  A    between atoms: C10_16  and  C11_17 
REMARK    5  A    between atoms: N3_25  and  C18_26 
REMARK    6  A    between atoms: C18_26  and  C19_27 
REMARK    7  A    between atoms: C19_27  and  C20_28 
REMARK    8  A    between atoms: C20_28  and  C21_29 
REMARK       I    between atoms: C21_29  and  N4_31 
REMARK    9  A    between atoms: N4_31  and  C22_33 
REMARK   10  A    between atoms: C22_33  and  C23_34 
REMARK   11  A    between atoms: C23_34  and  C24_35 
REMARK   12  A    between atoms: C24_35  and  N5_36 
ROOT
HETATM    1  C1  UNL     1      11.726  19.929  13.630  1.00  0.00     0.057 C 
HETATM    2  C2  UNL     1      12.604  20.411  14.758  1.00  0.00    -0.012 A 
HETATM    3  S1  UNL     1      12.376  20.275  16.445  1.00  0.00    -0.075 SA
HETATM    4  C3  UNL     1      13.792  21.059  16.971  1.00  0.00     0.097 A 
HETATM    5  C4  UNL     1      14.412  21.410  15.813  1.00  0.00     0.073 A 
HETATM    6  C5  UNL     1      13.799  21.075  14.661  1.00  0.00    -0.031 A 
HETATM    7  C6  UNL     1      14.359  21.398  13.280  1.00  0.00     0.050 C 
HETATM    8  C7  UNL     1      15.632  22.085  15.983  1.00  0.00     0.265 A 
HETATM    9  O1  UNL     1      16.338  22.481  15.024  1.00  0.00    -0.267 OA
HETATM   10  N1  UNL     1      16.106  22.340  17.210  1.00  0.00    -0.257 N 
HETATM   11  C17 UNL     1      15.460  21.975  18.348  1.00  0.00     0.333 A 
HETATM   12  O3  UNL     1      15.871  22.196  19.499  1.00  0.00    -0.246 OA
HETATM   13  N3  UNL     1      14.282  21.322  18.209  1.00  0.00    -0.292 N 
ENDROOT
BRANCH  13  14
HETATM   14  C18 UNL     1      13.524  20.886  19.325  1.00  0.00     0.135 C 
BRANCH  14  15
HETATM   15  C19 UNL     1      13.552  19.437  19.648  1.00  0.00     0.029 C 
BRANCH  15  16
HETATM   16  C20 UNL     1      12.642  18.986  20.738  1.00  0.00     0.104 C 
BRANCH  16  17
HETATM   17  C21 UNL     1      11.492  18.255  20.085  1.00  0.00     0.217 C 
HETATM   18  O4  UNL     1      10.299  18.428  20.479  1.00  0.00    -0.274 OA
HETATM   19  N4  UNL     1      11.734  17.370  19.026  1.00  0.00    -0.361 N 
ATOM     20  H4  UNL     1      12.702  17.247  18.733  1.00  0.00     0.162 HD
BRANCH  19  21
HETATM   21  C22 UNL     1      10.738  16.626  18.321  1.00  0.00     0.124 C 
BRANCH  21  22
HETATM   22  C23 UNL     1      10.109  17.375  17.161  1.00  0.00     0.050 C 
BRANCH  22  23
HETATM   23  C24 UNL     1       9.304  16.325  16.384  1.00  0.00     0.274 C 
BRANCH  23  24
HETATM   24  N5  UNL     1       9.990  15.870  15.226  1.00  0.00     0.092 N 
HETATM   25  C25 UNL     1       9.944  16.732  14.085  1.00  0.00     0.298 C 
HETATM   26  C26 UNL     1      10.926  16.230  13.043  1.00  0.00     0.198 C 
HETATM   27  O5  UNL     1      10.643  14.930  12.681  1.00  0.00    -0.388 OA
HETATM   28  C27 UNL     1       9.642  14.337  13.404  1.00  0.00     0.198 C 
HETATM   29  C28 UNL     1       9.725  14.508  14.889  1.00  0.00     0.298 C 
ENDBRANCH  23  24
ENDBRANCH  22  23
ENDBRANCH  21  22
ENDBRANCH  19  21
ENDBRANCH  16  17
ENDBRANCH  15  16
ENDBRANCH  14  15
ENDBRANCH  13  14
BRANCH  10  30
HETATM   30  C8  UNL     1      17.360  23.031  17.409  1.00  0.00     0.239 C 
BRANCH  30  31
HETATM   31  C9  UNL     1      17.277  24.461  17.020  1.00  0.00     0.236 C 
HETATM   32  O2  UNL     1      16.679  25.217  17.790  1.00  0.00    -0.272 OA
HETATM   33  N2  UNL     1      17.853  24.909  15.832  1.00  0.00    -0.359 N 
ATOM     34  H2  UNL     1      18.325  24.180  15.295  1.00  0.00     0.162 HD
BRANCH  33  35
HETATM   35  C10 UNL     1      17.901  26.192  15.235  1.00  0.00     0.127 C 
BRANCH  35  36
HETATM   36  C11 UNL     1      19.157  26.970  15.269  1.00  0.00     0.003 C 
HETATM   37  C12 UNL     1      19.736  27.150  16.663  1.00  0.00     0.006 C 
HETATM   38  C13 UNL     1      21.022  27.939  16.492  1.00  0.00     0.000 C 
HETATM   39  C14 UNL     1      21.017  28.794  15.239  1.00  0.00     0.000 C 
HETATM   40  C15 UNL     1      20.955  27.948  13.984  1.00  0.00     0.000 C 
HETATM   41  C16 UNL     1      20.198  26.639  14.273  1.00  0.00     0.006 C 
ENDBRANCH  35  36
ENDBRANCH  33  35
ENDBRANCH  30  31
ENDBRANCH  10  30
TORSDOF 12
ENDMDL
MODEL 3
REMARK VINA RESULT: -8.851101532      2.186      3.588
REMARK  12 active torsions:
REMARK  status: ('A' for Active; 'I' for Inactive)
REMARK    1  A    between atoms: N1_10  and  C8_11 
REMARK    2  A    between atoms: C8_11  and  C9_12 
REMARK       I    between atoms: C9_12  and  N2_14 
REMARK    3  A    between atoms: N2_14  and  C10_16 
REMARK    4  A    between atoms: C10_16  and  C11_17 
REMARK    5  A    between atoms: N3_25  and  C18_26 
REMARK    6  A    between atoms: C18_26  and  C19_27 
REMARK    7  A    between atoms: C19_27  and  C20_28 
REMARK    8  A    between atoms: C20_28  and  C21_29 
REMARK       I    between atoms: C21_29  and  N4_31 
REMARK    9  A    between atoms: N4_31  and  C22_33 
REMARK   10  A    between atoms: C22_33  and  C23_34 
REMARK   11  A    between atoms: C23_34  and  C24_35 
REMARK   12  A    between atoms: C24_35  and  N5_36 
ROOT
HETATM    1  C1  UNL     1      26.467  24.114  19.152  1.00  0.00     0.057 C 
HETATM    2  C2  UNL     1      25.188  24.868  18.884  1.00  0.00    -0.012 A 
HETATM    3  S1  UNL     1      23.754  24.934  19.809  1.00  0.00    -0.075 SA
HETATM    4  C3  UNL     1      22.845  25.979  18.820  1.00  0.00     0.097 A 
HETATM    5  C4  UNL     1      23.685  26.252  17.786  1.00  0.00     0.073 A 
HETATM    6  C5  UNL     1      24.903  25.678  17.816  1.00  0.00    -0.031 A 
HETATM    7  C6  UNL     1      25.960  25.878  16.735  1.00  0.00     0.050 C 
HETATM    8  C7  UNL     1      23.156  27.115  16.813  1.00  0.00     0.265 A 
HETATM    9  O1  UNL     1      23.792  27.474  15.794  1.00  0.00    -0.267 OA
HETATM   10  N1  UNL     1      21.914  27.604  16.938  1.00  0.00    -0.257 N 
HETATM   11  C17 UNL     1      21.100  27.311  17.984  1.00  0.00     0.333 A 
HETATM   12  O3  UNL     1      19.946  27.747  18.130  1.00  0.00    -0.246 OA
HETATM   13  N3  UNL     1      21.589  26.481  18.936  1.00  0.00    -0.292 N 
ENDROOT
BRANCH  13  14
HETATM   14  C18 UNL     1      20.833  26.111  20.077  1.00  0.00     0.135 C 
BRANCH  14  15
HETATM   15  C19 UNL     1      20.152  24.793  20.050  1.00  0.00     0.029 C 
BRANCH  15  16
HETATM   16  C20 UNL     1      18.663  24.818  20.103  1.00  0.00     0.104 C 
BRANCH  16  17
HETATM   17  C21 UNL     1      18.183  23.414  19.825  1.00  0.00     0.217 C 
HETATM   18  O4  UNL     1      19.004  22.462  19.653  1.00  0.00    -0.274 OA
HETATM   19  N4  UNL     1      16.809  23.141  19.755  1.00  0.00    -0.361 N 
ATOM     20  H4  UNL     1      16.171  23.924  19.893  1.00  0.00     0.162 HD
BRANCH  19  21
HETATM   21  C22 UNL     1      16.227  21.860  19.507  1.00  0.00     0.124 C 
BRANCH  21  22
HETATM   22  C23 UNL     1      14.740  21.903  19.208  1.00  0.00     0.050 C 
BRANCH  22  23
HETATM   23  C24 UNL     1      14.351  20.460  18.859  1.00  0.00     0.274 C 
BRANCH  23  24
HETATM   24  N5  UNL     1      13.082  20.101  19.389  1.00  0.00     0.092 N 
HETATM   25  C25 UNL     1      13.046  18.922  20.198  1.00  0.00     0.298 C 
HETATM   26  C26 UNL     1      11.697  18.831  20.886  1.00  0.00     0.198 C 
HETATM   27  O5  UNL     1      10.671  18.820  19.965  1.00  0.00    -0.388 OA
HETATM   28  C27 UNL     1      11.062  19.012  18.666  1.00  0.00     0.198 C 
HETATM   29  C28 UNL     1      12.020  20.140  18.436  1.00  0.00     0.298 C 
ENDBRANCH  23  24
ENDBRANCH  22  23
ENDBRANCH  21  22
ENDBRANCH  19  21
ENDBRANCH  16  17
ENDBRANCH  15  16
ENDBRANCH  14  15
ENDBRANCH  13  14
BRANCH  10  30
HETATM   30  C8  UNL     1      21.349  28.496  15.950  1.00  0.00     0.239 C 
BRANCH  30  31
HETATM   31  C9  UNL     1      20.452  27.785  15.005  1.00  0.00     0.236 C 
HETATM   32  O2  UNL     1      20.842  27.672  13.840  1.00  0.00    -0.272 OA
HETATM   33  N2  UNL     1      19.226  27.279  15.434  1.00  0.00    -0.359 N 
ATOM     34  H2  UNL     1      19.033  27.433  16.423  1.00  0.00     0.162 HD
BRANCH  33  35
HETATM   35  C10 UNL     1      18.200  26.588  14.743  1.00  0.00     0.127 C 
BRANCH  35  36
HETATM   36  C11 UNL     1      17.652  25.337  15.306  1.00  0.00     0.003 C 
HETATM   37  C12 UNL     1      18.707  24.294  15.641  1.00  0.00     0.006 C 
HETATM   38  C13 UNL     1      17.962  23.107  16.225  1.00  0.00     0.000 C 
HETATM   39  C14 UNL     1      16.525  23.029  15.748  1.00  0.00     0.000 C 
HETATM   40  C15 UNL     1      15.713  24.219  16.218  1.00  0.00     0.000 C 
HETATM   41  C16 UNL     1      16.626  25.449  16.365  1.00  0.00     0.006 C 
ENDBRANCH  35  36
ENDBRANCH  33  35
ENDBRANCH  30  31
ENDBRANCH  10  30
TORSDOF 12
ENDMDL
MODEL 4
REMARK VINA RESULT: -8.757314809      2.461      8.343
REMARK  12 active torsions:
REMARK  status: ('A' for Active; 'I' for Inactive)
REMARK    1  A    between atoms: N1_10  and  C8_11 
REMARK    2  A    between atoms: C8_11  and  C9_12 
REMARK       I    between atoms: C9_12  and  N2_14 
REMARK    3  A    between atoms: N2_14  and  C10_16 
REMARK    4  A    between atoms: C10_16  and  C11_17 
REMARK    5  A    between atoms: N3_25  and  C18_26 
REMARK    6  A    between atoms: C18_26  and  C19_27 
REMARK    7  A    between atoms: C19_27  and  C20_28 
REMARK    8  A    between atoms: C20_28  and  C21_29 
REMARK       I    between atoms: C21_29  and  N4_31 
REMARK    9  A    between atoms: N4_31  and  C22_33 
REMARK   10  A    between atoms: C22_33  and  C23_34 
REMARK   11  A    between atoms: C23_34  and  C24_35 
REMARK   12  A    between atoms: C24_35  and  N5_36 
ROOT
HETATM    1  C1  UNL     1      20.786  25.900  21.128  1.00  0.00     0.057 C 
HETATM    2  C2  UNL     1      20.011  25.345  19.958  1.00  0.00    -0.012 A 
HETATM    3  S1  UNL     1      19.714  26.039  18.426  1.00  0.00    -0.075 SA
HETATM    4  C3  UNL     1      18.789  24.786  17.739  1.00  0.00     0.097 A 
HETATM    5  C4  UNL     1      18.733  23.852  18.726  1.00  0.00     0.073 A 
HETATM    6  C5  UNL     1      19.367  24.137  19.879  1.00  0.00    -0.031 A 
HETATM    7  C6  UNL     1      19.398  23.201  21.082  1.00  0.00     0.050 C 
HETATM    8  C7  UNL     1      18.011  22.694  18.395  1.00  0.00     0.265 A 
HETATM    9  O1  UNL     1      17.858  21.731  19.184  1.00  0.00    -0.267 OA
HETATM   10  N1  UNL     1      17.438  22.567  17.190  1.00  0.00    -0.257 N 
HETATM   11  C17 UNL     1      17.513  23.521  16.227  1.00  0.00     0.333 A 
HETATM   12  O3  UNL     1      16.995  23.435  15.101  1.00  0.00    -0.246 OA
HETATM   13  N3  UNL     1      18.206  24.646  16.521  1.00  0.00    -0.292 N 
ENDROOT
BRANCH  13  14
HETATM   14  C18 UNL     1      18.358  25.705  15.591  1.00  0.00     0.135 C 
BRANCH  14  15
HETATM   15  C19 UNL     1      19.615  25.749  14.802  1.00  0.00     0.029 C 
BRANCH  15  16
HETATM   16  C20 UNL     1      19.869  27.000  14.034  1.00  0.00     0.104 C 
BRANCH  16  17
HETATM   17  C21 UNL     1      20.644  27.929  14.938  1.00  0.00     0.217 C 
HETATM   18  O4  UNL     1      20.074  28.900  15.523  1.00  0.00    -0.274 OA
HETATM   19  N4  UNL     1      22.015  27.726  15.145  1.00  0.00    -0.361 N 
ATOM     20  H4  UNL     1      22.449  26.941  14.659  1.00  0.00     0.162 HD
BRANCH  19  21
HETATM   21  C22 UNL     1      22.858  28.525  15.978  1.00  0.00     0.124 C 
BRANCH  21  22
HETATM   22  C23 UNL     1      24.191  27.881  16.310  1.00  0.00     0.050 C 
BRANCH  22  23
HETATM   23  C24 UNL     1      24.144  27.595  17.817  1.00  0.00     0.274 C 
BRANCH  23  24
HETATM   24  N5  UNL     1      24.184  26.203  18.103  1.00  0.00     0.092 N 
HETATM   25  C25 UNL     1      24.168  25.842  19.487  1.00  0.00     0.298 C 
HETATM   26  C26 UNL     1      23.954  24.345  19.608  1.00  0.00     0.198 C 
HETATM   27  O5  UNL     1      24.935  23.648  18.936  1.00  0.00    -0.388 OA
HETATM   28  C27 UNL     1      25.803  24.427  18.216  1.00  0.00     0.198 C 
HETATM   29  C28 UNL     1      25.173  25.485  17.364  1.00  0.00     0.298 C 
ENDBRANCH  23  24
ENDBRANCH  22  23
ENDBRANCH  21  22
ENDBRANCH  19  21
ENDBRANCH  16  17
ENDBRANCH  15  16
ENDBRANCH  14  15
ENDBRANCH  13  14
BRANCH  10  30
HETATM   30  C8  UNL     1      16.691  21.384  16.828  1.00  0.00     0.239 C 
BRANCH  30  31
HETATM   31  C9  UNL     1      15.303  21.417  17.354  1.00  0.00     0.236 C 
HETATM   32  O2  UNL     1      14.441  21.919  16.628  1.00  0.00    -0.272 OA
HETATM   33  N2  UNL     1      15.010  20.902  18.616  1.00  0.00    -0.359 N 
ATOM     34  H2  UNL     1      15.814  20.508  19.105  1.00  0.00     0.162 HD
BRANCH  33  35
HETATM   35  C10 UNL     1      13.796  20.827  19.342  1.00  0.00     0.127 C 
BRANCH  35  36
HETATM   36  C11 UNL     1      13.097  19.531  19.470  1.00  0.00     0.003 C 
HETATM   37  C12 UNL     1      13.598  18.460  18.514  1.00  0.00     0.006 C 
HETATM   38  C13 UNL     1      12.789  17.211  18.813  1.00  0.00     0.000 C 
HETATM   39  C14 UNL     1      11.436  17.524  19.420  1.00  0.00     0.000 C 
HETATM   40  C15 UNL     1      11.570  18.187  20.776  1.00  0.00     0.000 C 
HETATM   41  C16 UNL     1      12.876  19.000  20.832  1.00  0.00     0.006 C 
ENDBRANCH  35  36
ENDBRANCH  33  35
ENDBRANCH  30  31
ENDBRANCH  10  30
TORSDOF 12
ENDMDL
MODEL 5
REMARK VINA RESULT: -8.625209327      3.298      7.558
REMARK  12 active torsions:
REMARK  status: ('A' for Active; 'I' for Inactive)
REMARK    1  A    between atoms: N1_10  and  C8_11 
REMARK    2  A    between atoms: C8_11  and  C9_12 
REMARK       I    between atoms: C9_12  and  N2_14 
REMARK    3  A    between atoms: N2_14  and  C10_16 
REMARK    4  A    between atoms: C10_16  and  C11_17 
REMARK    5  A    between atoms: N3_25  and  C18_26 
REMARK    6  A    between atoms: C18_26  and  C19_27 
REMARK    7  A    between atoms: C19_27  and  C20_28 
REMARK    8  A    between atoms: C20_28  and  C21_29 
REMARK       I    between atoms: C21_29  and  N4_31 
REMARK    9  A    between atoms: N4_31  and  C22_33 
REMARK   10  A    between atoms: C22_33  and  C23_34 
REMARK   11  A    between atoms: C23_34  and  C24_35 
REMARK   12  A    between atoms: C24_35  and  N5_36 
ROOT
HETATM    1  C1  UNL     1      11.699  19.953  13.659  1.00  0.00     0.057 C 
HETATM    2  C2  UNL     1      12.591  20.425  14.782  1.00  0.00    -0.012 A 
HETATM    3  S1  UNL     1      12.373  20.290  16.470  1.00  0.00    -0.075 SA
HETATM    4  C3  UNL     1      13.801  21.058  16.987  1.00  0.00     0.097 A 
HETATM    5  C4  UNL     1      14.417  21.404  15.824  1.00  0.00     0.073 A 
HETATM    6  C5  UNL     1      13.792  21.076  14.677  1.00  0.00    -0.031 A 
HETATM    7  C6  UNL     1      14.345  21.394  13.292  1.00  0.00     0.050 C 
HETATM    8  C7  UNL     1      15.645  22.065  15.986  1.00  0.00     0.265 A 
HETATM    9  O1  UNL     1      16.348  22.455  15.023  1.00  0.00    -0.267 OA
HETATM   10  N1  UNL     1      16.130  22.314  17.211  1.00  0.00    -0.257 N 
HETATM   11  C17 UNL     1      15.489  21.955  18.353  1.00  0.00     0.333 A 
HETATM   12  O3  UNL     1      15.910  22.170  19.501  1.00  0.00    -0.246 OA
HETATM   13  N3  UNL     1      14.303  21.315  18.222  1.00  0.00    -0.292 N 
ENDROOT
BRANCH  13  14
HETATM   14  C18 UNL     1      13.548  20.885  19.343  1.00  0.00     0.135 C 
BRANCH  14  15
HETATM   15  C19 UNL     1      13.570  19.437  19.669  1.00  0.00     0.029 C 
BRANCH  15  16
HETATM   16  C20 UNL     1      12.668  18.995  20.770  1.00  0.00     0.104 C 
BRANCH  16  17
HETATM   17  C21 UNL     1      11.514  18.258  20.134  1.00  0.00     0.217 C 
HETATM   18  O4  UNL     1      10.319  18.469  20.503  1.00  0.00    -0.274 OA
HETATM   19  N4  UNL     1      11.753  17.324  19.116  1.00  0.00    -0.361 N 
ATOM     20  H4  UNL     1      12.723  17.170  18.842  1.00  0.00     0.162 HD
BRANCH  19  21
HETATM   21  C22 UNL     1      10.753  16.568  18.430  1.00  0.00     0.124 C 
BRANCH  21  22
HETATM   22  C23 UNL     1      10.247  17.221  17.158  1.00  0.00     0.050 C 
BRANCH  22  23
HETATM   23  C24 UNL     1       9.971  16.066  16.186  1.00  0.00     0.274 C 
BRANCH  23  24
HETATM   24  N5  UNL     1       8.972  15.180  16.672  1.00  0.00     0.092 N 
HETATM   25  C25 UNL     1       9.295  13.786  16.642  1.00  0.00     0.298 C 
HETATM   26  C26 UNL     1       8.248  13.016  17.424  1.00  0.00     0.198 C 
HETATM   27  O5  UNL     1       6.987  13.233  16.912  1.00  0.00    -0.388 OA
HETATM   28  C27 UNL     1       6.926  14.168  15.912  1.00  0.00     0.198 C 
HETATM   29  C28 UNL     1       7.662  15.446  16.171  1.00  0.00     0.298 C 
ENDBRANCH  23  24
ENDBRANCH  22  23
ENDBRANCH  21  22
ENDBRANCH  19  21
ENDBRANCH  16  17
ENDBRANCH  15  16
ENDBRANCH  14  15
ENDBRANCH  13  14
BRANCH  10  30
HETATM   30  C8  UNL     1      17.393  22.991  17.401  1.00  0.00     0.239 C 
BRANCH  30  31
HETATM   31  C9  UNL     1      17.313  24.431  17.047  1.00  0.00     0.236 C 
HETATM   32  O2  UNL     1      16.768  25.178  17.862  1.00  0.00    -0.272 OA
HETATM   33  N2  UNL     1      17.835  24.895  15.840  1.00  0.00    -0.359 N 
ATOM     34  H2  UNL     1      18.267  24.172  15.265  1.00  0.00     0.162 HD
BRANCH  33  35
HETATM   35  C10 UNL     1      17.873  26.190  15.269  1.00  0.00     0.127 C 
BRANCH  35  36
HETATM   36  C11 UNL     1      19.133  26.961  15.284  1.00  0.00     0.003 C 
HETATM   37  C12 UNL     1      19.726  27.153  16.672  1.00  0.00     0.006 C 
HETATM   38  C13 UNL     1      21.014  27.933  16.481  1.00  0.00     0.000 C 
HETATM   39  C14 UNL     1      21.004  28.775  15.219  1.00  0.00     0.000 C 
HETATM   40  C15 UNL     1      20.926  27.916  13.973  1.00  0.00     0.000 C 
HETATM   41  C16 UNL     1      20.165  26.615  14.283  1.00  0.00     0.006 C 
ENDBRANCH  35  36
ENDBRANCH  33  35
ENDBRANCH  30  31
ENDBRANCH  10  30
TORSDOF 12
ENDMDL
