MODEL 1
REMARK VINA RESULT: -8.813490851      0.000      0.000
REMARK  16 active torsions:
REMARK  status: ('A' for Active; 'I' for Inactive)
REMARK    1  A    between atoms: C4_4  and  C6_6 
REMARK    2  A    between atoms: C6_6  and  C7_7 
REMARK    3  A    between atoms: C9_9  and  C10_10 
REMARK    4  A    between atoms: C10_10  and  C11_11 
REMARK    5  A    between atoms: C11_11  and  C12_12 
REMARK    6  A    between atoms: N1_15  and  C15_16 
REMARK    7  A    between atoms: C15_16  and  O1_17 
REMARK    8  A    between atoms: C15_16  and  C16_19 
REMARK    9  A    between atoms: C16_19  and  N2_21 
REMARK   10  A    between atoms: C19_26  and  O2_27 
REMARK   11  A    between atoms: O2_27  and  C20_28 
REMARK   12  A    between atoms: C20_28  and  C21_30 
REMARK   13  A    between atoms: C21_30  and  C22_31 
REMARK   14  A    between atoms: C22_31  and  C23_32 
REMARK   15  A    between atoms: C23_32  and  O5_34 
REMARK   16  A    between atoms: O5_34  and  C24_35 
ROOT
HETATM    1  C1  UNL     1      11.862  20.348  15.688  1.00  0.00     0.017 C 
HETATM    2  C2  UNL     1      11.892  20.067  16.866  1.00  0.00    -0.089 C 
HETATM    3  C3  UNL     1      11.908  19.740  18.270  1.00  0.00     0.066 C 
HETATM    4  C4  UNL     1      13.103  19.577  18.878  1.00  0.00    -0.072 C 
HETATM    5  C5  UNL     1      13.061  19.242  20.320  1.00  0.00     0.044 C 
ENDROOT
BRANCH   4   6
HETATM    6  C6  UNL     1      14.356  19.712  18.120  1.00  0.00     0.067 C 
BRANCH   6   7
HETATM    7  C7  UNL     1      14.795  21.107  17.894  1.00  0.00    -0.084 C 
HETATM    8  C8  UNL     1      14.481  22.133  18.921  1.00  0.00     0.043 C 
HETATM    9  C9  UNL     1      15.468  21.415  16.786  1.00  0.00    -0.024 C 
BRANCH   9  10
HETATM   10  C10 UNL     1      15.958  22.776  16.451  1.00  0.00     0.028 C 
BRANCH  10  11
HETATM   11  C11 UNL     1      17.447  22.904  16.686  1.00  0.00     0.015 C 
BRANCH  11  12
HETATM   12  C12 UNL     1      17.799  24.137  17.483  1.00  0.00    -0.012 C 
HETATM   13  C13 UNL     1      16.679  25.201  17.257  1.00  0.00     0.018 C 
HETATM   14  C14 UNL     1      19.026  24.779  16.833  1.00  0.00     0.143 C 
HETATM   15  N1  UNL     1      19.669  25.748  17.648  1.00  0.00    -0.309 N 
HETATM   16  C19 UNL     1      19.738  25.461  19.064  1.00  0.00     0.162 C 
HETATM   17  C27 UNL     1      18.929  24.616  19.653  1.00  0.00     0.006 C 
HETATM   18  C28 UNL     1      18.733  24.111  21.008  1.00  0.00     0.016 C 
HETATM   19  C31 UNL     1      17.836  23.885  18.897  1.00  0.00     0.106 C 
HETATM   20  C29 UNL     1      18.203  22.873  20.928  1.00  0.00     0.051 C 
HETATM   21  C30 UNL     1      18.047  22.560  19.472  1.00  0.00     0.158 C 
HETATM   22  O6  UNL     1      18.114  21.387  19.050  1.00  0.00    -0.292 OA
BRANCH  15  23
HETATM   23  C15 UNL     1      20.265  26.901  17.151  1.00  0.00     0.142 C 
BRANCH  23  24
HETATM   24  O1  UNL     1      19.918  28.007  17.761  1.00  0.00    -0.348 OA
ATOM     25  H1  UNL     1      19.520  28.665  17.202  1.00  0.00     0.219 HD
ENDBRANCH  23  24
BRANCH  23  26
HETATM   26  C16 UNL     1      21.212  27.128  16.069  1.00  0.00     0.154 C 
HETATM   27  C17 UNL     1      20.608  26.857  14.700  1.00  0.00     0.041 C 
BRANCH  26  28
HETATM   28  N2  UNL     1      22.379  26.312  16.170  1.00  0.00    -0.355 N 
HETATM   29  C18 UNL     1      23.585  26.802  16.073  1.00  0.00     0.197 C 
HETATM   30  N3  UNL     1      23.748  28.204  15.860  1.00  0.00    -0.067 NA
HETATM   31  N4  UNL     1      24.738  26.010  16.170  1.00  0.00    -0.067 NA
ATOM     32  H2  UNL     1      22.267  25.310  16.324  1.00  0.00     0.162 HD
ENDBRANCH  26  28
ENDBRANCH  23  26
ENDBRANCH  15  23
BRANCH  16  33
HETATM   33  O2  UNL     1      20.686  26.084  19.884  1.00  0.00    -0.261 OA
BRANCH  33  34
HETATM   34  C20 UNL     1      21.915  25.501  20.154  1.00  0.00     0.265 C 
HETATM   35  O3  UNL     1      22.767  25.548  19.238  1.00  0.00    -0.265 OA
BRANCH  34  36
HETATM   36  C21 UNL     1      22.236  24.852  21.438  1.00  0.00     0.121 C 
BRANCH  36  37
HETATM   37  C22 UNL     1      23.668  24.894  21.835  1.00  0.00     0.121 C 
BRANCH  37  38
HETATM   38  C23 UNL     1      23.991  26.121  22.582  1.00  0.00     0.259 C 
HETATM   39  O4  UNL     1      24.618  27.049  22.055  1.00  0.00    -0.265 OA
BRANCH  38  40
HETATM   40  O5  UNL     1      23.580  26.231  23.900  1.00  0.00    -0.317 OA
BRANCH  40  41
HETATM   41  C24 UNL     1      22.988  27.391  24.404  1.00  0.00     0.123 C 
HETATM   42  C25 UNL     1      21.488  27.378  24.379  1.00  0.00     0.040 C 
HETATM   43  C26 UNL     1      23.421  27.514  25.860  1.00  0.00     0.040 C 
ENDBRANCH  40  41
ENDBRANCH  38  40
ENDBRANCH  37  38
ENDBRANCH  36  37
ENDBRANCH  34  36
ENDBRANCH  33  34
ENDBRANCH  16  33
ENDBRANCH  11  12
ENDBRANCH  10  11
ENDBRANCH   9  10
ENDBRANCH   6   7
ENDBRANCH   4   6
TORSDOF 16
ENDMDL
MODEL 2
REMARK VINA RESULT: -8.704963313      1.828      3.248
REMARK  16 active torsions:
REMARK  status: ('A' for Active; 'I' for Inactive)
REMARK    1  A    between atoms: C4_4  and  C6_6 
REMARK    2  A    between atoms: C6_6  and  C7_7 
REMARK    3  A    between atoms: C9_9  and  C10_10 
REMARK    4  A    between atoms: C10_10  and  C11_11 
REMARK    5  A    between atoms: C11_11  and  C12_12 
REMARK    6  A    between atoms: N1_15  and  C15_16 
REMARK    7  A    between atoms: C15_16  and  O1_17 
REMARK    8  A    between atoms: C15_16  and  C16_19 
REMARK    9  A    between atoms: C16_19  and  N2_21 
REMARK   10  A    between atoms: C19_26  and  O2_27 
REMARK   11  A    between atoms: O2_27  and  C20_28 
REMARK   12  A    between atoms: C20_28  and  C21_30 
REMARK   13  A    between atoms: C21_30  and  C22_31 
REMARK   14  A    between atoms: C22_31  and  C23_32 
REMARK   15  A    between atoms: C23_32  and  O5_34 
REMARK   16  A    between atoms: O5_34  and  C24_35 
ROOT
HETATM    1  C1  UNL     1      13.974  19.268  18.289  1.00  0.00     0.017 C 
HETATM    2  C2  UNL     1      13.127  19.860  17.656  1.00  0.00    -0.089 C 
HETATM    3  C3  UNL     1      12.105  20.560  16.919  1.00  0.00     0.066 C 
HETATM    4  C4  UNL     1      12.323  20.825  15.613  1.00  0.00    -0.072 C 
HETATM    5  C5  UNL     1      11.241  21.546  14.904  1.00  0.00     0.044 C 
ENDROOT
BRANCH   4   6
HETATM    6  C6  UNL     1      13.582  20.425  14.966  1.00  0.00     0.067 C 
BRANCH   6   7
HETATM    7  C7  UNL     1      14.480  21.548  14.616  1.00  0.00    -0.084 C 
HETATM    8  C8  UNL     1      14.672  21.894  13.184  1.00  0.00     0.043 C 
HETATM    9  C9  UNL     1      15.089  22.232  15.585  1.00  0.00    -0.024 C 
BRANCH   9  10
HETATM   10  C10 UNL     1      16.010  23.374  15.357  1.00  0.00     0.028 C 
BRANCH  10  11
HETATM   11  C11 UNL     1      17.336  23.165  16.053  1.00  0.00     0.015 C 
BRANCH  11  12
HETATM   12  C12 UNL     1      17.598  24.207  17.114  1.00  0.00    -0.012 C 
HETATM   13  C13 UNL     1      16.624  25.404  16.875  1.00  0.00     0.018 C 
HETATM   14  C14 UNL     1      18.974  24.817  16.842  1.00  0.00     0.143 C 
HETATM   15  N1  UNL     1      19.498  25.566  17.928  1.00  0.00    -0.309 N 
HETATM   16  C19 UNL     1      19.252  25.044  19.254  1.00  0.00     0.162 C 
HETATM   17  C27 UNL     1      18.282  24.201  19.512  1.00  0.00     0.006 C 
HETATM   18  C28 UNL     1      17.775  23.502  20.688  1.00  0.00     0.016 C 
HETATM   19  C31 UNL     1      17.323  23.722  18.439  1.00  0.00     0.106 C 
HETATM   20  C29 UNL     1      17.191  22.356  20.283  1.00  0.00     0.051 C 
HETATM   21  C30 UNL     1      17.320  22.305  18.791  1.00  0.00     0.158 C 
HETATM   22  O6  UNL     1      17.392  21.218  18.183  1.00  0.00    -0.292 OA
BRANCH  15  23
HETATM   23  C15 UNL     1      20.261  26.718  17.774  1.00  0.00     0.142 C 
BRANCH  23  24
HETATM   24  O1  UNL     1      19.829  27.758  18.444  1.00  0.00    -0.348 OA
ATOM     25  H1  UNL     1      20.056  27.761  19.366  1.00  0.00     0.219 HD
ENDBRANCH  23  24
BRANCH  23  26
HETATM   26  C16 UNL     1      21.462  27.003  17.004  1.00  0.00     0.154 C 
HETATM   27  C17 UNL     1      22.672  27.261  17.888  1.00  0.00     0.041 C 
BRANCH  26  28
HETATM   28  N2  UNL     1      21.324  28.143  16.156  1.00  0.00    -0.355 N 
HETATM   29  C18 UNL     1      20.986  28.042  14.899  1.00  0.00     0.197 C 
HETATM   30  N3  UNL     1      20.745  26.748  14.348  1.00  0.00    -0.067 NA
HETATM   31  N4  UNL     1      20.849  29.155  14.057  1.00  0.00    -0.067 NA
ATOM     32  H2  UNL     1      21.495  29.069  16.546  1.00  0.00     0.162 HD
ENDBRANCH  26  28
ENDBRANCH  23  26
ENDBRANCH  15  23
BRANCH  16  33
HETATM   33  O2  UNL     1      20.048  25.421  20.341  1.00  0.00    -0.261 OA
BRANCH  33  34
HETATM   34  C20 UNL     1      21.347  24.958  20.491  1.00  0.00     0.265 C 
HETATM   35  O3  UNL     1      21.706  24.044  19.714  1.00  0.00    -0.265 OA
BRANCH  34  36
HETATM   36  C21 UNL     1      22.282  25.489  21.499  1.00  0.00     0.121 C 
BRANCH  36  37
HETATM   37  C22 UNL     1      23.635  24.873  21.504  1.00  0.00     0.121 C 
BRANCH  37  38
HETATM   38  C23 UNL     1      24.606  25.685  20.753  1.00  0.00     0.259 C 
HETATM   39  O4  UNL     1      24.644  26.916  20.870  1.00  0.00    -0.265 OA
BRANCH  38  40
HETATM   40  O5  UNL     1      25.494  25.048  19.901  1.00  0.00    -0.317 OA
BRANCH  40  41
HETATM   41  C24 UNL     1      25.091  24.473  18.694  1.00  0.00     0.123 C 
HETATM   42  C25 UNL     1      25.795  25.017  17.487  1.00  0.00     0.040 C 
HETATM   43  C26 UNL     1      25.414  22.985  18.782  1.00  0.00     0.040 C 
ENDBRANCH  40  41
ENDBRANCH  38  40
ENDBRANCH  37  38
ENDBRANCH  36  37
ENDBRANCH  34  36
ENDBRANCH  33  34
ENDBRANCH  16  33
ENDBRANCH  11  12
ENDBRANCH  10  11
ENDBRANCH   9  10
ENDBRANCH   6   7
ENDBRANCH   4   6
TORSDOF 16
ENDMDL
MODEL 3
REMARK VINA RESULT: -8.548247970      0.930      1.546
REMARK  16 active torsions:
REMARK  status: ('A' for Active; 'I' for Inactive)
REMARK    1  A    between atoms: C4_4  and  C6_6 
REMARK    2  A    between atoms: C6_6  and  C7_7 
REMARK    3  A    between atoms: C9_9  and  C10_10 
REMARK    4  A    between atoms: C10_10  and  C11_11 
REMARK    5  A    between atoms: C11_11  and  C12_12 
REMARK    6  A    between atoms: N1_15  and  C15_16 
REMARK    7  A    between atoms: C15_16  and  O1_17 
REMARK    8  A    between atoms: C15_16  and  C16_19 
REMARK    9  A    between atoms: C16_19  and  N2_21 
REMARK   10  A    between atoms: C19_26  and  O2_27 
REMARK   11  A    between atoms: O2_27  and  C20_28 
REMARK   12  A    between atoms: C20_28  and  C21_30 
REMARK   13  A    between atoms: C21_30  and  C22_31 
REMARK   14  A    between atoms: C22_31  and  C23_32 
REMARK   15  A    between atoms: C23_32  and  O5_34 
REMARK   16  A    between atoms: O5_34  and  C24_35 
ROOT
HETATM    1  C1  UNL     1      12.960  19.138  20.340  1.00  0.00     0.017 C 
HETATM    2  C2  UNL     1      12.379  19.464  19.328  1.00  0.00    -0.089 C 
HETATM    3  C3  UNL     1      11.669  19.843  18.132  1.00  0.00     0.066 C 
HETATM    4  C4  UNL     1      12.387  20.209  17.049  1.00  0.00    -0.072 C 
HETATM    5  C5  UNL     1      11.608  20.589  15.847  1.00  0.00     0.044 C 
ENDROOT
BRANCH   4   6
HETATM    6  C6  UNL     1      13.857  20.239  17.097  1.00  0.00     0.067 C 
BRANCH   6   7
HETATM    7  C7  UNL     1      14.455  21.578  16.895  1.00  0.00    -0.084 C 
HETATM    8  C8  UNL     1      14.078  22.678  17.820  1.00  0.00     0.043 C 
HETATM    9  C9  UNL     1      15.322  21.770  15.902  1.00  0.00    -0.024 C 
BRANCH   9  10
HETATM   10  C10 UNL     1      15.984  23.065  15.602  1.00  0.00     0.028 C 
BRANCH  10  11
HETATM   11  C11 UNL     1      17.409  23.090  16.110  1.00  0.00     0.015 C 
BRANCH  11  12
HETATM   12  C12 UNL     1      17.661  24.238  17.058  1.00  0.00    -0.012 C 
HETATM   13  C13 UNL     1      16.588  25.339  16.787  1.00  0.00     0.018 C 
HETATM   14  C14 UNL     1      18.968  24.912  16.638  1.00  0.00     0.143 C 
HETATM   15  N1  UNL     1      19.504  25.790  17.618  1.00  0.00    -0.309 N 
HETATM   16  C19 UNL     1      19.383  25.373  18.997  1.00  0.00     0.162 C 
HETATM   17  C27 UNL     1      18.496  24.494  19.393  1.00  0.00     0.006 C 
HETATM   18  C28 UNL     1      18.119  23.870  20.657  1.00  0.00     0.016 C 
HETATM   19  C31 UNL     1      17.508  23.856  18.435  1.00  0.00     0.106 C 
HETATM   20  C29 UNL     1      17.595  22.655  20.393  1.00  0.00     0.051 C 
HETATM   21  C30 UNL     1      17.632  22.480  18.906  1.00  0.00     0.158 C 
HETATM   22  O6  UNL     1      17.745  21.350  18.388  1.00  0.00    -0.292 OA
BRANCH  15  23
HETATM   23  C15 UNL     1      20.168  26.972  17.313  1.00  0.00     0.142 C 
BRANCH  23  24
HETATM   24  O1  UNL     1      19.970  27.950  18.163  1.00  0.00    -0.348 OA
ATOM     25  H1  UNL     1      20.490  28.729  18.003  1.00  0.00     0.219 HD
ENDBRANCH  23  24
BRANCH  23  26
HETATM   26  C16 UNL     1      21.054  27.346  16.220  1.00  0.00     0.154 C 
HETATM   27  C17 UNL     1      20.358  27.312  14.869  1.00  0.00     0.041 C 
BRANCH  26  28
HETATM   28  N2  UNL     1      22.196  26.496  16.113  1.00  0.00    -0.355 N 
HETATM   29  C18 UNL     1      23.416  26.961  16.128  1.00  0.00     0.197 C 
HETATM   30  N3  UNL     1      23.621  28.367  16.256  1.00  0.00    -0.067 NA
HETATM   31  N4  UNL     1      24.545  26.136  16.022  1.00  0.00    -0.067 NA
ATOM     32  H2  UNL     1      22.054  25.491  16.022  1.00  0.00     0.162 HD
ENDBRANCH  26  28
ENDBRANCH  23  26
ENDBRANCH  15  23
BRANCH  16  33
HETATM   33  O2  UNL     1      20.217  25.899  19.989  1.00  0.00    -0.261 OA
BRANCH  33  34
HETATM   34  C20 UNL     1      21.465  25.356  20.259  1.00  0.00     0.265 C 
HETATM   35  O3  UNL     1      21.500  24.436  21.107  1.00  0.00    -0.265 OA
BRANCH  34  36
HETATM   36  C21 UNL     1      22.703  25.814  19.604  1.00  0.00     0.121 C 
BRANCH  36  37
HETATM   37  C22 UNL     1      23.966  25.284  20.182  1.00  0.00     0.121 C 
BRANCH  37  38
HETATM   38  C23 UNL     1      24.462  26.133  21.278  1.00  0.00     0.259 C 
HETATM   39  O4  UNL     1      25.092  27.174  21.051  1.00  0.00    -0.265 OA
BRANCH  38  40
HETATM   40  O5  UNL     1      24.212  25.753  22.586  1.00  0.00    -0.317 OA
BRANCH  40  41
HETATM   41  C24 UNL     1      23.948  26.679  23.597  1.00  0.00     0.123 C 
HETATM   42  C25 UNL     1      22.496  27.011  23.764  1.00  0.00     0.040 C 
HETATM   43  C26 UNL     1      24.430  26.059  24.904  1.00  0.00     0.040 C 
ENDBRANCH  40  41
ENDBRANCH  38  40
ENDBRANCH  37  38
ENDBRANCH  36  37
ENDBRANCH  34  36
ENDBRANCH  33  34
ENDBRANCH  16  33
ENDBRANCH  11  12
ENDBRANCH  10  11
ENDBRANCH   9  10
ENDBRANCH   6   7
ENDBRANCH   4   6
TORSDOF 16
ENDMDL
MODEL 4
REMARK VINA RESULT: -8.540708083      5.870     12.708
REMARK  16 active torsions:
REMARK  status: ('A' for Active; 'I' for Inactive)
REMARK    1  A    between atoms: C4_4  and  C6_6 
REMARK    2  A    between atoms: C6_6  and  C7_7 
REMARK    3  A    between atoms: C9_9  and  C10_10 
REMARK    4  A    between atoms: C10_10  and  C11_11 
REMARK    5  A    between atoms: C11_11  and  C12_12 
REMARK    6  A    between atoms: N1_15  and  C15_16 
REMARK    7  A    between atoms: C15_16  and  O1_17 
REMARK    8  A    between atoms: C15_16  and  C16_19 
REMARK    9  A    between atoms: C16_19  and  N2_21 
REMARK   10  A    between atoms: C19_26  and  O2_27 
REMARK   11  A    between atoms: O2_27  and  C20_28 
REMARK   12  A    between atoms: C20_28  and  C21_30 
REMARK   13  A    between atoms: C21_30  and  C22_31 
REMARK   14  A    between atoms: C22_31  and  C23_32 
REMARK   15  A    between atoms: C23_32  and  O5_34 
REMARK   16  A    between atoms: O5_34  and  C24_35 
ROOT
HETATM    1  C1  UNL     1      18.746  26.480  15.044  1.00  0.00     0.017 C 
HETATM    2  C2  UNL     1      19.105  26.438  16.200  1.00  0.00    -0.089 C 
HETATM    3  C3  UNL     1      19.543  26.407  17.574  1.00  0.00     0.066 C 
HETATM    4  C4  UNL     1      19.485  25.234  18.239  1.00  0.00    -0.072 C 
HETATM    5  C5  UNL     1      19.946  25.258  19.646  1.00  0.00     0.044 C 
ENDROOT
BRANCH   4   6
HETATM    6  C6  UNL     1      18.969  24.022  17.583  1.00  0.00     0.067 C 
BRANCH   6   7
HETATM    7  C7  UNL     1      17.737  23.470  18.187  1.00  0.00    -0.084 C 
HETATM    8  C8  UNL     1      16.546  24.348  18.317  1.00  0.00     0.043 C 
HETATM    9  C9  UNL     1      17.713  22.199  18.591  1.00  0.00    -0.024 C 
BRANCH   9  10
HETATM   10  C10 UNL     1      16.538  21.536  19.210  1.00  0.00     0.028 C 
BRANCH  10  11
HETATM   11  C11 UNL     1      15.830  20.630  18.227  1.00  0.00     0.015 C 
BRANCH  11  12
HETATM   12  C12 UNL     1      14.368  20.978  18.077  1.00  0.00    -0.012 C 
HETATM   13  C13 UNL     1      13.910  21.731  19.364  1.00  0.00     0.018 C 
HETATM   14  C14 UNL     1      13.570  19.674  18.133  1.00  0.00     0.143 C 
HETATM   15  N1  UNL     1      12.230  19.799  17.681  1.00  0.00    -0.309 N 
HETATM   16  C19 UNL     1      12.006  20.668  16.547  1.00  0.00     0.162 C 
HETATM   17  C27 UNL     1      12.851  21.607  16.200  1.00  0.00     0.006 C 
HETATM   18  C28 UNL     1      12.934  22.620  15.153  1.00  0.00     0.016 C 
HETATM   19  C31 UNL     1      14.126  21.872  16.978  1.00  0.00     0.106 C 
HETATM   20  C29 UNL     1      14.236  22.881  14.916  1.00  0.00     0.051 C 
HETATM   21  C30 UNL     1      15.030  22.010  15.840  1.00  0.00     0.158 C 
HETATM   22  O6  UNL     1      16.169  21.604  15.530  1.00  0.00    -0.292 OA
BRANCH  15  23
HETATM   23  C15 UNL     1      11.162  19.100  18.233  1.00  0.00     0.142 C 
BRANCH  23  24
HETATM   24  O1  UNL     1      10.046  19.781  18.323  1.00  0.00    -0.348 OA
ATOM     25  H1  UNL     1      10.092  20.551  18.878  1.00  0.00     0.219 HD
ENDBRANCH  23  24
BRANCH  23  26
HETATM   26  C16 UNL     1      11.035  17.741  18.737  1.00  0.00     0.154 C 
HETATM   27  C17 UNL     1      12.108  17.397  19.759  1.00  0.00     0.041 C 
BRANCH  26  28
HETATM   28  N2  UNL     1      11.119  16.754  17.709  1.00  0.00    -0.355 N 
HETATM   29  C18 UNL     1      10.156  15.904  17.476  1.00  0.00     0.197 C 
HETATM   30  N3  UNL     1       8.974  15.960  18.275  1.00  0.00    -0.067 NA
HETATM   31  N4  UNL     1      10.227  14.931  16.470  1.00  0.00    -0.067 NA
ATOM     32  H2  UNL     1      11.961  16.712  17.135  1.00  0.00     0.162 HD
ENDBRANCH  26  28
ENDBRANCH  23  26
ENDBRANCH  15  23
BRANCH  16  33
HETATM   33  O2  UNL     1      10.858  20.547  15.757  1.00  0.00    -0.261 OA
BRANCH  33  34
HETATM   34  C20 UNL     1      10.649  19.450  14.933  1.00  0.00     0.265 C 
HETATM   35  O3  UNL     1       9.839  18.590  15.347  1.00  0.00    -0.265 OA
BRANCH  34  36
HETATM   36  C21 UNL     1      11.328  19.273  13.637  1.00  0.00     0.121 C 
BRANCH  36  37
HETATM   37  C22 UNL     1      10.448  19.335  12.441  1.00  0.00     0.121 C 
BRANCH  37  38
HETATM   38  C23 UNL     1       9.548  18.174  12.366  1.00  0.00     0.259 C 
HETATM   39  O4  UNL     1       8.320  18.314  12.300  1.00  0.00    -0.265 OA
BRANCH  38  40
HETATM   40  O5  UNL     1      10.094  16.901  12.366  1.00  0.00    -0.317 OA
BRANCH  40  41
HETATM   41  C24 UNL     1      10.957  16.456  11.362  1.00  0.00     0.123 C 
HETATM   42  C25 UNL     1      12.321  16.068  11.850  1.00  0.00     0.040 C 
HETATM   43  C26 UNL     1      10.320  15.216  10.746  1.00  0.00     0.040 C 
ENDBRANCH  40  41
ENDBRANCH  38  40
ENDBRANCH  37  38
ENDBRANCH  36  37
ENDBRANCH  34  36
ENDBRANCH  33  34
ENDBRANCH  16  33
ENDBRANCH  11  12
ENDBRANCH  10  11
ENDBRANCH   9  10
ENDBRANCH   6   7
ENDBRANCH   4   6
TORSDOF 16
ENDMDL
MODEL 5
REMARK VINA RESULT: -8.513165535      1.902      3.553
REMARK  16 active torsions:
REMARK  status: ('A' for Active; 'I' for Inactive)
REMARK    1  A    between atoms: C4_4  and  C6_6 
REMARK    2  A    between atoms: C6_6  and  C7_7 
REMARK    3  A    between atoms: C9_9  and  C10_10 
REMARK    4  A    between atoms: C10_10  and  C11_11 
REMARK    5  A    between atoms: C11_11  and  C12_12 
REMARK    6  A    between atoms: N1_15  and  C15_16 
REMARK    7  A    between atoms: C15_16  and  O1_17 
REMARK    8  A    between atoms: C15_16  and  C16_19 
REMARK    9  A    between atoms: C16_19  and  N2_21 
REMARK   10  A    between atoms: C19_26  and  O2_27 
REMARK   11  A    between atoms: O2_27  and  C20_28 
REMARK   12  A    between atoms: C20_28  and  C21_30 
REMARK   13  A    between atoms: C21_30  and  C22_31 
REMARK   14  A    between atoms: C22_31  and  C23_32 
REMARK   15  A    between atoms: C23_32  and  O5_34 
REMARK   16  A    between atoms: O5_34  and  C24_35 
ROOT
HETATM    1  C1  UNL     1      12.828  18.993  20.753  1.00  0.00     0.017 C 
HETATM    2  C2  UNL     1      12.392  19.317  19.670  1.00  0.00    -0.089 C 
HETATM    3  C3  UNL     1      11.855  19.694  18.387  1.00  0.00     0.066 C 
HETATM    4  C4  UNL     1      12.712  20.104  17.428  1.00  0.00    -0.072 C 
HETATM    5  C5  UNL     1      12.107  20.479  16.129  1.00  0.00     0.044 C 
ENDROOT
BRANCH   4   6
HETATM    6  C6  UNL     1      14.156  20.184  17.695  1.00  0.00     0.067 C 
BRANCH   6   7
HETATM    7  C7  UNL     1      14.740  21.534  17.537  1.00  0.00    -0.084 C 
HETATM    8  C8  UNL     1      14.413  22.578  18.541  1.00  0.00     0.043 C 
HETATM    9  C9  UNL     1      15.553  21.785  16.511  1.00  0.00    -0.024 C 
BRANCH   9  10
HETATM   10  C10 UNL     1      16.196  23.097  16.249  1.00  0.00     0.028 C 
BRANCH  10  11
HETATM   11  C11 UNL     1      17.653  23.092  16.656  1.00  0.00     0.015 C 
BRANCH  11  12
HETATM   12  C12 UNL     1      17.993  24.232  17.586  1.00  0.00    -0.012 C 
HETATM   13  C13 UNL     1      16.933  25.360  17.385  1.00  0.00     0.018 C 
HETATM   14  C14 UNL     1      19.287  24.875  17.082  1.00  0.00     0.143 C 
HETATM   15  N1  UNL     1      19.906  25.738  18.025  1.00  0.00    -0.309 N 
HETATM   16  C19 UNL     1      19.864  25.323  19.409  1.00  0.00     0.162 C 
HETATM   17  C27 UNL     1      18.984  24.464  19.862  1.00  0.00     0.006 C 
HETATM   18  C28 UNL     1      18.674  23.848  21.148  1.00  0.00     0.016 C 
HETATM   19  C31 UNL     1      17.921  23.852  18.970  1.00  0.00     0.106 C 
HETATM   20  C29 UNL     1      18.105  22.647  20.918  1.00  0.00     0.051 C 
HETATM   21  C30 UNL     1      18.041  22.473  19.432  1.00  0.00     0.158 C 
HETATM   22  O6  UNL     1      18.093  21.341  18.909  1.00  0.00    -0.292 OA
BRANCH  15  23
HETATM   23  C15 UNL     1      20.578  26.904  17.677  1.00  0.00     0.142 C 
BRANCH  23  24
HETATM   24  O1  UNL     1      20.202  27.973  18.335  1.00  0.00    -0.348 OA
ATOM     25  H1  UNL     1      20.132  27.860  19.275  1.00  0.00     0.219 HD
ENDBRANCH  23  24
BRANCH  23  26
HETATM   26  C16 UNL     1      21.634  27.178  16.714  1.00  0.00     0.154 C 
HETATM   27  C17 UNL     1      22.933  27.605  17.378  1.00  0.00     0.041 C 
BRANCH  26  28
HETATM   28  N2  UNL     1      21.290  28.210  15.788  1.00  0.00    -0.355 N 
HETATM   29  C18 UNL     1      20.778  27.954  14.615  1.00  0.00     0.197 C 
HETATM   30  N3  UNL     1      20.551  26.596  14.239  1.00  0.00    -0.067 NA
HETATM   31  N4  UNL     1      20.437  28.959  13.698  1.00  0.00    -0.067 NA
ATOM     32  H2  UNL     1      21.449  29.181  16.054  1.00  0.00     0.162 HD
ENDBRANCH  26  28
ENDBRANCH  23  26
ENDBRANCH  15  23
BRANCH  16  33
HETATM   33  O2  UNL     1      20.774  25.827  20.345  1.00  0.00    -0.261 OA
BRANCH  33  34
HETATM   34  C20 UNL     1      21.971  25.183  20.622  1.00  0.00     0.265 C 
HETATM   35  O3  UNL     1      22.345  25.191  21.817  1.00  0.00    -0.265 OA
BRANCH  34  36
HETATM   36  C21 UNL     1      22.786  24.516  19.591  1.00  0.00     0.121 C 
BRANCH  36  37
HETATM   37  C22 UNL     1      24.222  24.897  19.565  1.00  0.00     0.121 C 
BRANCH  37  38
HETATM   38  C23 UNL     1      24.975  24.121  18.566  1.00  0.00     0.259 C 
HETATM   39  O4  UNL     1      25.277  22.938  18.764  1.00  0.00    -0.265 OA
BRANCH  38  40
HETATM   40  O5  UNL     1      25.346  24.736  17.382  1.00  0.00    -0.317 OA
BRANCH  40  41
HETATM   41  C24 UNL     1      26.339  25.717  17.327  1.00  0.00     0.123 C 
HETATM   42  C25 UNL     1      27.704  25.234  17.718  1.00  0.00     0.040 C 
HETATM   43  C26 UNL     1      26.417  26.190  15.880  1.00  0.00     0.040 C 
ENDBRANCH  40  41
ENDBRANCH  38  40
ENDBRANCH  37  38
ENDBRANCH  36  37
ENDBRANCH  34  36
ENDBRANCH  33  34
ENDBRANCH  16  33
ENDBRANCH  11  12
ENDBRANCH  10  11
ENDBRANCH   9  10
ENDBRANCH   6   7
ENDBRANCH   4   6
TORSDOF 16
ENDMDL
