MODEL 1
REMARK VINA RESULT: -7.536116935      0.000      0.000
REMARK  14 active torsions:
REMARK  status: ('A' for Active; 'I' for Inactive)
REMARK    1  A    between atoms: C2_2  and  S1_3 
REMARK    2  A    between atoms: S1_3  and  N1_6 
REMARK    3  A    between atoms: N1_6  and  C3_7 
REMARK    4  A    between atoms: N1_6  and  C7_15 
REMARK    5  A    between atoms: C3_7  and  C4_8 
REMARK    6  A    between atoms: C4_8  and  C5_9 
REMARK    7  A    between atoms: C5_9  and  O3_13 
REMARK    8  A    between atoms: C7_15  and  C8_16 
REMARK    9  A    between atoms: C8_16  and  C10_18 
REMARK   10  A    between atoms: C8_16  and  N4_27 
REMARK   11  A    between atoms: C10_18  and  S2_19 
REMARK   12  A    between atoms: S2_19  and  C11_20 
REMARK       I    between atoms: C11_20  and  N3_22 
REMARK       I    between atoms: N4_27  and  C16_29 
REMARK       I    between atoms: C16_29  and  N5_31 
REMARK   13  A    between atoms: C21_36  and  C22_37 
REMARK   14  A    between atoms: C22_37  and  N6_38 
ROOT
HETATM    1  C8  UNL     1      17.626  24.697  16.714  1.00  0.00     0.073 C 
HETATM    2  C9  UNL     1      18.144  23.346  16.192  1.00  0.00     0.045 C 
ENDROOT
BRANCH   1   3
HETATM    3  C7  UNL     1      17.530  24.711  18.188  1.00  0.00     0.112 C 
BRANCH   3   4
HETATM    4  N1  UNL     1      17.701  23.574  18.961  1.00  0.00    -0.267 N 
BRANCH   4   5
HETATM    5  S1  UNL     1      18.947  23.697  20.087  1.00  0.00     0.235 S 
HETATM    6  O1  UNL     1      18.774  22.673  21.165  1.00  0.00    -0.205 OA
HETATM    7  O2  UNL     1      20.282  23.327  19.424  1.00  0.00    -0.205 OA
BRANCH   5   8
HETATM    8  C2  UNL     1      19.181  25.290  20.784  1.00  0.00     0.159 C 
HETATM    9  C1  UNL     1      20.662  25.581  20.961  1.00  0.00     0.023 C 
ENDBRANCH   5   8
ENDBRANCH   4   5
BRANCH   4  10
HETATM   10  C3  UNL     1      16.571  22.828  19.313  1.00  0.00     0.089 C 
BRANCH  10  11
HETATM   11  C4  UNL     1      16.589  21.362  18.934  1.00  0.00     0.129 C 
BRANCH  11  12
HETATM   12  C5  UNL     1      15.181  20.867  18.816  1.00  0.00     0.115 C 
HETATM   13  N2  UNL     1      14.223  21.487  19.411  1.00  0.00    -0.383 N 
ATOM     14  H22 UNL     1      14.468  22.314  19.954  1.00  0.00     0.157 HD
ATOM     15  H21 UNL     1      13.264  21.150  19.330  1.00  0.00     0.157 HD
BRANCH  12  16
HETATM   16  O3  UNL     1      14.851  19.754  18.084  1.00  0.00    -0.344 OA
HETATM   17  C6  UNL     1      13.791  18.880  18.437  1.00  0.00     0.211 C 
ENDBRANCH  12  16
ENDBRANCH  11  12
ENDBRANCH  10  11
ENDBRANCH   4  10
ENDBRANCH   3   4
ENDBRANCH   1   3
BRANCH   1  18
HETATM   18  C10 UNL     1      16.174  24.741  16.181  1.00  0.00     0.120 C 
BRANCH  18  19
HETATM   19  S2  UNL     1      15.656  23.167  15.564  1.00  0.00    -0.066 SA
BRANCH  19  20
HETATM   20  C11 UNL     1      14.082  22.577  16.009  1.00  0.00     0.281 C 
HETATM   21  O4  UNL     1      13.481  23.214  16.956  1.00  0.00    -0.260 OA
HETATM   22  N3  UNL     1      13.396  21.487  15.451  1.00  0.00    -0.343 N 
HETATM   23  C12 UNL     1      12.040  21.045  15.904  1.00  0.00     0.126 C 
HETATM   24  C15 UNL     1      13.698  20.539  14.409  1.00  0.00     0.126 C 
HETATM   25  C13 UNL     1      11.338  20.948  14.571  1.00  0.00     0.021 C 
HETATM   26  C14 UNL     1      12.355  20.100  13.802  1.00  0.00     0.021 C 
ENDBRANCH  19  20
ENDBRANCH  18  19
ENDBRANCH   1  18
BRANCH   1  27
HETATM   27  N4  UNL     1      18.387  25.684  16.047  1.00  0.00    -0.329 N 
HETATM   28  C16 UNL     1      19.639  26.236  16.413  1.00  0.00     0.319 C 
HETATM   29  O5  UNL     1      20.197  25.824  17.455  1.00  0.00    -0.247 OA
HETATM   30  N5  UNL     1      20.292  27.241  15.649  1.00  0.00    -0.328 N 
HETATM   31  C17 UNL     1      19.640  27.703  14.462  1.00  0.00     0.128 C 
HETATM   32  C21 UNL     1      21.570  27.729  16.116  1.00  0.00     0.117 C 
HETATM   33  C18 UNL     1      20.371  28.698  13.649  1.00  0.00     0.020 C 
HETATM   34  C19 UNL     1      21.778  28.975  14.041  1.00  0.00     0.004 C 
HETATM   35  C20 UNL     1      21.882  29.070  15.529  1.00  0.00     0.027 C 
ATOM     36  H4  UNL     1      17.979  26.048  15.186  1.00  0.00     0.165 HD
BRANCH  32  37
HETATM   37  C22 UNL     1      22.693  26.757  15.788  1.00  0.00     0.296 C 
BRANCH  37  38
HETATM   38  N6  UNL     1      23.820  27.128  16.650  1.00  0.00     0.082 N 
HETATM   39  C23 UNL     1      23.649  26.604  17.982  1.00  0.00     0.309 C 
HETATM   40  C24 UNL     1      25.076  26.666  16.142  1.00  0.00     0.309 C 
ENDBRANCH  37  38
ENDBRANCH  32  37
ENDBRANCH   1  27
TORSDOF 14
ENDMDL
MODEL 2
REMARK VINA RESULT: -7.489063344      1.583      3.935
REMARK  14 active torsions:
REMARK  status: ('A' for Active; 'I' for Inactive)
REMARK    1  A    between atoms: C2_2  and  S1_3 
REMARK    2  A    between atoms: S1_3  and  N1_6 
REMARK    3  A    between atoms: N1_6  and  C3_7 
REMARK    4  A    between atoms: N1_6  and  C7_15 
REMARK    5  A    between atoms: C3_7  and  C4_8 
REMARK    6  A    between atoms: C4_8  and  C5_9 
REMARK    7  A    between atoms: C5_9  and  O3_13 
REMARK    8  A    between atoms: C7_15  and  C8_16 
REMARK    9  A    between atoms: C8_16  and  C10_18 
REMARK   10  A    between atoms: C8_16  and  N4_27 
REMARK   11  A    between atoms: C10_18  and  S2_19 
REMARK   12  A    between atoms: S2_19  and  C11_20 
REMARK       I    between atoms: C11_20  and  N3_22 
REMARK       I    between atoms: N4_27  and  C16_29 
REMARK       I    between atoms: C16_29  and  N5_31 
REMARK   13  A    between atoms: C21_36  and  C22_37 
REMARK   14  A    between atoms: C22_37  and  N6_38 
ROOT
HETATM    1  C8  UNL     1      18.544  24.575  17.350  1.00  0.00     0.073 C 
HETATM    2  C9  UNL     1      18.258  23.387  16.417  1.00  0.00     0.045 C 
ENDROOT
BRANCH   1   3
HETATM    3  C7  UNL     1      19.239  24.146  18.582  1.00  0.00     0.112 C 
BRANCH   3   4
HETATM    4  N1  UNL     1      18.596  24.031  19.803  1.00  0.00    -0.267 N 
BRANCH   4   5
HETATM    5  S1  UNL     1      18.057  22.472  20.146  1.00  0.00     0.235 S 
HETATM    6  O1  UNL     1      18.878  21.464  19.405  1.00  0.00    -0.205 OA
HETATM    7  O2  UNL     1      18.310  22.152  21.627  1.00  0.00    -0.205 OA
BRANCH   5   8
HETATM    8  C2  UNL     1      16.346  22.188  19.879  1.00  0.00     0.159 C 
HETATM    9  C1  UNL     1      16.143  21.126  18.812  1.00  0.00     0.023 C 
ENDBRANCH   5   8
ENDBRANCH   4   5
BRANCH   4  10
HETATM   10  C3  UNL     1      19.040  24.819  20.871  1.00  0.00     0.089 C 
BRANCH  10  11
HETATM   11  C4  UNL     1      20.534  25.050  20.958  1.00  0.00     0.129 C 
BRANCH  11  12
HETATM   12  C5  UNL     1      20.796  26.513  21.141  1.00  0.00     0.115 C 
HETATM   13  N2  UNL     1      20.277  27.370  20.335  1.00  0.00    -0.383 N 
ATOM     14  H22 UNL     1      19.691  27.010  19.583  1.00  0.00     0.157 HD
ATOM     15  H21 UNL     1      20.455  28.367  20.460  1.00  0.00     0.157 HD
BRANCH  12  16
HETATM   16  O3  UNL     1      21.584  26.998  22.155  1.00  0.00    -0.344 OA
HETATM   17  C6  UNL     1      22.770  26.353  22.591  1.00  0.00     0.211 C 
ENDBRANCH  12  16
ENDBRANCH  11  12
ENDBRANCH  10  11
ENDBRANCH   4  10
ENDBRANCH   3   4
ENDBRANCH   1   3
BRANCH   1  18
HETATM   18  C10 UNL     1      17.128  25.025  17.783  1.00  0.00     0.120 C 
BRANCH  18  19
HETATM   19  S2  UNL     1      15.945  24.795  16.489  1.00  0.00    -0.066 SA
BRANCH  19  20
HETATM   20  C11 UNL     1      14.707  23.592  16.699  1.00  0.00     0.281 C 
HETATM   21  O4  UNL     1      13.947  23.732  17.731  1.00  0.00    -0.260 OA
HETATM   22  N3  UNL     1      14.446  22.490  15.870  1.00  0.00    -0.343 N 
HETATM   23  C12 UNL     1      13.358  21.498  16.134  1.00  0.00     0.126 C 
HETATM   24  C15 UNL     1      15.037  21.984  14.658  1.00  0.00     0.126 C 
HETATM   25  C13 UNL     1      12.696  21.469  14.777  1.00  0.00     0.021 C 
HETATM   26  C14 UNL     1      13.926  21.247  13.892  1.00  0.00     0.021 C 
ENDBRANCH  19  20
ENDBRANCH  18  19
ENDBRANCH   1  18
BRANCH   1  27
HETATM   27  N4  UNL     1      19.112  25.579  16.533  1.00  0.00    -0.329 N 
HETATM   28  C16 UNL     1      20.330  26.280  16.708  1.00  0.00     0.319 C 
HETATM   29  O5  UNL     1      21.045  26.008  17.699  1.00  0.00    -0.247 OA
HETATM   30  N5  UNL     1      20.779  27.283  15.806  1.00  0.00    -0.328 N 
HETATM   31  C17 UNL     1      19.949  27.585  14.679  1.00  0.00     0.128 C 
HETATM   32  C21 UNL     1      22.041  27.931  16.082  1.00  0.00     0.117 C 
HETATM   33  C18 UNL     1      20.470  28.582  13.720  1.00  0.00     0.020 C 
HETATM   34  C19 UNL     1      21.874  29.027  13.920  1.00  0.00     0.004 C 
HETATM   35  C20 UNL     1      22.137  29.247  15.375  1.00  0.00     0.027 C 
ATOM     36  H4  UNL     1      18.571  25.833  15.706  1.00  0.00     0.165 HD
BRANCH  32  37
HETATM   37  C22 UNL     1      23.218  27.054  15.683  1.00  0.00     0.296 C 
BRANCH  37  38
HETATM   38  N6  UNL     1      24.418  27.719  16.201  1.00  0.00     0.082 N 
HETATM   39  C23 UNL     1      24.597  27.447  17.605  1.00  0.00     0.309 C 
HETATM   40  C24 UNL     1      25.608  27.324  15.510  1.00  0.00     0.309 C 
ENDBRANCH  37  38
ENDBRANCH  32  37
ENDBRANCH   1  27
TORSDOF 14
ENDMDL
MODEL 3
REMARK VINA RESULT: -7.406146803      4.216     10.052
REMARK  14 active torsions:
REMARK  status: ('A' for Active; 'I' for Inactive)
REMARK    1  A    between atoms: C2_2  and  S1_3 
REMARK    2  A    between atoms: S1_3  and  N1_6 
REMARK    3  A    between atoms: N1_6  and  C3_7 
REMARK    4  A    between atoms: N1_6  and  C7_15 
REMARK    5  A    between atoms: C3_7  and  C4_8 
REMARK    6  A    between atoms: C4_8  and  C5_9 
REMARK    7  A    between atoms: C5_9  and  O3_13 
REMARK    8  A    between atoms: C7_15  and  C8_16 
REMARK    9  A    between atoms: C8_16  and  C10_18 
REMARK   10  A    between atoms: C8_16  and  N4_27 
REMARK   11  A    between atoms: C10_18  and  S2_19 
REMARK   12  A    between atoms: S2_19  and  C11_20 
REMARK       I    between atoms: C11_20  and  N3_22 
REMARK       I    between atoms: N4_27  and  C16_29 
REMARK       I    between atoms: C16_29  and  N5_31 
REMARK   13  A    between atoms: C21_36  and  C22_37 
REMARK   14  A    between atoms: C22_37  and  N6_38 
ROOT
HETATM    1  C8  UNL     1      12.044  21.146  15.275  1.00  0.00     0.073 C 
HETATM    2  C9  UNL     1      10.565  21.521  15.083  1.00  0.00     0.045 C 
ENDROOT
BRANCH   1   3
HETATM    3  C7  UNL     1      12.938  22.287  14.986  1.00  0.00     0.112 C 
BRANCH   3   4
HETATM    4  N1  UNL     1      13.955  22.676  15.841  1.00  0.00    -0.267 N 
BRANCH   4   5
HETATM    5  S1  UNL     1      15.500  22.452  15.210  1.00  0.00     0.235 S 
HETATM    6  O1  UNL     1      16.187  21.321  15.907  1.00  0.00    -0.205 OA
HETATM    7  O2  UNL     1      15.399  21.991  13.748  1.00  0.00    -0.205 OA
BRANCH   5   8
HETATM    8  C2  UNL     1      16.524  23.878  15.194  1.00  0.00     0.159 C 
HETATM    9  C1  UNL     1      17.853  23.586  15.868  1.00  0.00     0.023 C 
ENDBRANCH   5   8
ENDBRANCH   4   5
BRANCH   4  10
HETATM   10  C3  UNL     1      13.743  23.780  16.676  1.00  0.00     0.089 C 
BRANCH  10  11
HETATM   11  C4  UNL     1      13.960  23.553  18.157  1.00  0.00     0.129 C 
BRANCH  11  12
HETATM   12  C5  UNL     1      15.239  24.212  18.572  1.00  0.00     0.115 C 
HETATM   13  N2  UNL     1      15.326  25.495  18.607  1.00  0.00    -0.383 N 
ATOM     14  H22 UNL     1      14.498  26.027  18.344  1.00  0.00     0.157 HD
ATOM     15  H21 UNL     1      16.198  25.944  18.890  1.00  0.00     0.157 HD
BRANCH  12  16
HETATM   16  O3  UNL     1      16.355  23.495  18.927  1.00  0.00    -0.344 OA
HETATM   17  C6  UNL     1      17.416  24.042  19.692  1.00  0.00     0.211 C 
ENDBRANCH  12  16
ENDBRANCH  11  12
ENDBRANCH  10  11
ENDBRANCH   4  10
ENDBRANCH   3   4
ENDBRANCH   1   3
BRANCH   1  18
HETATM   18  C10 UNL     1      12.287  20.107  14.155  1.00  0.00     0.120 C 
BRANCH  18  19
HETATM   19  S2  UNL     1      10.845  19.872  13.158  1.00  0.00    -0.066 SA
BRANCH  19  20
HETATM   20  C11 UNL     1      10.204  18.265  12.989  1.00  0.00     0.281 C 
HETATM   21  O4  UNL     1       8.961  18.112  13.297  1.00  0.00    -0.260 OA
HETATM   22  N3  UNL     1      10.889  17.119  12.555  1.00  0.00    -0.343 N 
HETATM   23  C12 UNL     1      10.255  15.768  12.447  1.00  0.00     0.126 C 
HETATM   24  C15 UNL     1      12.241  16.860  12.129  1.00  0.00     0.126 C 
HETATM   25  C13 UNL     1      10.680  15.391  11.048  1.00  0.00     0.021 C 
HETATM   26  C14 UNL     1      12.181  15.680  11.146  1.00  0.00     0.021 C 
ENDBRANCH  19  20
ENDBRANCH  18  19
ENDBRANCH   1  18
BRANCH   1  27
HETATM   27  N4  UNL     1      12.116  20.493  16.526  1.00  0.00    -0.329 N 
HETATM   28  C16 UNL     1      11.270  19.486  17.051  1.00  0.00     0.319 C 
HETATM   29  O5  UNL     1      10.317  19.074  16.350  1.00  0.00    -0.247 OA
HETATM   30  N5  UNL     1      11.453  18.919  18.342  1.00  0.00    -0.328 N 
HETATM   31  C17 UNL     1      12.545  19.402  19.132  1.00  0.00     0.128 C 
HETATM   32  C21 UNL     1      10.530  17.894  18.773  1.00  0.00     0.117 C 
HETATM   33  C18 UNL     1      12.755  18.749  20.441  1.00  0.00     0.020 C 
HETATM   34  C19 UNL     1      11.936  17.541  20.722  1.00  0.00     0.004 C 
HETATM   35  C20 UNL     1      10.530  17.760  20.264  1.00  0.00     0.027 C 
ATOM     36  H4  UNL     1      12.881  20.787  17.134  1.00  0.00     0.165 HD
BRANCH  32  37
HETATM   37  C22 UNL     1      10.855  16.548  18.142  1.00  0.00     0.296 C 
BRANCH  37  38
HETATM   38  N6  UNL     1       9.595  16.038  17.592  1.00  0.00     0.082 N 
HETATM   39  C23 UNL     1       9.742  15.678  16.204  1.00  0.00     0.309 C 
HETATM   40  C24 UNL     1       9.106  14.897  18.305  1.00  0.00     0.309 C 
ENDBRANCH  37  38
ENDBRANCH  32  37
ENDBRANCH   1  27
TORSDOF 14
ENDMDL
MODEL 4
REMARK VINA RESULT: -7.295970372      2.353      5.169
REMARK  14 active torsions:
REMARK  status: ('A' for Active; 'I' for Inactive)
REMARK    1  A    between atoms: C2_2  and  S1_3 
REMARK    2  A    between atoms: S1_3  and  N1_6 
REMARK    3  A    between atoms: N1_6  and  C3_7 
REMARK    4  A    between atoms: N1_6  and  C7_15 
REMARK    5  A    between atoms: C3_7  and  C4_8 
REMARK    6  A    between atoms: C4_8  and  C5_9 
REMARK    7  A    between atoms: C5_9  and  O3_13 
REMARK    8  A    between atoms: C7_15  and  C8_16 
REMARK    9  A    between atoms: C8_16  and  C10_18 
REMARK   10  A    between atoms: C8_16  and  N4_27 
REMARK   11  A    between atoms: C10_18  and  S2_19 
REMARK   12  A    between atoms: S2_19  and  C11_20 
REMARK       I    between atoms: C11_20  and  N3_22 
REMARK       I    between atoms: N4_27  and  C16_29 
REMARK       I    between atoms: C16_29  and  N5_31 
REMARK   13  A    between atoms: C21_36  and  C22_37 
REMARK   14  A    between atoms: C22_37  and  N6_38 
ROOT
HETATM    1  C8  UNL     1      18.624  24.373  18.876  1.00  0.00     0.073 C 
HETATM    2  C9  UNL     1      17.201  24.782  19.294  1.00  0.00     0.045 C 
ENDROOT
BRANCH   1   3
HETATM    3  C7  UNL     1      18.865  24.627  17.441  1.00  0.00     0.112 C 
BRANCH   3   4
HETATM    4  N1  UNL     1      18.336  25.721  16.775  1.00  0.00    -0.267 N 
BRANCH   4   5
HETATM    5  S1  UNL     1      19.486  26.866  16.325  1.00  0.00     0.235 S 
HETATM    6  O1  UNL     1      19.807  27.762  17.479  1.00  0.00    -0.205 OA
HETATM    7  O2  UNL     1      20.816  26.166  16.007  1.00  0.00    -0.205 OA
BRANCH   5   8
HETATM    8  C2  UNL     1      19.091  27.815  14.902  1.00  0.00     0.159 C 
HETATM    9  C1  UNL     1      20.354  28.201  14.152  1.00  0.00     0.023 C 
ENDBRANCH   5   8
ENDBRANCH   4   5
BRANCH   4  10
HETATM   10  C3  UNL     1      17.242  25.522  15.925  1.00  0.00     0.089 C 
BRANCH  10  11
HETATM   11  C4  UNL     1      17.207  24.209  15.172  1.00  0.00     0.129 C 
BRANCH  11  12
HETATM   12  C5  UNL     1      15.975  23.453  15.561  1.00  0.00     0.115 C 
HETATM   13  N2  UNL     1      15.131  23.967  16.384  1.00  0.00    -0.383 N 
ATOM     14  H22 UNL     1      15.340  24.895  16.749  1.00  0.00     0.157 HD
ATOM     15  H21 UNL     1      14.291  23.451  16.649  1.00  0.00     0.157 HD
BRANCH  12  16
HETATM   16  O3  UNL     1      15.693  22.202  15.069  1.00  0.00    -0.344 OA
HETATM   17  C6  UNL     1      14.387  21.791  14.701  1.00  0.00     0.211 C 
ENDBRANCH  12  16
ENDBRANCH  11  12
ENDBRANCH  10  11
ENDBRANCH   4  10
ENDBRANCH   3   4
ENDBRANCH   1   3
BRANCH   1  18
HETATM   18  C10 UNL     1      18.608  22.835  19.050  1.00  0.00     0.120 C 
BRANCH  18  19
HETATM   19  S2  UNL     1      17.002  22.245  19.499  1.00  0.00    -0.066 SA
BRANCH  19  20
HETATM   20  C11 UNL     1      16.230  21.072  18.473  1.00  0.00     0.281 C 
HETATM   21  O4  UNL     1      16.940  20.613  17.499  1.00  0.00    -0.260 OA
HETATM   22  N3  UNL     1      14.924  20.573  18.589  1.00  0.00    -0.343 N 
HETATM   23  C12 UNL     1      14.338  19.565  17.651  1.00  0.00     0.126 C 
HETATM   24  C15 UNL     1      13.836  20.813  19.503  1.00  0.00     0.126 C 
HETATM   25  C13 UNL     1      13.788  18.571  18.646  1.00  0.00     0.021 C 
HETATM   26  C14 UNL     1      13.004  19.521  19.557  1.00  0.00     0.021 C 
ENDBRANCH  19  20
ENDBRANCH  18  19
ENDBRANCH   1  18
BRANCH   1  27
HETATM   27  N4  UNL     1      19.486  24.932  19.847  1.00  0.00    -0.329 N 
HETATM   28  C16 UNL     1      20.856  24.660  20.077  1.00  0.00     0.319 C 
HETATM   29  O5  UNL     1      21.436  23.826  19.345  1.00  0.00    -0.247 OA
HETATM   30  N5  UNL     1      21.606  25.294  21.105  1.00  0.00    -0.328 N 
HETATM   31  C17 UNL     1      20.929  26.243  21.935  1.00  0.00     0.128 C 
HETATM   32  C21 UNL     1      23.001  24.942  21.246  1.00  0.00     0.117 C 
HETATM   33  C18 UNL     1      21.746  26.938  22.951  1.00  0.00     0.020 C 
HETATM   34  C19 UNL     1      23.216  26.722  22.885  1.00  0.00     0.004 C 
HETATM   35  C20 UNL     1      23.507  25.281  22.613  1.00  0.00     0.027 C 
ATOM     36  H4  UNL     1      19.063  25.625  20.465  1.00  0.00     0.165 HD
BRANCH  32  37
HETATM   37  C22 UNL     1      23.861  25.635  20.200  1.00  0.00     0.296 C 
BRANCH  37  38
HETATM   38  N6  UNL     1      25.104  24.862  20.114  1.00  0.00     0.082 N 
HETATM   39  C23 UNL     1      24.941  23.711  19.261  1.00  0.00     0.309 C 
HETATM   40  C24 UNL     1      26.201  25.638  19.621  1.00  0.00     0.309 C 
ENDBRANCH  37  38
ENDBRANCH  32  37
ENDBRANCH   1  27
TORSDOF 14
ENDMDL
MODEL 5
REMARK VINA RESULT: -7.235670700      3.332      9.690
REMARK  14 active torsions:
REMARK  status: ('A' for Active; 'I' for Inactive)
REMARK    1  A    between atoms: C2_2  and  S1_3 
REMARK    2  A    between atoms: S1_3  and  N1_6 
REMARK    3  A    between atoms: N1_6  and  C3_7 
REMARK    4  A    between atoms: N1_6  and  C7_15 
REMARK    5  A    between atoms: C3_7  and  C4_8 
REMARK    6  A    between atoms: C4_8  and  C5_9 
REMARK    7  A    between atoms: C5_9  and  O3_13 
REMARK    8  A    between atoms: C7_15  and  C8_16 
REMARK    9  A    between atoms: C8_16  and  C10_18 
REMARK   10  A    between atoms: C8_16  and  N4_27 
REMARK   11  A    between atoms: C10_18  and  S2_19 
REMARK   12  A    between atoms: S2_19  and  C11_20 
REMARK       I    between atoms: C11_20  and  N3_22 
REMARK       I    between atoms: N4_27  and  C16_29 
REMARK       I    between atoms: C16_29  and  N5_31 
REMARK   13  A    between atoms: C21_36  and  C22_37 
REMARK   14  A    between atoms: C22_37  and  N6_38 
ROOT
HETATM    1  C8  UNL     1      13.551  21.163  15.715  1.00  0.00     0.073 C 
HETATM    2  C9  UNL     1      12.346  22.064  15.396  1.00  0.00     0.045 C 
ENDROOT
BRANCH   1   3
HETATM    3  C7  UNL     1      14.829  21.891  15.575  1.00  0.00     0.112 C 
BRANCH   3   4
HETATM    4  N1  UNL     1      15.456  22.516  16.641  1.00  0.00    -0.267 N 
BRANCH   4   5
HETATM    5  S1  UNL     1      16.609  21.559  17.409  1.00  0.00     0.235 S 
HETATM    6  O1  UNL     1      15.951  20.406  18.100  1.00  0.00    -0.205 OA
HETATM    7  O2  UNL     1      17.519  20.903  16.360  1.00  0.00    -0.205 OA
BRANCH   5   8
HETATM    8  C2  UNL     1      17.681  22.406  18.512  1.00  0.00     0.159 C 
HETATM    9  C1  UNL     1      17.598  21.802  19.903  1.00  0.00     0.023 C 
ENDBRANCH   5   8
ENDBRANCH   4   5
BRANCH   4  10
HETATM   10  C3  UNL     1      15.694  23.893  16.563  1.00  0.00     0.089 C 
BRANCH  10  11
HETATM   11  C4  UNL     1      16.783  24.333  15.608  1.00  0.00     0.129 C 
BRANCH  11  12
HETATM   12  C5  UNL     1      17.592  25.416  16.251  1.00  0.00     0.115 C 
HETATM   13  N2  UNL     1      17.325  25.802  17.448  1.00  0.00    -0.383 N 
ATOM     14  H22 UNL     1      16.551  25.342  17.926  1.00  0.00     0.157 HD
ATOM     15  H21 UNL     1      17.876  26.541  17.886  1.00  0.00     0.157 HD
BRANCH  12  16
HETATM   16  O3  UNL     1      18.635  26.036  15.608  1.00  0.00    -0.344 OA
HETATM   17  C6  UNL     1      18.461  26.867  14.472  1.00  0.00     0.211 C 
ENDBRANCH  12  16
ENDBRANCH  11  12
ENDBRANCH  10  11
ENDBRANCH   4  10
ENDBRANCH   3   4
ENDBRANCH   1   3
BRANCH   1  18
HETATM   18  C10 UNL     1      13.516  20.120  14.573  1.00  0.00     0.120 C 
BRANCH  18  19
HETATM   19  S2  UNL     1      12.365  20.574  13.309  1.00  0.00    -0.066 SA
BRANCH  19  20
HETATM   20  C11 UNL     1      11.030  19.510  12.980  1.00  0.00     0.281 C 
HETATM   21  O4  UNL     1       9.852  20.024  13.086  1.00  0.00    -0.260 OA
HETATM   22  N3  UNL     1      11.094  18.157  12.611  1.00  0.00    -0.343 N 
HETATM   23  C12 UNL     1       9.886  17.313  12.353  1.00  0.00     0.126 C 
HETATM   24  C15 UNL     1      12.172  17.228  12.387  1.00  0.00     0.126 C 
HETATM   25  C13 UNL     1      10.268  16.710  11.021  1.00  0.00     0.021 C 
HETATM   26  C14 UNL     1      11.672  16.200  11.361  1.00  0.00     0.021 C 
ENDBRANCH  19  20
ENDBRANCH  18  19
ENDBRANCH   1  18
BRANCH   1  27
HETATM   27  N4  UNL     1      13.237  20.517  16.933  1.00  0.00    -0.329 N 
HETATM   28  C16 UNL     1      12.157  19.649  17.223  1.00  0.00     0.319 C 
HETATM   29  O5  UNL     1      11.343  19.375  16.312  1.00  0.00    -0.247 OA
HETATM   30  N5  UNL     1      11.953  19.073  18.507  1.00  0.00    -0.328 N 
HETATM   31  C17 UNL     1      12.890  19.398  19.538  1.00  0.00     0.128 C 
HETATM   32  C21 UNL     1      10.817  18.197  18.687  1.00  0.00     0.117 C 
HETATM   33  C18 UNL     1      12.695  18.733  20.844  1.00  0.00     0.020 C 
HETATM   34  C19 UNL     1      11.668  17.660  20.898  1.00  0.00     0.004 C 
HETATM   35  C20 UNL     1      10.453  18.078  20.135  1.00  0.00     0.027 C 
ATOM     36  H4  UNL     1      13.875  20.702  17.707  1.00  0.00     0.165 HD
BRANCH  32  37
HETATM   37  C22 UNL     1      11.082  16.813  18.115  1.00  0.00     0.296 C 
BRANCH  37  38
HETATM   38  N6  UNL     1       9.810  16.354  17.548  1.00  0.00     0.082 N 
HETATM   39  C23 UNL     1       9.901  16.212  16.116  1.00  0.00     0.309 C 
HETATM   40  C24 UNL     1       9.381  15.105  18.099  1.00  0.00     0.309 C 
ENDBRANCH  37  38
ENDBRANCH  32  37
ENDBRANCH   1  27
TORSDOF 14
ENDMDL
