MODEL 1
REMARK VINA RESULT: -9.035828330      0.000      0.000
REMARK  13 active torsions:
REMARK  status: ('A' for Active; 'I' for Inactive)
REMARK    1  A    between atoms: C4_4  and  S1_5 
REMARK    2  A    between atoms: S1_5  and  N1_6 
REMARK    3  A    between atoms: C5_11  and  N2_12 
REMARK    4  A    between atoms: N2_12  and  S2_14 
REMARK    5  A    between atoms: C8_19  and  S3_20 
REMARK    6  A    between atoms: S3_20  and  C9_23 
REMARK    7  A    between atoms: C9_23  and  C12_26 
REMARK    8  A    between atoms: C12_26  and  C13_27 
REMARK    9  A    between atoms: C13_27  and  C14_28 
REMARK   10  A    between atoms: C14_28  and  C15_29 
REMARK   11  A    between atoms: C15_29  and  C16_30 
REMARK   12  A    between atoms: C16_30  and  O7_31 
REMARK   13  A    between atoms: O7_31  and  C17_32 
ROOT
HETATM    1  C1  UNL     1      16.001  21.266  19.529  1.00  0.00     0.050 C 
HETATM    2  C2  UNL     1      14.901  20.814  18.627  1.00  0.00    -0.039 A 
HETATM    3  C3  UNL     1      13.832  20.126  19.237  1.00  0.00     0.036 A 
HETATM    4  C4  UNL     1      12.804  19.591  18.520  1.00  0.00     0.107 A 
HETATM    5  C5  UNL     1      12.847  19.747  17.157  1.00  0.00     0.067 A 
HETATM    6  C7  UNL     1      13.882  20.416  16.558  1.00  0.00     0.055 A 
HETATM    7  C8  UNL     1      14.963  20.983  17.279  1.00  0.00     0.068 A 
ENDROOT
BRANCH   7   8
HETATM    8  S3  UNL     1      16.161  21.887  16.471  1.00  0.00     0.184 S 
HETATM    9  O5  UNL     1      17.527  21.317  16.427  1.00  0.00    -0.222 OA
HETATM   10  O6  UNL     1      15.730  21.962  14.989  1.00  0.00    -0.222 OA
BRANCH   8  11
HETATM   11  C9  UNL     1      16.341  23.596  16.989  1.00  0.00     0.061 C 
HETATM   12  C10 UNL     1      15.147  24.153  17.660  1.00  0.00     0.032 C 
HETATM   13  C11 UNL     1      16.533  24.412  15.698  1.00  0.00     0.032 C 
BRANCH  11  14
HETATM   14  C12 UNL     1      17.560  23.647  17.831  1.00  0.00     0.025 C 
BRANCH  14  15
HETATM   15  C13 UNL     1      17.644  24.361  19.094  1.00  0.00     0.002 C 
BRANCH  15  16
HETATM   16  C14 UNL     1      18.962  24.832  19.593  1.00  0.00     0.002 C 
BRANCH  16  17
HETATM   17  C15 UNL     1      19.943  25.059  18.428  1.00  0.00     0.026 C 
BRANCH  17  18
HETATM   18  C16 UNL     1      19.995  26.517  18.017  1.00  0.00     0.168 C 
BRANCH  18  19
HETATM   19  O7  UNL     1      19.436  26.619  16.768  1.00  0.00    -0.381 OA
BRANCH  19  20
HETATM   20  C17 UNL     1      20.267  27.060  15.769  1.00  0.00     0.057 C 
HETATM   21  C18 UNL     1      20.502  25.894  14.798  1.00  0.00     0.046 C 
HETATM   22  C19 UNL     1      19.599  28.143  14.924  1.00  0.00     0.037 C 
HETATM   23  C20 UNL     1      20.518  28.506  13.794  1.00  0.00     0.003 C 
HETATM   24  C21 UNL     1      21.811  29.076  14.334  1.00  0.00     0.000 C 
HETATM   25  C22 UNL     1      22.482  28.052  15.210  1.00  0.00     0.003 C 
HETATM   26  C23 UNL     1      21.581  27.543  16.315  1.00  0.00     0.037 C 
ENDBRANCH  19  20
ENDBRANCH  18  19
ENDBRANCH  17  18
ENDBRANCH  16  17
ENDBRANCH  15  16
ENDBRANCH  14  15
ENDBRANCH  11  14
ENDBRANCH   8  11
ENDBRANCH   7   8
BRANCH   5  27
HETATM   27  N2  UNL     1      11.797  19.207  16.370  1.00  0.00    -0.283 N 
ATOM     28  H2  UNL     1      11.352  18.341  16.675  1.00  0.00     0.178 HD
BRANCH  27  29
HETATM   29  S2  UNL     1      11.245  19.956  14.919  1.00  0.00     0.227 S 
HETATM   30  C6  UNL     1      11.069  21.696  15.078  1.00  0.00     0.186 C 
HETATM   31  O3  UNL     1      12.177  19.638  13.772  1.00  0.00    -0.206 OA
HETATM   32  O4  UNL     1       9.911  19.371  14.557  1.00  0.00    -0.206 OA
ENDBRANCH  27  29
ENDBRANCH   5  27
BRANCH   4  33
HETATM   33  S1  UNL     1      11.496  18.740  19.346  1.00  0.00     0.259 S 
HETATM   34  O1  UNL     1      11.565  17.285  19.027  1.00  0.00    -0.201 OA
HETATM   35  O2  UNL     1      10.191  19.325  18.859  1.00  0.00    -0.201 OA
BRANCH  33  36
HETATM   36  N1  UNL     1      11.619  18.918  21.060  1.00  0.00    -0.324 N 
ATOM     37  H12 UNL     1      10.980  19.487  21.616  1.00  0.00     0.169 HD
ATOM     38  H11 UNL     1      12.406  18.385  21.430  1.00  0.00     0.169 HD
ENDBRANCH  33  36
ENDBRANCH   4  33
TORSDOF 13
ENDMDL
MODEL 2
REMARK VINA RESULT: -8.987871917      1.331      2.906
REMARK  13 active torsions:
REMARK  status: ('A' for Active; 'I' for Inactive)
REMARK    1  A    between atoms: C4_4  and  S1_5 
REMARK    2  A    between atoms: S1_5  and  N1_6 
REMARK    3  A    between atoms: C5_11  and  N2_12 
REMARK    4  A    between atoms: N2_12  and  S2_14 
REMARK    5  A    between atoms: C8_19  and  S3_20 
REMARK    6  A    between atoms: S3_20  and  C9_23 
REMARK    7  A    between atoms: C9_23  and  C12_26 
REMARK    8  A    between atoms: C12_26  and  C13_27 
REMARK    9  A    between atoms: C13_27  and  C14_28 
REMARK   10  A    between atoms: C14_28  and  C15_29 
REMARK   11  A    between atoms: C15_29  and  C16_30 
REMARK   12  A    between atoms: C16_30  and  O7_31 
REMARK   13  A    between atoms: O7_31  and  C17_32 
ROOT
HETATM    1  C1  UNL     1      15.094  22.095  14.795  1.00  0.00     0.050 C 
HETATM    2  C2  UNL     1      14.425  21.405  15.936  1.00  0.00    -0.039 A 
HETATM    3  C3  UNL     1      13.094  20.990  15.727  1.00  0.00     0.036 A 
HETATM    4  C4  UNL     1      12.343  20.421  16.711  1.00  0.00     0.107 A 
HETATM    5  C5  UNL     1      12.939  20.262  17.937  1.00  0.00     0.067 A 
HETATM    6  C7  UNL     1      14.232  20.662  18.147  1.00  0.00     0.055 A 
HETATM    7  C8  UNL     1      15.037  21.256  17.142  1.00  0.00     0.068 A 
ENDROOT
BRANCH   7   8
HETATM    8  S3  UNL     1      16.670  21.633  17.452  1.00  0.00     0.184 S 
HETATM    9  O5  UNL     1      17.285  21.040  18.662  1.00  0.00    -0.222 OA
HETATM   10  O6  UNL     1      17.487  21.042  16.280  1.00  0.00    -0.222 OA
BRANCH   8  11
HETATM   11  C9  UNL     1      17.085  23.379  17.474  1.00  0.00     0.061 C 
HETATM   12  C10 UNL     1      15.932  24.270  17.726  1.00  0.00     0.032 C 
HETATM   13  C11 UNL     1      17.590  23.712  16.060  1.00  0.00     0.032 C 
BRANCH  11  14
HETATM   14  C12 UNL     1      18.170  23.533  18.472  1.00  0.00     0.025 C 
BRANCH  14  15
HETATM   15  C13 UNL     1      18.106  24.438  19.607  1.00  0.00     0.002 C 
BRANCH  15  16
HETATM   16  C14 UNL     1      19.320  25.182  20.032  1.00  0.00     0.002 C 
BRANCH  16  17
HETATM   17  C15 UNL     1      20.331  25.292  18.876  1.00  0.00     0.026 C 
BRANCH  17  18
HETATM   18  C16 UNL     1      20.229  26.627  18.168  1.00  0.00     0.168 C 
BRANCH  18  19
HETATM   19  O7  UNL     1      19.709  26.399  16.919  1.00  0.00    -0.381 OA
BRANCH  19  20
HETATM   20  C17 UNL     1      20.414  26.926  15.866  1.00  0.00     0.057 C 
HETATM   21  C18 UNL     1      20.634  25.809  14.836  1.00  0.00     0.046 C 
HETATM   22  C19 UNL     1      19.601  27.985  15.124  1.00  0.00     0.037 C 
HETATM   23  C20 UNL     1      20.388  28.445  13.930  1.00  0.00     0.003 C 
HETATM   24  C21 UNL     1      21.685  29.085  14.372  1.00  0.00     0.000 C 
HETATM   25  C22 UNL     1      22.499  28.084  15.146  1.00  0.00     0.003 C 
HETATM   26  C23 UNL     1      21.738  27.481  16.308  1.00  0.00     0.037 C 
ENDBRANCH  19  20
ENDBRANCH  18  19
ENDBRANCH  17  18
ENDBRANCH  16  17
ENDBRANCH  15  16
ENDBRANCH  14  15
ENDBRANCH  11  14
ENDBRANCH   8  11
ENDBRANCH   7   8
BRANCH   5  27
HETATM   27  N2  UNL     1      12.194  19.673  18.992  1.00  0.00    -0.283 N 
ATOM     28  H2  UNL     1      11.481  20.233  19.460  1.00  0.00     0.178 HD
BRANCH  27  29
HETATM   29  S2  UNL     1      12.448  18.050  19.513  1.00  0.00     0.227 S 
HETATM   30  C6  UNL     1      10.981  17.087  19.472  1.00  0.00     0.186 C 
HETATM   31  O3  UNL     1      13.520  17.388  18.676  1.00  0.00    -0.206 OA
HETATM   32  O4  UNL     1      12.965  18.076  20.922  1.00  0.00    -0.206 OA
ENDBRANCH  27  29
ENDBRANCH   5  27
BRANCH   4  33
HETATM   33  S1  UNL     1      10.680  19.925  16.382  1.00  0.00     0.259 S 
HETATM   34  O1  UNL     1      10.168  20.652  15.185  1.00  0.00    -0.201 OA
HETATM   35  O2  UNL     1       9.853  20.265  17.600  1.00  0.00    -0.201 OA
BRANCH  33  36
HETATM   36  N1  UNL     1      10.586  18.231  16.059  1.00  0.00    -0.324 N 
ATOM     37  H12 UNL     1      10.327  17.536  16.760  1.00  0.00     0.169 HD
ATOM     38  H11 UNL     1      10.822  18.027  15.088  1.00  0.00     0.169 HD
ENDBRANCH  33  36
ENDBRANCH   4  33
TORSDOF 13
ENDMDL
MODEL 3
REMARK VINA RESULT: -8.886165867      1.659      3.387
REMARK  13 active torsions:
REMARK  status: ('A' for Active; 'I' for Inactive)
REMARK    1  A    between atoms: C4_4  and  S1_5 
REMARK    2  A    between atoms: S1_5  and  N1_6 
REMARK    3  A    between atoms: C5_11  and  N2_12 
REMARK    4  A    between atoms: N2_12  and  S2_14 
REMARK    5  A    between atoms: C8_19  and  S3_20 
REMARK    6  A    between atoms: S3_20  and  C9_23 
REMARK    7  A    between atoms: C9_23  and  C12_26 
REMARK    8  A    between atoms: C12_26  and  C13_27 
REMARK    9  A    between atoms: C13_27  and  C14_28 
REMARK   10  A    between atoms: C14_28  and  C15_29 
REMARK   11  A    between atoms: C15_29  and  C16_30 
REMARK   12  A    between atoms: C16_30  and  O7_31 
REMARK   13  A    between atoms: O7_31  and  C17_32 
ROOT
HETATM    1  C1  UNL     1      14.556  21.391  13.782  1.00  0.00     0.050 C 
HETATM    2  C2  UNL     1      13.807  21.046  15.026  1.00  0.00    -0.039 A 
HETATM    3  C3  UNL     1      12.559  20.412  14.853  1.00  0.00     0.036 A 
HETATM    4  C4  UNL     1      11.739  20.115  15.899  1.00  0.00     0.107 A 
HETATM    5  C5  UNL     1      12.178  20.461  17.153  1.00  0.00     0.067 A 
HETATM    6  C7  UNL     1      13.390  21.076  17.329  1.00  0.00     0.055 A 
HETATM    7  C8  UNL     1      14.264  21.396  16.259  1.00  0.00     0.068 A 
ENDROOT
BRANCH   7   8
HETATM    8  S3  UNL     1      15.799  22.068  16.567  1.00  0.00     0.184 S 
HETATM    9  O5  UNL     1      16.979  21.311  16.091  1.00  0.00    -0.222 OA
HETATM   10  O6  UNL     1      15.859  23.400  15.786  1.00  0.00    -0.222 OA
BRANCH   8  11
HETATM   11  C9  UNL     1      16.135  22.514  18.273  1.00  0.00     0.061 C 
HETATM   12  C10 UNL     1      15.277  21.823  19.258  1.00  0.00     0.032 C 
HETATM   13  C11 UNL     1      15.810  24.014  18.390  1.00  0.00     0.032 C 
BRANCH  11  14
HETATM   14  C12 UNL     1      17.581  22.270  18.486  1.00  0.00     0.025 C 
BRANCH  14  15
HETATM   15  C13 UNL     1      18.204  22.181  19.796  1.00  0.00     0.002 C 
BRANCH  15  16
HETATM   16  C14 UNL     1      18.699  23.412  20.467  1.00  0.00     0.002 C 
BRANCH  16  17
HETATM   17  C15 UNL     1      19.834  24.063  19.655  1.00  0.00     0.026 C 
BRANCH  17  18
HETATM   18  C16 UNL     1      19.312  25.142  18.729  1.00  0.00     0.168 C 
BRANCH  18  19
HETATM   19  O7  UNL     1      20.164  25.218  17.656  1.00  0.00    -0.381 OA
BRANCH  19  20
HETATM   20  C17 UNL     1      19.577  25.439  16.435  1.00  0.00     0.057 C 
HETATM   21  C18 UNL     1      19.276  24.073  15.801  1.00  0.00     0.046 C 
HETATM   22  C19 UNL     1      18.213  26.109  16.583  1.00  0.00     0.037 C 
HETATM   23  C20 UNL     1      17.585  26.227  15.224  1.00  0.00     0.003 C 
HETATM   24  C21 UNL     1      18.434  27.103  14.330  1.00  0.00     0.000 C 
HETATM   25  C22 UNL     1      19.805  26.498  14.192  1.00  0.00     0.003 C 
HETATM   26  C23 UNL     1      20.469  26.237  15.527  1.00  0.00     0.037 C 
ENDBRANCH  19  20
ENDBRANCH  18  19
ENDBRANCH  17  18
ENDBRANCH  16  17
ENDBRANCH  15  16
ENDBRANCH  14  15
ENDBRANCH  11  14
ENDBRANCH   8  11
ENDBRANCH   7   8
BRANCH   5  27
HETATM   27  N2  UNL     1      11.357  20.170  18.273  1.00  0.00    -0.283 N 
ATOM     28  H2  UNL     1      10.570  20.787  18.477  1.00  0.00     0.178 HD
BRANCH  27  29
HETATM   29  S2  UNL     1      11.638  18.817  19.303  1.00  0.00     0.227 S 
HETATM   30  C6  UNL     1      12.992  19.063  20.394  1.00  0.00     0.186 C 
HETATM   31  O3  UNL     1      10.393  18.490  20.097  1.00  0.00    -0.206 OA
HETATM   32  O4  UNL     1      11.923  17.617  18.449  1.00  0.00    -0.206 OA
ENDBRANCH  27  29
ENDBRANCH   5  27
BRANCH   4  33
HETATM   33  S1  UNL     1      10.188  19.322  15.613  1.00  0.00     0.259 S 
HETATM   34  O1  UNL     1       9.843  19.404  14.164  1.00  0.00    -0.201 OA
HETATM   35  O2  UNL     1       9.148  20.038  16.444  1.00  0.00    -0.201 OA
BRANCH  33  36
HETATM   36  N1  UNL     1      10.249  17.653  16.053  1.00  0.00    -0.324 N 
ATOM     37  H12 UNL     1      11.106  17.174  16.330  1.00  0.00     0.169 HD
ATOM     38  H11 UNL     1       9.326  17.223  15.998  1.00  0.00     0.169 HD
ENDBRANCH  33  36
ENDBRANCH   4  33
TORSDOF 13
ENDMDL
MODEL 4
REMARK VINA RESULT: -8.873410596      1.050      1.529
REMARK  13 active torsions:
REMARK  status: ('A' for Active; 'I' for Inactive)
REMARK    1  A    between atoms: C4_4  and  S1_5 
REMARK    2  A    between atoms: S1_5  and  N1_6 
REMARK    3  A    between atoms: C5_11  and  N2_12 
REMARK    4  A    between atoms: N2_12  and  S2_14 
REMARK    5  A    between atoms: C8_19  and  S3_20 
REMARK    6  A    between atoms: S3_20  and  C9_23 
REMARK    7  A    between atoms: C9_23  and  C12_26 
REMARK    8  A    between atoms: C12_26  and  C13_27 
REMARK    9  A    between atoms: C13_27  and  C14_28 
REMARK   10  A    between atoms: C14_28  and  C15_29 
REMARK   11  A    between atoms: C15_29  and  C16_30 
REMARK   12  A    between atoms: C16_30  and  O7_31 
REMARK   13  A    between atoms: O7_31  and  C17_32 
ROOT
HETATM    1  C1  UNL     1      15.770  21.114  19.601  1.00  0.00     0.050 C 
HETATM    2  C2  UNL     1      14.683  20.707  18.664  1.00  0.00    -0.039 A 
HETATM    3  C3  UNL     1      13.578  20.043  19.235  1.00  0.00     0.036 A 
HETATM    4  C4  UNL     1      12.555  19.548  18.482  1.00  0.00     0.107 A 
HETATM    5  C5  UNL     1      12.640  19.721  17.123  1.00  0.00     0.067 A 
HETATM    6  C7  UNL     1      13.711  20.366  16.563  1.00  0.00     0.055 A 
HETATM    7  C8  UNL     1      14.788  20.892  17.320  1.00  0.00     0.068 A 
ENDROOT
BRANCH   7   8
HETATM    8  S3  UNL     1      16.033  21.771  16.558  1.00  0.00     0.184 S 
HETATM    9  O5  UNL     1      17.398  21.200  16.613  1.00  0.00    -0.222 OA
HETATM   10  O6  UNL     1      15.691  21.800  15.051  1.00  0.00    -0.222 OA
BRANCH   8  11
HETATM   11  C9  UNL     1      16.185  23.495  17.033  1.00  0.00     0.061 C 
HETATM   12  C10 UNL     1      14.950  24.075  17.604  1.00  0.00     0.032 C 
HETATM   13  C11 UNL     1      16.467  24.269  15.734  1.00  0.00     0.032 C 
BRANCH  11  14
HETATM   14  C12 UNL     1      17.344  23.570  17.954  1.00  0.00     0.025 C 
BRANCH  14  15
HETATM   15  C13 UNL     1      17.390  24.419  19.133  1.00  0.00     0.002 C 
BRANCH  15  16
HETATM   16  C14 UNL     1      18.643  24.519  19.926  1.00  0.00     0.002 C 
BRANCH  16  17
HETATM   17  C15 UNL     1      19.878  24.306  19.032  1.00  0.00     0.026 C 
BRANCH  17  18
HETATM   18  C16 UNL     1      20.344  25.603  18.402  1.00  0.00     0.168 C 
BRANCH  18  19
HETATM   19  O7  UNL     1      20.119  25.516  17.052  1.00  0.00    -0.381 OA
BRANCH  19  20
HETATM   20  C17 UNL     1      20.310  26.669  16.332  1.00  0.00     0.057 C 
HETATM   21  C18 UNL     1      20.614  27.801  17.325  1.00  0.00     0.046 C 
HETATM   22  C19 UNL     1      21.555  26.578  15.452  1.00  0.00     0.037 C 
HETATM   23  C20 UNL     1      21.762  27.902  14.774  1.00  0.00     0.003 C 
HETATM   24  C21 UNL     1      20.586  28.221  13.878  1.00  0.00     0.000 C 
HETATM   25  C22 UNL     1      19.328  28.277  14.704  1.00  0.00     0.003 C 
HETATM   26  C23 UNL     1      19.100  27.019  15.514  1.00  0.00     0.037 C 
ENDBRANCH  19  20
ENDBRANCH  18  19
ENDBRANCH  17  18
ENDBRANCH  16  17
ENDBRANCH  15  16
ENDBRANCH  14  15
ENDBRANCH  11  14
ENDBRANCH   8  11
ENDBRANCH   7   8
BRANCH   5  27
HETATM   27  N2  UNL     1      11.598  19.221  16.300  1.00  0.00    -0.283 N 
ATOM     28  H2  UNL     1      11.099  18.382  16.596  1.00  0.00     0.178 HD
BRANCH  27  29
HETATM   29  S2  UNL     1      11.141  19.978  14.821  1.00  0.00     0.227 S 
HETATM   30  C6  UNL     1      12.374  19.840  13.578  1.00  0.00     0.186 C 
HETATM   31  O3  UNL     1       9.836  19.404  14.314  1.00  0.00    -0.206 OA
HETATM   32  O4  UNL     1      10.889  21.433  15.086  1.00  0.00    -0.206 OA
ENDBRANCH  27  29
ENDBRANCH   5  27
BRANCH   4  33
HETATM   33  S1  UNL     1      11.200  18.725  19.260  1.00  0.00     0.259 S 
HETATM   34  O1  UNL     1       9.923  19.142  18.615  1.00  0.00    -0.201 OA
HETATM   35  O2  UNL     1      11.206  19.115  20.720  1.00  0.00    -0.201 OA
BRANCH  33  36
HETATM   36  N1  UNL     1      11.341  17.010  19.107  1.00  0.00    -0.324 N 
ATOM     37  H12 UNL     1      11.231  16.511  18.223  1.00  0.00     0.169 HD
ATOM     38  H11 UNL     1      11.545  16.575  20.006  1.00  0.00     0.169 HD
ENDBRANCH  33  36
ENDBRANCH   4  33
TORSDOF 13
ENDMDL
MODEL 5
REMARK VINA RESULT: -8.853169346      3.787     10.264
REMARK  13 active torsions:
REMARK  status: ('A' for Active; 'I' for Inactive)
REMARK    1  A    between atoms: C4_4  and  S1_5 
REMARK    2  A    between atoms: S1_5  and  N1_6 
REMARK    3  A    between atoms: C5_11  and  N2_12 
REMARK    4  A    between atoms: N2_12  and  S2_14 
REMARK    5  A    between atoms: C8_19  and  S3_20 
REMARK    6  A    between atoms: S3_20  and  C9_23 
REMARK    7  A    between atoms: C9_23  and  C12_26 
REMARK    8  A    between atoms: C12_26  and  C13_27 
REMARK    9  A    between atoms: C13_27  and  C14_28 
REMARK   10  A    between atoms: C14_28  and  C15_29 
REMARK   11  A    between atoms: C15_29  and  C16_30 
REMARK   12  A    between atoms: C16_30  and  O7_31 
REMARK   13  A    between atoms: O7_31  and  C17_32 
ROOT
HETATM    1  C1  UNL     1      16.582  23.557  15.066  1.00  0.00     0.050 C 
HETATM    2  C2  UNL     1      17.600  24.037  16.045  1.00  0.00    -0.039 A 
HETATM    3  C3  UNL     1      18.253  25.247  15.731  1.00  0.00     0.036 A 
HETATM    4  C4  UNL     1      19.258  25.755  16.498  1.00  0.00     0.107 A 
HETATM    5  C5  UNL     1      19.621  25.033  17.608  1.00  0.00     0.067 A 
HETATM    6  C7  UNL     1      18.990  23.857  17.920  1.00  0.00     0.055 A 
HETATM    7  C8  UNL     1      17.941  23.306  17.141  1.00  0.00     0.068 A 
ENDROOT
BRANCH   7   8
HETATM    8  S3  UNL     1      17.138  21.891  17.650  1.00  0.00     0.184 S 
HETATM    9  O5  UNL     1      17.183  20.723  16.742  1.00  0.00    -0.222 OA
HETATM   10  O6  UNL     1      17.864  21.410  18.927  1.00  0.00    -0.222 OA
BRANCH   8  11
HETATM   11  C9  UNL     1      15.423  22.091  18.137  1.00  0.00     0.061 C 
HETATM   12  C10 UNL     1      14.950  23.492  18.121  1.00  0.00     0.032 C 
HETATM   13  C11 UNL     1      15.341  21.623  19.601  1.00  0.00     0.032 C 
BRANCH  11  14
HETATM   14  C12 UNL     1      14.635  21.199  17.253  1.00  0.00     0.025 C 
BRANCH  14  15
HETATM   15  C13 UNL     1      13.519  21.646  16.437  1.00  0.00     0.002 C 
BRANCH  15  16
HETATM   16  C14 UNL     1      12.919  20.727  15.435  1.00  0.00     0.002 C 
BRANCH  16  17
HETATM   17  C15 UNL     1      11.405  20.570  15.670  1.00  0.00     0.026 C 
BRANCH  17  18
HETATM   18  C16 UNL     1      11.108  20.006  17.044  1.00  0.00     0.168 C 
BRANCH  18  19
HETATM   19  O7  UNL     1      11.756  18.802  17.151  1.00  0.00    -0.381 OA
BRANCH  19  20
HETATM   20  C17 UNL     1      12.087  18.405  18.423  1.00  0.00     0.057 C 
HETATM   21  C18 UNL     1      13.490  17.785  18.375  1.00  0.00     0.046 C 
HETATM   22  C19 UNL     1      12.220  19.601  19.363  1.00  0.00     0.037 C 
HETATM   23  C20 UNL     1      12.680  19.107  20.705  1.00  0.00     0.003 C 
HETATM   24  C21 UNL     1      11.654  18.167  21.297  1.00  0.00     0.000 C 
HETATM   25  C22 UNL     1      11.461  16.992  20.376  1.00  0.00     0.003 C 
HETATM   26  C23 UNL     1      11.104  17.406  18.964  1.00  0.00     0.037 C 
ENDBRANCH  19  20
ENDBRANCH  18  19
ENDBRANCH  17  18
ENDBRANCH  16  17
ENDBRANCH  15  16
ENDBRANCH  14  15
ENDBRANCH  11  14
ENDBRANCH   8  11
ENDBRANCH   7   8
BRANCH   5  27
HETATM   27  N2  UNL     1      20.663  25.525  18.437  1.00  0.00    -0.283 N 
ATOM     28  H2  UNL     1      21.553  25.779  18.007  1.00  0.00     0.178 HD
BRANCH  27  29
HETATM   29  S2  UNL     1      20.484  25.709  20.141  1.00  0.00     0.227 S 
HETATM   30  C6  UNL     1      20.799  27.349  20.683  1.00  0.00     0.186 C 
HETATM   31  O3  UNL     1      19.101  25.282  20.577  1.00  0.00    -0.206 OA
HETATM   32  O4  UNL     1      21.449  24.785  20.825  1.00  0.00    -0.206 OA
ENDBRANCH  27  29
ENDBRANCH   5  27
BRANCH   4  33
HETATM   33  S1  UNL     1      20.034  27.275  16.048  1.00  0.00     0.259 S 
HETATM   34  O1  UNL     1      21.424  27.008  15.578  1.00  0.00    -0.201 OA
HETATM   35  O2  UNL     1      20.052  28.159  17.273  1.00  0.00    -0.201 OA
BRANCH  33  36
HETATM   36  N1  UNL     1      19.179  28.058  14.767  1.00  0.00    -0.324 N 
ATOM     37  H12 UNL     1      19.295  29.044  14.531  1.00  0.00     0.169 HD
ATOM     38  H11 UNL     1      18.554  27.408  14.290  1.00  0.00     0.169 HD
ENDBRANCH  33  36
ENDBRANCH   4  33
TORSDOF 13
ENDMDL
