MODEL 1
REMARK VINA RESULT: -9.139501417      0.000      0.000
REMARK  14 active torsions:
REMARK  status: ('A' for Active; 'I' for Inactive)
REMARK    1  A    between atoms: C3_3  and  C4_4 
REMARK    2  A    between atoms: C4_4  and  N1_5 
REMARK    3  A    between atoms: C10_11  and  O1_12 
REMARK    4  A    between atoms: C12_14  and  O2_15 
REMARK    5  A    between atoms: O2_15  and  C13_16 
REMARK    6  A    between atoms: C13_16  and  C14_17 
REMARK    7  A    between atoms: C14_17  and  C15_18 
REMARK    8  A    between atoms: C15_18  and  C16_19 
REMARK    9  A    between atoms: C16_19  and  C17_20 
REMARK   10  A    between atoms: C17_20  and  C18_21 
REMARK   11  A    between atoms: C25_29  and  O3_30 
REMARK   12  A    between atoms: N3_32  and  C26_33 
REMARK   13  A    between atoms: C26_33  and  C27_34 
REMARK   14  A    between atoms: C27_34  and  C28_35 
REMARK       I    between atoms: C28_35  and  N4_37 
ROOT
HETATM    1  N1  UNL     1      17.958  22.991  18.589  1.00  0.00    -0.329 N 
HETATM    2  C5  UNL     1      17.599  23.041  19.893  1.00  0.00     0.013 A 
HETATM    3  C6  UNL     1      18.476  23.771  20.825  1.00  0.00     0.068 C 
HETATM    4  C7  UNL     1      16.445  22.427  20.347  1.00  0.00     0.037 A 
HETATM    5  C8  UNL     1      15.628  21.745  19.472  1.00  0.00    -0.019 A 
HETATM    6  C9  UNL     1      14.462  21.119  19.901  1.00  0.00     0.052 A 
HETATM    7  C10 UNL     1      13.677  20.449  18.984  1.00  0.00     0.102 A 
HETATM    8  C12 UNL     1      14.038  20.398  17.669  1.00  0.00     0.102 A 
HETATM    9  C20 UNL     1      15.184  21.016  17.260  1.00  0.00     0.054 A 
HETATM   10  C21 UNL     1      15.999  21.698  18.148  1.00  0.00    -0.000 A 
HETATM   11  C22 UNL     1      17.159  22.325  17.740  1.00  0.00     0.023 A 
HETATM   12  C23 UNL     1      17.477  22.217  16.276  1.00  0.00     0.069 C 
ENDROOT
BRANCH   1  13
HETATM   13  C4  UNL     1      19.101  23.639  18.116  1.00  0.00     0.112 C 
BRANCH  13  14
HETATM   14  C3  UNL     1      19.308  24.819  17.650  1.00  0.00     0.035 A 
HETATM   15  C2  UNL     1      19.084  25.358  16.413  1.00  0.00     0.040 A 
HETATM   16  C1  UNL     1      18.560  24.772  15.355  1.00  0.00     0.044 C 
HETATM   17  N3  UNL     1      19.484  26.673  16.390  1.00  0.00    -0.326 N 
HETATM   18  C25 UNL     1      19.962  26.986  17.599  1.00  0.00     0.168 A 
HETATM   19  C24 UNL     1      19.868  25.876  18.391  1.00  0.00     0.111 A 
HETATM   20  N2  UNL     1      20.272  25.780  19.771  1.00  0.00    -0.097 NA
BRANCH  17  21
HETATM   21  C26 UNL     1      19.423  27.587  15.256  1.00  0.00     0.140 C 
BRANCH  21  22
HETATM   22  C27 UNL     1      20.711  27.469  14.473  1.00  0.00     0.123 C 
BRANCH  22  23
HETATM   23  C28 UNL     1      21.591  28.651  14.708  1.00  0.00     0.221 C 
HETATM   24  O4  UNL     1      21.268  29.752  14.224  1.00  0.00    -0.273 OA
HETATM   25  N4  UNL     1      22.776  28.545  15.463  1.00  0.00    -0.348 N 
HETATM   26  C29 UNL     1      23.220  27.282  16.062  1.00  0.00     0.152 C 
HETATM   27  C32 UNL     1      23.605  29.697  15.675  1.00  0.00     0.152 C 
HETATM   28  C30 UNL     1      24.683  27.078  15.685  1.00  0.00     0.187 C 
HETATM   29  O5  UNL     1      25.402  28.238  15.954  1.00  0.00    -0.388 OA
HETATM   30  C31 UNL     1      24.996  29.322  15.177  1.00  0.00     0.187 C 
ENDBRANCH  22  23
ENDBRANCH  21  22
ENDBRANCH  17  21
BRANCH  18  31
HETATM   31  O3  UNL     1      20.478  28.231  18.016  1.00  0.00    -0.344 OA
ATOM     32  H3  UNL     1      20.467  29.024  17.493  1.00  0.00     0.219 HD
ENDBRANCH  18  31
ENDBRANCH  13  14
ENDBRANCH   1  13
BRANCH   8  33
HETATM   33  O2  UNL     1      13.229  19.718  16.772  1.00  0.00    -0.348 OA
BRANCH  33  34
HETATM   34  C13 UNL     1      12.061  20.203  16.191  1.00  0.00     0.176 C 
BRANCH  34  35
HETATM   35  C14 UNL     1      12.443  20.769  14.828  1.00  0.00     0.027 C 
BRANCH  35  36
HETATM   36  C15 UNL     1      12.157  22.286  14.946  1.00  0.00     0.002 C 
BRANCH  36  37
HETATM   37  C16 UNL     1      13.431  23.048  14.829  1.00  0.00     0.000 C 
BRANCH  37  38
HETATM   38  C17 UNL     1      14.450  22.408  13.968  1.00  0.00    -0.000 C 
BRANCH  38  39
HETATM   39  C18 UNL     1      15.042  23.117  12.830  1.00  0.00    -0.005 C 
HETATM   40  C19 UNL     1      15.634  24.447  13.120  1.00  0.00     0.005 C 
ENDBRANCH  38  39
ENDBRANCH  37  38
ENDBRANCH  36  37
ENDBRANCH  35  36
ENDBRANCH  34  35
ENDBRANCH  33  34
ENDBRANCH   8  33
BRANCH   7  41
HETATM   41  O1  UNL     1      12.517  19.833  19.440  1.00  0.00    -0.353 OA
HETATM   42  C11 UNL     1      12.524  18.872  20.458  1.00  0.00     0.210 C 
ENDBRANCH   7  41
TORSDOF 14
ENDMDL
MODEL 2
REMARK VINA RESULT: -9.079465742      2.657     10.759
REMARK  14 active torsions:
REMARK  status: ('A' for Active; 'I' for Inactive)
REMARK    1  A    between atoms: C3_3  and  C4_4 
REMARK    2  A    between atoms: C4_4  and  N1_5 
REMARK    3  A    between atoms: C10_11  and  O1_12 
REMARK    4  A    between atoms: C12_14  and  O2_15 
REMARK    5  A    between atoms: O2_15  and  C13_16 
REMARK    6  A    between atoms: C13_16  and  C14_17 
REMARK    7  A    between atoms: C14_17  and  C15_18 
REMARK    8  A    between atoms: C15_18  and  C16_19 
REMARK    9  A    between atoms: C16_19  and  C17_20 
REMARK   10  A    between atoms: C17_20  and  C18_21 
REMARK   11  A    between atoms: C25_29  and  O3_30 
REMARK   12  A    between atoms: N3_32  and  C26_33 
REMARK   13  A    between atoms: C26_33  and  C27_34 
REMARK   14  A    between atoms: C27_34  and  C28_35 
REMARK       I    between atoms: C28_35  and  N4_37 
ROOT
HETATM    1  N1  UNL     1      16.700  23.508  14.876  1.00  0.00    -0.329 N 
HETATM    2  C5  UNL     1      16.219  24.379  13.959  1.00  0.00     0.013 A 
HETATM    3  C6  UNL     1      15.118  23.930  13.089  1.00  0.00     0.068 C 
HETATM    4  C7  UNL     1      16.740  25.655  13.834  1.00  0.00     0.037 A 
HETATM    5  C8  UNL     1      17.771  26.070  14.650  1.00  0.00    -0.019 A 
HETATM    6  C9  UNL     1      18.313  27.346  14.546  1.00  0.00     0.052 A 
HETATM    7  C10 UNL     1      19.344  27.714  15.388  1.00  0.00     0.102 A 
HETATM    8  C12 UNL     1      19.830  26.835  16.313  1.00  0.00     0.102 A 
HETATM    9  C20 UNL     1      19.289  25.585  16.405  1.00  0.00     0.054 A 
HETATM   10  C21 UNL     1      18.254  25.178  15.579  1.00  0.00    -0.000 A 
HETATM   11  C22 UNL     1      17.704  23.916  15.668  1.00  0.00     0.023 A 
HETATM   12  C23 UNL     1      18.301  23.018  16.715  1.00  0.00     0.069 C 
ENDROOT
BRANCH   1  13
HETATM   13  C4  UNL     1      16.155  22.232  15.034  1.00  0.00     0.112 C 
BRANCH  13  14
HETATM   14  C3  UNL     1      15.087  21.801  15.604  1.00  0.00     0.035 A 
HETATM   15  C2  UNL     1      14.636  21.916  16.891  1.00  0.00     0.040 A 
HETATM   16  C1  UNL     1      15.209  22.542  17.899  1.00  0.00     0.044 C 
HETATM   17  N3  UNL     1      13.430  21.270  17.030  1.00  0.00    -0.326 N 
HETATM   18  C25 UNL     1      13.100  20.742  15.847  1.00  0.00     0.168 A 
HETATM   19  C24 UNL     1      14.090  21.049  14.955  1.00  0.00     0.111 A 
HETATM   20  N2  UNL     1      14.129  20.672  13.566  1.00  0.00    -0.097 NA
BRANCH  17  21
HETATM   21  C26 UNL     1      12.634  21.153  18.245  1.00  0.00     0.140 C 
BRANCH  21  22
HETATM   22  C27 UNL     1      13.328  20.195  19.186  1.00  0.00     0.123 C 
BRANCH  22  23
HETATM   23  C28 UNL     1      13.244  18.794  18.680  1.00  0.00     0.221 C 
HETATM   24  O4  UNL     1      14.178  18.341  17.992  1.00  0.00    -0.273 OA
HETATM   25  N4  UNL     1      12.131  17.977  18.964  1.00  0.00    -0.348 N 
HETATM   26  C29 UNL     1      10.994  18.442  19.765  1.00  0.00     0.152 C 
HETATM   27  C32 UNL     1      12.073  16.633  18.464  1.00  0.00     0.152 C 
HETATM   28  C30 UNL     1       9.719  18.113  18.997  1.00  0.00     0.187 C 
HETATM   29  O5  UNL     1       9.750  16.785  18.585  1.00  0.00    -0.388 OA
HETATM   30  C31 UNL     1      10.774  16.522  17.676  1.00  0.00     0.187 C 
ENDBRANCH  22  23
ENDBRANCH  21  22
ENDBRANCH  17  21
BRANCH  18  31
HETATM   31  O3  UNL     1      11.943  19.996  15.538  1.00  0.00    -0.344 OA
ATOM     32  H3  UNL     1      11.392  19.563  16.179  1.00  0.00     0.219 HD
ENDBRANCH  18  31
ENDBRANCH  13  14
ENDBRANCH   1  13
BRANCH   8  33
HETATM   33  O2  UNL     1      20.866  27.234  17.143  1.00  0.00    -0.348 OA
BRANCH  33  34
HETATM   34  C13 UNL     1      20.837  27.260  18.535  1.00  0.00     0.176 C 
BRANCH  34  35
HETATM   35  C14 UNL     1      21.943  26.331  19.022  1.00  0.00     0.027 C 
BRANCH  35  36
HETATM   36  C15 UNL     1      21.192  25.105  19.597  1.00  0.00     0.002 C 
BRANCH  36  37
HETATM   37  C16 UNL     1      19.867  25.531  20.128  1.00  0.00     0.000 C 
BRANCH  37  38
HETATM   38  C17 UNL     1      19.169  24.501  20.929  1.00  0.00    -0.000 C 
BRANCH  38  39
HETATM   39  C18 UNL     1      18.068  23.713  20.366  1.00  0.00    -0.005 C 
HETATM   40  C19 UNL     1      18.231  22.239  20.401  1.00  0.00     0.005 C 
ENDBRANCH  38  39
ENDBRANCH  37  38
ENDBRANCH  36  37
ENDBRANCH  35  36
ENDBRANCH  34  35
ENDBRANCH  33  34
ENDBRANCH   8  33
BRANCH   7  41
HETATM   41  O1  UNL     1      19.868  28.995  15.263  1.00  0.00    -0.353 OA
HETATM   42  C11 UNL     1      20.894  29.306  14.362  1.00  0.00     0.210 C 
ENDBRANCH   7  41
TORSDOF 14
ENDMDL
MODEL 3
REMARK VINA RESULT: -9.072007625      2.576     10.593
REMARK  14 active torsions:
REMARK  status: ('A' for Active; 'I' for Inactive)
REMARK    1  A    between atoms: C3_3  and  C4_4 
REMARK    2  A    between atoms: C4_4  and  N1_5 
REMARK    3  A    between atoms: C10_11  and  O1_12 
REMARK    4  A    between atoms: C12_14  and  O2_15 
REMARK    5  A    between atoms: O2_15  and  C13_16 
REMARK    6  A    between atoms: C13_16  and  C14_17 
REMARK    7  A    between atoms: C14_17  and  C15_18 
REMARK    8  A    between atoms: C15_18  and  C16_19 
REMARK    9  A    between atoms: C16_19  and  C17_20 
REMARK   10  A    between atoms: C17_20  and  C18_21 
REMARK   11  A    between atoms: C25_29  and  O3_30 
REMARK   12  A    between atoms: N3_32  and  C26_33 
REMARK   13  A    between atoms: C26_33  and  C27_34 
REMARK   14  A    between atoms: C27_34  and  C28_35 
REMARK       I    between atoms: C28_35  and  N4_37 
ROOT
HETATM    1  N1  UNL     1      16.834  23.699  14.958  1.00  0.00    -0.329 N 
HETATM    2  C5  UNL     1      16.387  24.563  14.017  1.00  0.00     0.013 A 
HETATM    3  C6  UNL     1      15.275  24.130  13.152  1.00  0.00     0.068 C 
HETATM    4  C7  UNL     1      16.950  25.818  13.865  1.00  0.00     0.037 A 
HETATM    5  C8  UNL     1      17.989  26.218  14.677  1.00  0.00    -0.019 A 
HETATM    6  C9  UNL     1      18.573  27.474  14.546  1.00  0.00     0.052 A 
HETATM    7  C10 UNL     1      19.611  27.828  15.385  1.00  0.00     0.102 A 
HETATM    8  C12 UNL     1      20.063  26.956  16.333  1.00  0.00     0.102 A 
HETATM    9  C20 UNL     1      19.481  25.727  16.452  1.00  0.00     0.054 A 
HETATM   10  C21 UNL     1      18.438  25.334  15.630  1.00  0.00    -0.000 A 
HETATM   11  C22 UNL     1      17.846  24.093  15.746  1.00  0.00     0.023 A 
HETATM   12  C23 UNL     1      18.408  23.201  16.817  1.00  0.00     0.069 C 
ENDROOT
BRANCH   1  13
HETATM   13  C4  UNL     1      16.246  22.445  15.143  1.00  0.00     0.112 C 
BRANCH  13  14
HETATM   14  C3  UNL     1      15.089  22.075  15.562  1.00  0.00     0.035 A 
HETATM   15  C2  UNL     1      14.027  21.511  14.910  1.00  0.00     0.040 A 
HETATM   16  C1  UNL     1      13.938  21.178  13.638  1.00  0.00     0.044 C 
HETATM   17  N3  UNL     1      12.989  21.303  15.788  1.00  0.00    -0.326 N 
HETATM   18  C25 UNL     1      13.373  21.726  16.997  1.00  0.00     0.168 A 
HETATM   19  C24 UNL     1      14.650  22.203  16.892  1.00  0.00     0.111 A 
HETATM   20  N2  UNL     1      15.442  22.754  17.963  1.00  0.00    -0.097 NA
BRANCH  17  21
HETATM   21  C26 UNL     1      11.683  20.734  15.481  1.00  0.00     0.140 C 
BRANCH  21  22
HETATM   22  C27 UNL     1      11.662  19.295  15.945  1.00  0.00     0.123 C 
BRANCH  22  23
HETATM   23  C28 UNL     1      10.763  19.126  17.123  1.00  0.00     0.221 C 
HETATM   24  O4  UNL     1       9.686  19.749  17.157  1.00  0.00    -0.273 OA
HETATM   25  N4  UNL     1      11.110  18.278  18.194  1.00  0.00    -0.348 N 
HETATM   26  C29 UNL     1      12.362  17.514  18.224  1.00  0.00     0.152 C 
HETATM   27  C32 UNL     1      10.228  18.132  19.317  1.00  0.00     0.152 C 
HETATM   28  C30 UNL     1      13.023  17.758  19.576  1.00  0.00     0.187 C 
HETATM   29  O5  UNL     1      12.094  17.563  20.593  1.00  0.00    -0.388 OA
HETATM   30  C31 UNL     1      11.046  18.481  20.555  1.00  0.00     0.187 C 
ENDBRANCH  22  23
ENDBRANCH  21  22
ENDBRANCH  17  21
BRANCH  18  31
HETATM   31  O3  UNL     1      12.619  21.700  18.189  1.00  0.00    -0.344 OA
ATOM     32  H3  UNL     1      12.365  20.910  18.651  1.00  0.00     0.219 HD
ENDBRANCH  18  31
ENDBRANCH  13  14
ENDBRANCH   1  13
BRANCH   8  33
HETATM   33  O2  UNL     1      21.107  27.341  17.161  1.00  0.00    -0.348 OA
BRANCH  33  34
HETATM   34  C13 UNL     1      21.509  26.696  18.327  1.00  0.00     0.176 C 
BRANCH  34  35
HETATM   35  C14 UNL     1      20.829  27.410  19.489  1.00  0.00     0.027 C 
BRANCH  35  36
HETATM   36  C15 UNL     1      20.639  26.310  20.561  1.00  0.00     0.002 C 
BRANCH  36  37
HETATM   37  C16 UNL     1      19.928  25.145  19.965  1.00  0.00     0.000 C 
BRANCH  37  38
HETATM   38  C17 UNL     1      19.109  24.371  20.925  1.00  0.00    -0.000 C 
BRANCH  38  39
HETATM   39  C18 UNL     1      17.990  23.538  20.476  1.00  0.00    -0.005 C 
HETATM   40  C19 UNL     1      18.241  22.077  20.415  1.00  0.00     0.005 C 
ENDBRANCH  38  39
ENDBRANCH  37  38
ENDBRANCH  36  37
ENDBRANCH  35  36
ENDBRANCH  34  35
ENDBRANCH  33  34
ENDBRANCH   8  33
BRANCH   7  41
HETATM   41  O1  UNL     1      20.177  29.088  15.233  1.00  0.00    -0.353 OA
HETATM   42  C11 UNL     1      21.214  29.345  14.327  1.00  0.00     0.210 C 
ENDBRANCH   7  41
TORSDOF 14
ENDMDL
MODEL 4
REMARK VINA RESULT: -8.961653989      2.349     10.733
REMARK  14 active torsions:
REMARK  status: ('A' for Active; 'I' for Inactive)
REMARK    1  A    between atoms: C3_3  and  C4_4 
REMARK    2  A    between atoms: C4_4  and  N1_5 
REMARK    3  A    between atoms: C10_11  and  O1_12 
REMARK    4  A    between atoms: C12_14  and  O2_15 
REMARK    5  A    between atoms: O2_15  and  C13_16 
REMARK    6  A    between atoms: C13_16  and  C14_17 
REMARK    7  A    between atoms: C14_17  and  C15_18 
REMARK    8  A    between atoms: C15_18  and  C16_19 
REMARK    9  A    between atoms: C16_19  and  C17_20 
REMARK   10  A    between atoms: C17_20  and  C18_21 
REMARK   11  A    between atoms: C25_29  and  O3_30 
REMARK   12  A    between atoms: N3_32  and  C26_33 
REMARK   13  A    between atoms: C26_33  and  C27_34 
REMARK   14  A    between atoms: C27_34  and  C28_35 
REMARK       I    between atoms: C28_35  and  N4_37 
ROOT
HETATM    1  N1  UNL     1      17.608  24.552  15.218  1.00  0.00    -0.329 N 
HETATM    2  C5  UNL     1      17.132  25.410  14.286  1.00  0.00     0.013 A 
HETATM    3  C6  UNL     1      15.919  25.023  13.545  1.00  0.00     0.068 C 
HETATM    4  C7  UNL     1      17.760  26.616  14.029  1.00  0.00     0.037 A 
HETATM    5  C8  UNL     1      18.895  26.973  14.724  1.00  0.00    -0.019 A 
HETATM    6  C9  UNL     1      19.546  28.179  14.486  1.00  0.00     0.052 A 
HETATM    7  C10 UNL     1      20.679  28.490  15.211  1.00  0.00     0.102 A 
HETATM    8  C12 UNL     1      21.160  27.625  16.151  1.00  0.00     0.102 A 
HETATM    9  C20 UNL     1      20.513  26.445  16.375  1.00  0.00     0.054 A 
HETATM   10  C21 UNL     1      19.373  26.095  15.670  1.00  0.00    -0.000 A 
HETATM   11  C22 UNL     1      18.714  24.903  15.893  1.00  0.00     0.023 A 
HETATM   12  C23 UNL     1      19.314  24.015  16.945  1.00  0.00     0.069 C 
ENDROOT
BRANCH   1  13
HETATM   13  C4  UNL     1      16.959  23.350  15.510  1.00  0.00     0.112 C 
BRANCH  13  14
HETATM   14  C3  UNL     1      15.798  23.076  15.986  1.00  0.00     0.035 A 
HETATM   15  C2  UNL     1      14.779  22.302  15.502  1.00  0.00     0.040 A 
HETATM   16  C1  UNL     1      14.750  21.602  14.386  1.00  0.00     0.044 C 
HETATM   17  N3  UNL     1      13.713  22.325  16.371  1.00  0.00    -0.326 N 
HETATM   18  C25 UNL     1      14.036  23.104  17.408  1.00  0.00     0.168 A 
HETATM   19  C24 UNL     1      15.302  23.578  17.203  1.00  0.00     0.111 A 
HETATM   20  N2  UNL     1      16.034  24.454  18.082  1.00  0.00    -0.097 NA
BRANCH  17  21
HETATM   21  C26 UNL     1      12.437  21.640  16.209  1.00  0.00     0.140 C 
BRANCH  21  22
HETATM   22  C27 UNL     1      12.671  20.151  16.327  1.00  0.00     0.123 C 
BRANCH  22  23
HETATM   23  C28 UNL     1      12.937  19.761  17.742  1.00  0.00     0.221 C 
HETATM   24  O4  UNL     1      14.112  19.739  18.152  1.00  0.00    -0.273 OA
HETATM   25  N4  UNL     1      11.888  19.419  18.619  1.00  0.00    -0.348 N 
HETATM   26  C29 UNL     1      10.481  19.422  18.205  1.00  0.00     0.152 C 
HETATM   27  C32 UNL     1      12.171  19.047  19.976  1.00  0.00     0.152 C 
HETATM   28  C30 UNL     1       9.869  18.092  18.631  1.00  0.00     0.187 C 
HETATM   29  O5  UNL     1      10.177  17.841  19.964  1.00  0.00    -0.388 OA
HETATM   30  C31 UNL     1      11.543  17.674  20.185  1.00  0.00     0.187 C 
ENDBRANCH  22  23
ENDBRANCH  21  22
ENDBRANCH  17  21
BRANCH  18  31
HETATM   31  O3  UNL     1      13.236  23.405  18.530  1.00  0.00    -0.344 OA
ATOM     32  H3  UNL     1      12.335  23.703  18.489  1.00  0.00     0.219 HD
ENDBRANCH  18  31
ENDBRANCH  13  14
ENDBRANCH   1  13
BRANCH   8  33
HETATM   33  O2  UNL     1      22.300  27.966  16.862  1.00  0.00    -0.348 OA
BRANCH  33  34
HETATM   34  C13 UNL     1      23.337  27.105  17.212  1.00  0.00     0.176 C 
BRANCH  34  35
HETATM   35  C14 UNL     1      23.764  27.475  18.627  1.00  0.00     0.027 C 
BRANCH  35  36
HETATM   36  C15 UNL     1      22.563  27.065  19.513  1.00  0.00     0.002 C 
BRANCH  36  37
HETATM   37  C16 UNL     1      22.620  25.603  19.792  1.00  0.00     0.000 C 
BRANCH  37  38
HETATM   38  C17 UNL     1      21.297  24.946  19.886  1.00  0.00    -0.000 C 
BRANCH  38  39
HETATM   39  C18 UNL     1      20.124  25.661  20.399  1.00  0.00    -0.005 C 
HETATM   40  C19 UNL     1      18.896  24.852  20.597  1.00  0.00     0.005 C 
ENDBRANCH  38  39
ENDBRANCH  37  38
ENDBRANCH  36  37
ENDBRANCH  35  36
ENDBRANCH  34  35
ENDBRANCH  33  34
ENDBRANCH   8  33
BRANCH   7  41
HETATM   41  O1  UNL     1      21.310  29.701  14.953  1.00  0.00    -0.353 OA
HETATM   42  C11 UNL     1      22.428  29.807  14.116  1.00  0.00     0.210 C 
ENDBRANCH   7  41
TORSDOF 14
ENDMDL
MODEL 5
REMARK VINA RESULT: -8.916873032      2.398     10.050
REMARK  14 active torsions:
REMARK  status: ('A' for Active; 'I' for Inactive)
REMARK    1  A    between atoms: C3_3  and  C4_4 
REMARK    2  A    between atoms: C4_4  and  N1_5 
REMARK    3  A    between atoms: C10_11  and  O1_12 
REMARK    4  A    between atoms: C12_14  and  O2_15 
REMARK    5  A    between atoms: O2_15  and  C13_16 
REMARK    6  A    between atoms: C13_16  and  C14_17 
REMARK    7  A    between atoms: C14_17  and  C15_18 
REMARK    8  A    between atoms: C15_18  and  C16_19 
REMARK    9  A    between atoms: C16_19  and  C17_20 
REMARK   10  A    between atoms: C17_20  and  C18_21 
REMARK   11  A    between atoms: C25_29  and  O3_30 
REMARK   12  A    between atoms: N3_32  and  C26_33 
REMARK   13  A    between atoms: C26_33  and  C27_34 
REMARK   14  A    between atoms: C27_34  and  C28_35 
REMARK       I    between atoms: C28_35  and  N4_37 
ROOT
HETATM    1  N1  UNL     1      17.852  23.182  18.442  1.00  0.00    -0.329 N 
HETATM    2  C5  UNL     1      17.708  23.215  19.788  1.00  0.00     0.013 A 
HETATM    3  C6  UNL     1      16.733  22.296  20.401  1.00  0.00     0.068 C 
HETATM    4  C7  UNL     1      18.450  24.081  20.571  1.00  0.00     0.037 A 
HETATM    5  C8  UNL     1      19.360  24.938  19.992  1.00  0.00    -0.019 A 
HETATM    6  C9  UNL     1      20.119  25.819  20.756  1.00  0.00     0.052 A 
HETATM    7  C10 UNL     1      21.019  26.657  20.128  1.00  0.00     0.102 A 
HETATM    8  C12 UNL     1      21.164  26.625  18.771  1.00  0.00     0.102 A 
HETATM    9  C20 UNL     1      20.414  25.756  18.032  1.00  0.00     0.054 A 
HETATM   10  C21 UNL     1      19.500  24.899  18.624  1.00  0.00    -0.000 A 
HETATM   11  C22 UNL     1      18.739  24.019  17.882  1.00  0.00     0.023 A 
HETATM   12  C23 UNL     1      18.967  24.053  16.397  1.00  0.00     0.069 C 
ENDROOT
BRANCH   1  13
HETATM   13  C4  UNL     1      17.135  22.285  17.648  1.00  0.00     0.112 C 
BRANCH  13  14
HETATM   14  C3  UNL     1      15.928  22.279  17.206  1.00  0.00     0.035 A 
HETATM   15  C2  UNL     1      15.080  21.250  16.900  1.00  0.00     0.040 A 
HETATM   16  C1  UNL     1      15.301  19.956  17.006  1.00  0.00     0.044 C 
HETATM   17  N3  UNL     1      13.880  21.745  16.444  1.00  0.00    -0.326 N 
HETATM   18  C25 UNL     1      13.948  23.081  16.456  1.00  0.00     0.168 A 
HETATM   19  C24 UNL     1      15.185  23.438  16.916  1.00  0.00     0.111 A 
HETATM   20  N2  UNL     1      15.673  24.782  17.086  1.00  0.00    -0.097 NA
BRANCH  17  21
HETATM   21  C26 UNL     1      12.724  20.974  16.006  1.00  0.00     0.140 C 
BRANCH  21  22
HETATM   22  C27 UNL     1      11.823  20.739  17.197  1.00  0.00     0.123 C 
BRANCH  22  23
HETATM   23  C28 UNL     1      11.469  19.295  17.323  1.00  0.00     0.221 C 
HETATM   24  O4  UNL     1      10.764  18.766  16.445  1.00  0.00    -0.273 OA
HETATM   25  N4  UNL     1      11.915  18.523  18.415  1.00  0.00    -0.348 N 
HETATM   26  C29 UNL     1      12.747  19.079  19.488  1.00  0.00     0.152 C 
HETATM   27  C32 UNL     1      11.560  17.136  18.514  1.00  0.00     0.152 C 
HETATM   28  C30 UNL     1      12.113  18.687  20.817  1.00  0.00     0.187 C 
HETATM   29  O5  UNL     1      11.836  17.325  20.821  1.00  0.00    -0.388 OA
HETATM   30  C31 UNL     1      10.885  16.961  19.869  1.00  0.00     0.187 C 
ENDBRANCH  22  23
ENDBRANCH  21  22
ENDBRANCH  17  21
BRANCH  18  31
HETATM   31  O3  UNL     1      12.941  23.989  16.069  1.00  0.00    -0.344 OA
ATOM     32  H3  UNL     1      12.533  24.012  15.211  1.00  0.00     0.219 HD
ENDBRANCH  18  31
ENDBRANCH  13  14
ENDBRANCH   1  13
BRANCH   8  33
HETATM   33  O2  UNL     1      22.076  27.479  18.169  1.00  0.00    -0.348 OA
BRANCH  33  34
HETATM   34  C13 UNL     1      22.988  27.136  17.175  1.00  0.00     0.176 C 
BRANCH  34  35
HETATM   35  C14 UNL     1      22.860  28.181  16.073  1.00  0.00     0.027 C 
BRANCH  35  36
HETATM   36  C15 UNL     1      21.699  27.668  15.186  1.00  0.00     0.002 C 
BRANCH  36  37
HETATM   37  C16 UNL     1      20.743  28.778  14.919  1.00  0.00     0.000 C 
BRANCH  37  38
HETATM   38  C17 UNL     1      19.405  28.337  14.466  1.00  0.00    -0.000 C 
BRANCH  38  39
HETATM   39  C18 UNL     1      19.119  26.926  14.189  1.00  0.00    -0.005 C 
HETATM   40  C19 UNL     1      17.687  26.537  14.174  1.00  0.00     0.005 C 
ENDBRANCH  38  39
ENDBRANCH  37  38
ENDBRANCH  36  37
ENDBRANCH  35  36
ENDBRANCH  34  35
ENDBRANCH  33  34
ENDBRANCH   8  33
BRANCH   7  41
HETATM   41  O1  UNL     1      21.764  27.527  20.914  1.00  0.00    -0.353 OA
HETATM   42  C11 UNL     1      22.796  27.089  21.754  1.00  0.00     0.210 C 
ENDBRANCH   7  41
TORSDOF 14
ENDMDL
