MODEL 1
REMARK VINA RESULT: -8.498776782      0.000      0.000
REMARK  14 active torsions:
REMARK  status: ('A' for Active; 'I' for Inactive)
REMARK    1  A    between atoms: C2_2  and  C3_3 
REMARK    2  A    between atoms: C3_3  and  C4_4 
REMARK    3  A    between atoms: C4_4  and  C9_11 
REMARK    4  A    between atoms: C5_5  and  C6_6 
REMARK    5  A    between atoms: C6_6  and  O1_7 
REMARK    6  A    between atoms: O1_7  and  C7_8 
REMARK    7  A    between atoms: C9_11  and  N1_12 
REMARK    8  A    between atoms: C9_11  and  C16_20 
REMARK    9  A    between atoms: N1_12  and  N2_13 
REMARK   10  A    between atoms: C16_20  and  C24_35 
REMARK   11  A    between atoms: N3_21  and  N4_23 
REMARK       I    between atoms: N4_23  and  C17_25 
REMARK   12  A    between atoms: C17_25  and  C18_27 
REMARK   13  A    between atoms: C18_27  and  N5_28 
REMARK       I    between atoms: C24_35  and  N7_37 
REMARK   14  A    between atoms: N7_37  and  C25_39 
ROOT
HETATM    1  C16 UNL     1      18.099  24.816  18.542  1.00  0.00     0.159 C 
HETATM    2  N3  UNL     1      17.909  23.958  19.457  1.00  0.00    -0.290 N 
ATOM      3  H3  UNL     1      18.715  23.726  20.038  1.00  0.00     0.187 HD
ENDROOT
BRANCH   1   4
HETATM    4  C9  UNL     1      19.430  25.446  18.362  1.00  0.00     0.170 C 
BRANCH   4   5
HETATM    5  C4  UNL     1      20.453  25.326  19.434  1.00  0.00    -0.014 C 
HETATM    6  C5  UNL     1      21.685  24.982  19.333  1.00  0.00     0.010 C 
BRANCH   5   7
HETATM    7  C3  UNL     1      20.030  25.795  20.825  1.00  0.00     0.041 C 
BRANCH   7   8
HETATM    8  C2  UNL     1      20.371  27.219  21.055  1.00  0.00     0.000 C 
HETATM    9  C1  UNL     1      20.957  27.374  22.454  1.00  0.00     0.005 C 
ENDBRANCH   7   8
ENDBRANCH   5   7
BRANCH   6  10
HETATM   10  C6  UNL     1      22.735  24.989  20.398  1.00  0.00     0.207 C 
BRANCH  10  11
HETATM   11  O1  UNL     1      23.898  25.652  19.867  1.00  0.00    -0.318 OA
BRANCH  11  12
HETATM   12  C7  UNL     1      23.935  27.008  19.591  1.00  0.00     0.255 C 
HETATM   13  C8  UNL     1      24.195  27.509  18.214  1.00  0.00     0.126 C 
HETATM   14  O2  UNL     1      23.745  27.824  20.511  1.00  0.00    -0.266 OA
ENDBRANCH  11  12
ENDBRANCH  10  11
ENDBRANCH   6  10
ENDBRANCH   4   5
BRANCH   4  15
HETATM   15  N1  UNL     1      19.756  25.972  17.312  1.00  0.00    -0.325 NA
BRANCH  15  16
HETATM   16  N2  UNL     1      20.114  26.539  16.207  1.00  0.00    -0.263 N 
HETATM   17  C10 UNL     1      19.628  26.069  14.893  1.00  0.00     0.156 C 
HETATM   18  C11 UNL     1      18.849  27.092  14.144  1.00  0.00     0.022 C 
HETATM   19  C12 UNL     1      19.302  28.505  14.280  1.00  0.00     0.002 C 
HETATM   20  C13 UNL     1      20.752  28.745  13.990  1.00  0.00     0.002 C 
HETATM   21  C14 UNL     1      21.667  27.990  14.916  1.00  0.00     0.022 C 
HETATM   22  C15 UNL     1      21.064  27.690  16.237  1.00  0.00     0.156 C 
ENDBRANCH  15  16
ENDBRANCH   4  15
ENDBRANCH   1   4
BRANCH   1  23
HETATM   23  C24 UNL     1      17.134  24.963  17.467  1.00  0.00     0.273 C 
HETATM   24  O4  UNL     1      16.290  25.916  17.594  1.00  0.00    -0.266 OA
HETATM   25  N7  UNL     1      16.972  24.238  16.284  1.00  0.00    -0.351 N 
ATOM     26  H7  UNL     1      17.602  23.467  16.065  1.00  0.00     0.163 HD
BRANCH  25  27
HETATM   27  C25 UNL     1      15.892  24.591  15.357  1.00  0.00     0.084 C 
HETATM   28  C26 UNL     1      16.365  24.537  13.909  1.00  0.00     0.025 C 
HETATM   29  C27 UNL     1      15.214  24.040  13.053  1.00  0.00     0.002 C 
HETATM   30  C28 UNL     1      15.044  22.554  13.307  1.00  0.00     0.000 C 
HETATM   31  C29 UNL     1      14.896  22.370  14.810  1.00  0.00     0.002 C 
HETATM   32  C30 UNL     1      14.703  23.722  15.516  1.00  0.00     0.025 C 
ENDBRANCH  25  27
ENDBRANCH   1  23
BRANCH   2  33
HETATM   33  N4  UNL     1      16.714  23.294  19.757  1.00  0.00    -0.265 N 
HETATM   34  C17 UNL     1      16.472  22.036  19.134  1.00  0.00     0.275 C 
HETATM   35  O3  UNL     1      17.406  21.644  18.346  1.00  0.00    -0.265 OA
ATOM     36  H4  UNL     1      16.035  23.699  20.402  1.00  0.00     0.190 HD
BRANCH  34  37
HETATM   37  C18 UNL     1      15.305  21.245  19.352  1.00  0.00     0.171 C 
BRANCH  37  38
HETATM   38  N5  UNL     1      14.507  20.903  18.196  1.00  0.00    -0.335 N 
HETATM   39  C19 UNL     1      14.744  19.605  17.700  1.00  0.00     0.113 C 
HETATM   40  C20 UNL     1      13.724  18.617  18.122  1.00  0.00     0.107 C 
HETATM   41  N6  UNL     1      12.486  19.135  18.487  1.00  0.00    -0.368 N 
HETATM   42  C21 UNL     1      12.026  18.618  19.741  1.00  0.00     0.154 C 
HETATM   43  C22 UNL     1      12.093  20.433  18.174  1.00  0.00     0.107 C 
HETATM   44  C23 UNL     1      13.214  21.446  18.113  1.00  0.00     0.113 C 
ENDBRANCH  37  38
ENDBRANCH  34  37
ENDBRANCH   2  33
TORSDOF 14
ENDMDL
MODEL 2
REMARK VINA RESULT: -8.304827916      0.823      1.596
REMARK  14 active torsions:
REMARK  status: ('A' for Active; 'I' for Inactive)
REMARK    1  A    between atoms: C2_2  and  C3_3 
REMARK    2  A    between atoms: C3_3  and  C4_4 
REMARK    3  A    between atoms: C4_4  and  C9_11 
REMARK    4  A    between atoms: C5_5  and  C6_6 
REMARK    5  A    between atoms: C6_6  and  O1_7 
REMARK    6  A    between atoms: O1_7  and  C7_8 
REMARK    7  A    between atoms: C9_11  and  N1_12 
REMARK    8  A    between atoms: C9_11  and  C16_20 
REMARK    9  A    between atoms: N1_12  and  N2_13 
REMARK   10  A    between atoms: C16_20  and  C24_35 
REMARK   11  A    between atoms: N3_21  and  N4_23 
REMARK       I    between atoms: N4_23  and  C17_25 
REMARK   12  A    between atoms: C17_25  and  C18_27 
REMARK   13  A    between atoms: C18_27  and  N5_28 
REMARK       I    between atoms: C24_35  and  N7_37 
REMARK   14  A    between atoms: N7_37  and  C25_39 
ROOT
HETATM    1  C16 UNL     1      18.052  24.960  18.672  1.00  0.00     0.159 C 
HETATM    2  N3  UNL     1      17.876  24.088  19.577  1.00  0.00    -0.290 N 
ATOM      3  H3  UNL     1      18.675  23.892  20.180  1.00  0.00     0.187 HD
ENDROOT
BRANCH   1   4
HETATM    4  C9  UNL     1      19.355  25.655  18.534  1.00  0.00     0.170 C 
BRANCH   4   5
HETATM    5  C4  UNL     1      20.272  25.738  19.701  1.00  0.00    -0.014 C 
HETATM    6  C5  UNL     1      20.133  26.408  20.787  1.00  0.00     0.010 C 
BRANCH   5   7
HETATM    7  C3  UNL     1      21.483  24.806  19.675  1.00  0.00     0.041 C 
BRANCH   7   8
HETATM    8  C2  UNL     1      22.681  25.473  19.112  1.00  0.00     0.000 C 
HETATM    9  C1  UNL     1      23.933  24.823  19.688  1.00  0.00     0.005 C 
ENDBRANCH   7   8
ENDBRANCH   5   7
BRANCH   6  10
HETATM   10  C6  UNL     1      21.000  26.383  22.006  1.00  0.00     0.207 C 
BRANCH  10  11
HETATM   11  O1  UNL     1      22.009  27.399  21.852  1.00  0.00    -0.318 OA
BRANCH  11  12
HETATM   12  C7  UNL     1      23.308  27.249  22.303  1.00  0.00     0.255 C 
HETATM   13  C8  UNL     1      23.623  26.390  23.477  1.00  0.00     0.126 C 
HETATM   14  O2  UNL     1      24.231  27.842  21.716  1.00  0.00    -0.266 OA
ENDBRANCH  11  12
ENDBRANCH  10  11
ENDBRANCH   6  10
ENDBRANCH   4   5
BRANCH   4  15
HETATM   15  N1  UNL     1      19.753  26.070  17.461  1.00  0.00    -0.325 NA
BRANCH  15  16
HETATM   16  N2  UNL     1      20.180  26.525  16.328  1.00  0.00    -0.263 N 
HETATM   17  C10 UNL     1      19.784  25.918  15.040  1.00  0.00     0.156 C 
HETATM   18  C11 UNL     1      19.052  26.851  14.142  1.00  0.00     0.022 C 
HETATM   19  C12 UNL     1      19.488  28.275  14.162  1.00  0.00     0.002 C 
HETATM   20  C13 UNL     1      20.952  28.501  13.943  1.00  0.00     0.002 C 
HETATM   21  C14 UNL     1      21.808  27.855  14.999  1.00  0.00     0.022 C 
HETATM   22  C15 UNL     1      21.121  27.685  16.302  1.00  0.00     0.156 C 
ENDBRANCH  15  16
ENDBRANCH   4  15
ENDBRANCH   1   4
BRANCH   1  23
HETATM   23  C24 UNL     1      17.112  25.068  17.570  1.00  0.00     0.273 C 
HETATM   24  O4  UNL     1      16.242  26.001  17.660  1.00  0.00    -0.266 OA
HETATM   25  N7  UNL     1      17.001  24.323  16.393  1.00  0.00    -0.351 N 
ATOM     26  H7  UNL     1      17.656  23.565  16.203  1.00  0.00     0.163 HD
BRANCH  25  27
HETATM   27  C25 UNL     1      15.938  24.634  15.433  1.00  0.00     0.084 C 
HETATM   28  C26 UNL     1      16.437  24.517  13.997  1.00  0.00     0.025 C 
HETATM   29  C27 UNL     1      15.300  23.983  13.144  1.00  0.00     0.002 C 
HETATM   30  C28 UNL     1      15.124  22.510  13.460  1.00  0.00     0.000 C 
HETATM   31  C29 UNL     1      14.949  22.393  14.967  1.00  0.00     0.002 C 
HETATM   32  C30 UNL     1      14.745  23.775  15.608  1.00  0.00     0.025 C 
ENDBRANCH  25  27
ENDBRANCH   1  23
BRANCH   2  33
HETATM   33  N4  UNL     1      16.706  23.366  19.838  1.00  0.00    -0.265 N 
HETATM   34  C17 UNL     1      16.550  22.096  19.213  1.00  0.00     0.275 C 
HETATM   35  O3  UNL     1      17.529  21.749  18.460  1.00  0.00    -0.265 OA
ATOM     36  H4  UNL     1      15.986  23.739  20.457  1.00  0.00     0.190 HD
BRANCH  34  37
HETATM   37  C18 UNL     1      15.416  21.248  19.394  1.00  0.00     0.171 C 
BRANCH  37  38
HETATM   38  N5  UNL     1      14.603  20.968  18.232  1.00  0.00    -0.335 N 
HETATM   39  C19 UNL     1      14.865  19.718  17.636  1.00  0.00     0.113 C 
HETATM   40  C20 UNL     1      13.884  18.672  18.005  1.00  0.00     0.107 C 
HETATM   41  N6  UNL     1      12.640  19.124  18.433  1.00  0.00    -0.368 N 
HETATM   42  C21 UNL     1      12.223  18.502  19.655  1.00  0.00     0.154 C 
HETATM   43  C22 UNL     1      12.203  20.429  18.225  1.00  0.00     0.107 C 
HETATM   44  C23 UNL     1      13.293  21.476  18.217  1.00  0.00     0.113 C 
ENDBRANCH  37  38
ENDBRANCH  34  37
ENDBRANCH   2  33
TORSDOF 14
ENDMDL
MODEL 3
REMARK VINA RESULT: -8.297156330      3.654     10.857
REMARK  14 active torsions:
REMARK  status: ('A' for Active; 'I' for Inactive)
REMARK    1  A    between atoms: C2_2  and  C3_3 
REMARK    2  A    between atoms: C3_3  and  C4_4 
REMARK    3  A    between atoms: C4_4  and  C9_11 
REMARK    4  A    between atoms: C5_5  and  C6_6 
REMARK    5  A    between atoms: C6_6  and  O1_7 
REMARK    6  A    between atoms: O1_7  and  C7_8 
REMARK    7  A    between atoms: C9_11  and  N1_12 
REMARK    8  A    between atoms: C9_11  and  C16_20 
REMARK    9  A    between atoms: N1_12  and  N2_13 
REMARK   10  A    between atoms: C16_20  and  C24_35 
REMARK   11  A    between atoms: N3_21  and  N4_23 
REMARK       I    between atoms: N4_23  and  C17_25 
REMARK   12  A    between atoms: C17_25  and  C18_27 
REMARK   13  A    between atoms: C18_27  and  N5_28 
REMARK       I    between atoms: C24_35  and  N7_37 
REMARK   14  A    between atoms: N7_37  and  C25_39 
ROOT
HETATM    1  C16 UNL     1      13.296  22.122  15.837  1.00  0.00     0.159 C 
HETATM    2  N3  UNL     1      13.705  22.571  14.723  1.00  0.00    -0.290 N 
ATOM      3  H3  UNL     1      13.384  22.080  13.889  1.00  0.00     0.187 HD
ENDROOT
BRANCH   1   4
HETATM    4  C9  UNL     1      12.384  20.954  15.892  1.00  0.00     0.170 C 
BRANCH   4   5
HETATM    5  C4  UNL     1      11.827  20.394  14.632  1.00  0.00    -0.014 C 
HETATM    6  C5  UNL     1      12.454  19.928  13.614  1.00  0.00     0.010 C 
BRANCH   5   7
HETATM    7  C3  UNL     1      10.309  20.227  14.580  1.00  0.00     0.041 C 
BRANCH   7   8
HETATM    8  C2  UNL     1       9.614  21.531  14.462  1.00  0.00     0.000 C 
HETATM    9  C1  UNL     1       8.554  21.436  13.371  1.00  0.00     0.005 C 
ENDBRANCH   7   8
ENDBRANCH   5   7
BRANCH   6  10
HETATM   10  C6  UNL     1      11.884  19.251  12.408  1.00  0.00     0.207 C 
BRANCH  10  11
HETATM   11  O1  UNL     1      12.025  17.830  12.592  1.00  0.00    -0.318 OA
BRANCH  11  12
HETATM   12  C7  UNL     1      10.950  16.958  12.603  1.00  0.00     0.255 C 
HETATM   13  C8  UNL     1       9.578  17.422  12.260  1.00  0.00     0.126 C 
HETATM   14  O2  UNL     1      11.134  15.765  12.903  1.00  0.00    -0.266 OA
ENDBRANCH  11  12
ENDBRANCH  10  11
ENDBRANCH   6  10
ENDBRANCH   4   5
BRANCH   4  15
HETATM   15  N1  UNL     1      12.158  20.363  16.932  1.00  0.00    -0.325 NA
BRANCH  15  16
HETATM   16  N2  UNL     1      11.904  19.727  18.030  1.00  0.00    -0.263 N 
HETATM   17  C10 UNL     1      10.534  19.308  18.392  1.00  0.00     0.156 C 
HETATM   18  C11 UNL     1      10.379  17.834  18.532  1.00  0.00     0.022 C 
HETATM   19  C12 UNL     1      11.534  17.095  19.111  1.00  0.00     0.002 C 
HETATM   20  C13 UNL     1      12.039  17.618  20.421  1.00  0.00     0.002 C 
HETATM   21  C14 UNL     1      12.536  19.036  20.333  1.00  0.00     0.022 C 
HETATM   22  C15 UNL     1      13.012  19.418  18.982  1.00  0.00     0.156 C 
ENDBRANCH  15  16
ENDBRANCH   4  15
ENDBRANCH   1   4
BRANCH   1  23
HETATM   23  C24 UNL     1      13.947  22.526  17.071  1.00  0.00     0.273 C 
HETATM   24  O4  UNL     1      13.488  23.580  17.631  1.00  0.00    -0.266 OA
HETATM   25  N7  UNL     1      15.001  21.942  17.777  1.00  0.00    -0.351 N 
ATOM     26  H7  UNL     1      15.433  21.083  17.434  1.00  0.00     0.163 HD
BRANCH  25  27
HETATM   27  C25 UNL     1      15.486  22.567  19.011  1.00  0.00     0.084 C 
HETATM   28  C26 UNL     1      15.885  21.518  20.043  1.00  0.00     0.025 C 
HETATM   29  C27 UNL     1      17.081  22.046  20.814  1.00  0.00     0.002 C 
HETATM   30  C28 UNL     1      18.297  21.970  19.909  1.00  0.00     0.000 C 
HETATM   31  C29 UNL     1      17.946  22.705  18.624  1.00  0.00     0.002 C 
HETATM   32  C30 UNL     1      16.627  23.480  18.774  1.00  0.00     0.025 C 
ENDBRANCH  25  27
ENDBRANCH   1  23
BRANCH   2  33
HETATM   33  N4  UNL     1      14.549  23.668  14.513  1.00  0.00    -0.265 N 
HETATM   34  C17 UNL     1      15.950  23.477  14.686  1.00  0.00     0.275 C 
HETATM   35  O3  UNL     1      16.288  22.286  15.025  1.00  0.00    -0.265 OA
ATOM     36  H4  UNL     1      14.173  24.577  14.245  1.00  0.00     0.190 HD
BRANCH  34  37
HETATM   37  C18 UNL     1      16.927  24.500  14.499  1.00  0.00     0.171 C 
BRANCH  37  38
HETATM   38  N5  UNL     1      17.847  24.750  15.586  1.00  0.00    -0.335 N 
HETATM   39  C19 UNL     1      19.136  24.219  15.381  1.00  0.00     0.113 C 
HETATM   40  C20 UNL     1      20.122  25.225  14.925  1.00  0.00     0.107 C 
HETATM   41  N6  UNL     1      19.827  26.551  15.226  1.00  0.00    -0.368 N 
HETATM   42  C21 UNL     1      19.954  27.411  14.088  1.00  0.00     0.154 C 
HETATM   43  C22 UNL     1      18.867  26.911  16.168  1.00  0.00     0.107 C 
HETATM   44  C23 UNL     1      17.703  25.954  16.295  1.00  0.00     0.113 C 
ENDBRANCH  37  38
ENDBRANCH  34  37
ENDBRANCH   2  33
TORSDOF 14
ENDMDL
MODEL 4
REMARK VINA RESULT: -8.272716323      3.476     10.784
REMARK  14 active torsions:
REMARK  status: ('A' for Active; 'I' for Inactive)
REMARK    1  A    between atoms: C2_2  and  C3_3 
REMARK    2  A    between atoms: C3_3  and  C4_4 
REMARK    3  A    between atoms: C4_4  and  C9_11 
REMARK    4  A    between atoms: C5_5  and  C6_6 
REMARK    5  A    between atoms: C6_6  and  O1_7 
REMARK    6  A    between atoms: O1_7  and  C7_8 
REMARK    7  A    between atoms: C9_11  and  N1_12 
REMARK    8  A    between atoms: C9_11  and  C16_20 
REMARK    9  A    between atoms: N1_12  and  N2_13 
REMARK   10  A    between atoms: C16_20  and  C24_35 
REMARK   11  A    between atoms: N3_21  and  N4_23 
REMARK       I    between atoms: N4_23  and  C17_25 
REMARK   12  A    between atoms: C17_25  and  C18_27 
REMARK   13  A    between atoms: C18_27  and  N5_28 
REMARK       I    between atoms: C24_35  and  N7_37 
REMARK   14  A    between atoms: N7_37  and  C25_39 
ROOT
HETATM    1  C16 UNL     1      13.634  22.027  16.433  1.00  0.00     0.159 C 
HETATM    2  N3  UNL     1      13.562  23.052  15.688  1.00  0.00    -0.290 N 
ATOM      3  H3  UNL     1      12.797  23.070  15.014  1.00  0.00     0.187 HD
ENDROOT
BRANCH   1   4
HETATM    4  C9  UNL     1      12.634  20.938  16.321  1.00  0.00     0.170 C 
BRANCH   4   5
HETATM    5  C4  UNL     1      12.172  20.499  14.978  1.00  0.00    -0.014 C 
HETATM    6  C5  UNL     1      12.872  20.182  13.951  1.00  0.00     0.010 C 
BRANCH   5   7
HETATM    7  C3  UNL     1      10.669  20.265  14.825  1.00  0.00     0.041 C 
BRANCH   7   8
HETATM    8  C2  UNL     1       9.933  21.533  14.608  1.00  0.00     0.000 C 
HETATM    9  C1  UNL     1       8.839  21.305  13.571  1.00  0.00     0.005 C 
ENDBRANCH   7   8
ENDBRANCH   5   7
BRANCH   6  10
HETATM   10  C6  UNL     1      12.400  19.619  12.648  1.00  0.00     0.207 C 
BRANCH  10  11
HETATM   11  O1  UNL     1      12.508  18.185  12.721  1.00  0.00    -0.318 OA
BRANCH  11  12
HETATM   12  C7  UNL     1      11.504  17.329  12.305  1.00  0.00     0.255 C 
HETATM   13  C8  UNL     1      10.183  17.848  11.857  1.00  0.00     0.126 C 
HETATM   14  O2  UNL     1      11.709  16.102  12.304  1.00  0.00    -0.266 OA
ENDBRANCH  11  12
ENDBRANCH  10  11
ENDBRANCH   6  10
ENDBRANCH   4   5
BRANCH   4  15
HETATM   15  N1  UNL     1      12.255  20.310  17.293  1.00  0.00    -0.325 NA
BRANCH  15  16
HETATM   16  N2  UNL     1      11.847  19.630  18.315  1.00  0.00    -0.263 N 
HETATM   17  C10 UNL     1      10.459  19.134  18.422  1.00  0.00     0.156 C 
HETATM   18  C11 UNL     1      10.360  17.651  18.500  1.00  0.00     0.022 C 
HETATM   19  C12 UNL     1      11.434  16.952  19.259  1.00  0.00     0.002 C 
HETATM   20  C13 UNL     1      11.674  17.459  20.648  1.00  0.00     0.002 C 
HETATM   21  C14 UNL     1      12.102  18.901  20.679  1.00  0.00     0.022 C 
HETATM   22  C15 UNL     1      12.786  19.347  19.441  1.00  0.00     0.156 C 
ENDBRANCH  15  16
ENDBRANCH   4  15
ENDBRANCH   1   4
BRANCH   1  23
HETATM   23  C24 UNL     1      14.851  21.749  17.175  1.00  0.00     0.273 C 
HETATM   24  O4  UNL     1      15.532  20.740  16.784  1.00  0.00    -0.266 OA
HETATM   25  N7  UNL     1      15.429  22.417  18.259  1.00  0.00    -0.351 N 
ATOM     26  H7  UNL     1      14.985  23.250  18.643  1.00  0.00     0.163 HD
BRANCH  25  27
HETATM   27  C25 UNL     1      16.678  21.915  18.840  1.00  0.00     0.084 C 
HETATM   28  C26 UNL     1      17.893  22.532  18.159  1.00  0.00     0.025 C 
HETATM   29  C27 UNL     1      18.974  22.726  19.207  1.00  0.00     0.002 C 
HETATM   30  C28 UNL     1      18.572  23.894  20.088  1.00  0.00     0.000 C 
HETATM   31  C29 UNL     1      17.173  23.602  20.609  1.00  0.00     0.002 C 
HETATM   32  C30 UNL     1      16.760  22.154  20.299  1.00  0.00     0.025 C 
ENDBRANCH  25  27
ENDBRANCH   1  23
BRANCH   2  33
HETATM   33  N4  UNL     1      14.417  24.159  15.689  1.00  0.00    -0.265 N 
HETATM   34  C17 UNL     1      15.529  24.148  14.800  1.00  0.00     0.275 C 
HETATM   35  O3  UNL     1      15.623  23.091  14.078  1.00  0.00    -0.265 OA
ATOM     36  H4  UNL     1      14.249  24.952  16.309  1.00  0.00     0.190 HD
BRANCH  34  37
HETATM   37  C18 UNL     1      16.477  25.209  14.688  1.00  0.00     0.171 C 
BRANCH  37  38
HETATM   38  N5  UNL     1      17.684  25.109  15.476  1.00  0.00    -0.335 N 
HETATM   39  C19 UNL     1      18.838  24.810  14.724  1.00  0.00     0.113 C 
HETATM   40  C20 UNL     1      19.675  25.995  14.431  1.00  0.00     0.107 C 
HETATM   41  N6  UNL     1      19.524  27.078  15.291  1.00  0.00    -0.368 N 
HETATM   42  C21 UNL     1      19.335  28.312  14.589  1.00  0.00     0.154 C 
HETATM   43  C22 UNL     1      18.898  26.971  16.530  1.00  0.00     0.107 C 
HETATM   44  C23 UNL     1      17.795  25.940  16.604  1.00  0.00     0.113 C 
ENDBRANCH  37  38
ENDBRANCH  34  37
ENDBRANCH   2  33
TORSDOF 14
ENDMDL
MODEL 5
REMARK VINA RESULT: -8.250948223      2.059      7.369
REMARK  14 active torsions:
REMARK  status: ('A' for Active; 'I' for Inactive)
REMARK    1  A    between atoms: C2_2  and  C3_3 
REMARK    2  A    between atoms: C3_3  and  C4_4 
REMARK    3  A    between atoms: C4_4  and  C9_11 
REMARK    4  A    between atoms: C5_5  and  C6_6 
REMARK    5  A    between atoms: C6_6  and  O1_7 
REMARK    6  A    between atoms: O1_7  and  C7_8 
REMARK    7  A    between atoms: C9_11  and  N1_12 
REMARK    8  A    between atoms: C9_11  and  C16_20 
REMARK    9  A    between atoms: N1_12  and  N2_13 
REMARK   10  A    between atoms: C16_20  and  C24_35 
REMARK   11  A    between atoms: N3_21  and  N4_23 
REMARK       I    between atoms: N4_23  and  C17_25 
REMARK   12  A    between atoms: C17_25  and  C18_27 
REMARK   13  A    between atoms: C18_27  and  N5_28 
REMARK       I    between atoms: C24_35  and  N7_37 
REMARK   14  A    between atoms: N7_37  and  C25_39 
ROOT
HETATM    1  C16 UNL     1      17.050  24.647  17.400  1.00  0.00     0.159 C 
HETATM    2  N3  UNL     1      17.854  25.423  18.003  1.00  0.00    -0.290 N 
ATOM      3  H3  UNL     1      18.251  26.183  17.451  1.00  0.00     0.187 HD
ENDROOT
BRANCH   1   4
HETATM    4  C9  UNL     1      16.711  24.870  15.974  1.00  0.00     0.170 C 
BRANCH   4   5
HETATM    5  C4  UNL     1      17.623  25.673  15.117  1.00  0.00    -0.014 C 
HETATM    6  C5  UNL     1      17.719  26.949  15.021  1.00  0.00     0.010 C 
BRANCH   5   7
HETATM    7  C3  UNL     1      18.679  24.891  14.337  1.00  0.00     0.041 C 
BRANCH   7   8
HETATM    8  C2  UNL     1      19.835  24.524  15.190  1.00  0.00     0.000 C 
HETATM    9  C1  UNL     1      21.119  25.008  14.527  1.00  0.00     0.005 C 
ENDBRANCH   7   8
ENDBRANCH   5   7
BRANCH   6  10
HETATM   10  C6  UNL     1      18.726  27.744  14.252  1.00  0.00     0.207 C 
BRANCH  10  11
HETATM   11  O1  UNL     1      19.354  28.663  15.167  1.00  0.00    -0.318 OA
BRANCH  11  12
HETATM   12  C7  UNL     1      20.303  28.274  16.096  1.00  0.00     0.255 C 
HETATM   13  C8  UNL     1      21.757  28.329  15.784  1.00  0.00     0.126 C 
HETATM   14  O2  UNL     1      19.934  27.872  17.214  1.00  0.00    -0.266 OA
ENDBRANCH  11  12
ENDBRANCH  10  11
ENDBRANCH   6  10
ENDBRANCH   4   5
BRANCH   4  15
HETATM   15  N1  UNL     1      15.759  24.324  15.446  1.00  0.00    -0.325 NA
BRANCH  15  16
HETATM   16  N2  UNL     1      14.755  23.728  14.889  1.00  0.00    -0.263 N 
HETATM   17  C10 UNL     1      14.759  23.360  13.458  1.00  0.00     0.156 C 
HETATM   18  C11 UNL     1      14.636  21.896  13.219  1.00  0.00     0.022 C 
HETATM   19  C12 UNL     1      13.757  21.140  14.153  1.00  0.00     0.002 C 
HETATM   20  C13 UNL     1      12.371  21.685  14.314  1.00  0.00     0.002 C 
HETATM   21  C14 UNL     1      12.353  23.085  14.867  1.00  0.00     0.022 C 
HETATM   22  C15 UNL     1      13.537  23.414  15.695  1.00  0.00     0.156 C 
ENDBRANCH  15  16
ENDBRANCH   4  15
ENDBRANCH   1   4
BRANCH   1  23
HETATM   23  C24 UNL     1      16.698  23.364  17.983  1.00  0.00     0.273 C 
HETATM   24  O4  UNL     1      17.675  22.603  18.302  1.00  0.00    -0.266 OA
HETATM   25  N7  UNL     1      15.449  22.810  18.276  1.00  0.00    -0.351 N 
ATOM     26  H7  UNL     1      14.598  23.337  18.084  1.00  0.00     0.163 HD
BRANCH  25  27
HETATM   27  C25 UNL     1      15.368  21.468  18.861  1.00  0.00     0.084 C 
HETATM   28  C26 UNL     1      14.334  21.414  19.979  1.00  0.00     0.025 C 
HETATM   29  C27 UNL     1      13.668  20.050  19.940  1.00  0.00     0.002 C 
HETATM   30  C28 UNL     1      12.735  20.014  18.745  1.00  0.00     0.000 C 
HETATM   31  C29 UNL     1      13.556  20.398  17.523  1.00  0.00     0.002 C 
HETATM   32  C30 UNL     1      15.057  20.428  17.854  1.00  0.00     0.025 C 
ENDBRANCH  25  27
ENDBRANCH   1  23
BRANCH   2  33
HETATM   33  N4  UNL     1      18.254  25.349  19.342  1.00  0.00    -0.265 N 
HETATM   34  C17 UNL     1      19.617  25.041  19.617  1.00  0.00     0.275 C 
HETATM   35  O3  UNL     1      20.344  24.860  18.574  1.00  0.00    -0.265 OA
ATOM     36  H4  UNL     1      17.590  25.511  20.099  1.00  0.00     0.190 HD
BRANCH  34  37
HETATM   37  C18 UNL     1      20.167  24.941  20.930  1.00  0.00     0.171 C 
BRANCH  37  38
HETATM   38  N5  UNL     1      21.003  26.028  21.387  1.00  0.00    -0.335 N 
HETATM   39  C19 UNL     1      22.279  25.625  21.828  1.00  0.00     0.113 C 
HETATM   40  C20 UNL     1      23.345  25.837  20.822  1.00  0.00     0.107 C 
HETATM   41  N6  UNL     1      23.087  26.800  19.852  1.00  0.00    -0.368 N 
HETATM   42  C21 UNL     1      23.347  26.323  18.526  1.00  0.00     0.154 C 
HETATM   43  C22 UNL     1      22.069  27.741  19.980  1.00  0.00     0.107 C 
HETATM   44  C23 UNL     1      20.856  27.273  20.751  1.00  0.00     0.113 C 
ENDBRANCH  37  38
ENDBRANCH  34  37
ENDBRANCH   2  33
TORSDOF 14
ENDMDL
