MODEL 1
REMARK VINA RESULT: -8.052618202      0.000      0.000
REMARK  17 active torsions:
REMARK  status: ('A' for Active; 'I' for Inactive)
REMARK    1  A    between atoms: O1_2  and  C2_3 
REMARK    2  A    between atoms: C2_3  and  C3_5 
REMARK    3  A    between atoms: C4_7  and  C5_8 
REMARK    4  A    between atoms: C6_9  and  O4_10 
REMARK    5  A    between atoms: C6_9  and  C7_12 
REMARK    6  A    between atoms: C7_12  and  O6_14 
REMARK    7  A    between atoms: O6_14  and  C8_15 
REMARK    8  A    between atoms: C8_15  and  C9_16 
REMARK    9  A    between atoms: C10_17  and  C12_19 
REMARK   10  A    between atoms: C12_19  and  C13_20 
REMARK   11  A    between atoms: C13_20  and  C14_21 
REMARK   12  A    between atoms: C15_22  and  C17_24 
REMARK   13  A    between atoms: C17_24  and  C18_25 
REMARK   14  A    between atoms: C18_25  and  C19_26 
REMARK   15  A    between atoms: C20_27  and  C22_29 
REMARK   16  A    between atoms: C22_29  and  C23_30 
REMARK   17  A    between atoms: C23_30  and  C24_31 
ROOT
HETATM    1  C9  UNL     1      13.770  16.633  10.435  1.00  0.00     0.002 C 
HETATM    2  C10 UNL     1      13.220  17.721   9.945  1.00  0.00    -0.085 C 
HETATM    3  C11 UNL     1      11.764  17.688   9.521  1.00  0.00     0.043 C 
ENDROOT
BRANCH   2   4
HETATM    4  C12 UNL     1      13.945  18.984   9.852  1.00  0.00     0.037 C 
BRANCH   4   5
HETATM    5  C13 UNL     1      13.120  20.143   9.449  1.00  0.00     0.031 C 
BRANCH   5   6
HETATM    6  C14 UNL     1      12.913  21.220  10.415  1.00  0.00    -0.024 C 
HETATM    7  C15 UNL     1      11.660  21.664  10.650  1.00  0.00    -0.087 C 
HETATM    8  C16 UNL     1      10.568  21.029   9.907  1.00  0.00     0.043 C 
BRANCH   7   9
HETATM    9  C17 UNL     1      11.512  22.758  11.618  1.00  0.00     0.037 C 
BRANCH   9  10
HETATM   10  C18 UNL     1      11.260  24.110  11.078  1.00  0.00     0.031 C 
BRANCH  10  11
HETATM   11  C19 UNL     1      12.541  24.811  10.747  1.00  0.00    -0.024 C 
HETATM   12  C20 UNL     1      12.948  24.986   9.519  1.00  0.00    -0.087 C 
HETATM   13  C21 UNL     1      12.113  24.465   8.372  1.00  0.00     0.043 C 
BRANCH  12  14
HETATM   14  C22 UNL     1      14.167  25.701   9.159  1.00  0.00     0.037 C 
BRANCH  14  15
HETATM   15  C23 UNL     1      15.448  25.019   9.452  1.00  0.00     0.031 C 
BRANCH  15  16
HETATM   16  C24 UNL     1      15.483  23.565   9.192  1.00  0.00    -0.024 C 
HETATM   17  C25 UNL     1      16.483  23.097   8.436  1.00  0.00    -0.091 C 
HETATM   18  C26 UNL     1      17.511  24.007   7.887  1.00  0.00     0.042 C 
HETATM   19  C27 UNL     1      16.566  21.645   8.144  1.00  0.00     0.042 C 
ENDBRANCH  15  16
ENDBRANCH  14  15
ENDBRANCH  12  14
ENDBRANCH  10  11
ENDBRANCH   9  10
ENDBRANCH   7   9
ENDBRANCH   5   6
ENDBRANCH   4   5
ENDBRANCH   2   4
BRANCH   1  20
HETATM   20  C8  UNL     1      15.143  16.456  10.895  1.00  0.00     0.207 C 
BRANCH  20  21
HETATM   21  O6  UNL     1      15.225  17.136  12.168  1.00  0.00    -0.312 OA
BRANCH  21  22
HETATM   22  C7  UNL     1      15.624  16.457  13.319  1.00  0.00     0.316 C 
HETATM   23  O5  UNL     1      16.499  15.574  13.181  1.00  0.00    -0.257 OA
BRANCH  22  24
HETATM   24  C6  UNL     1      15.052  16.761  14.623  1.00  0.00     0.140 C 
HETATM   25  C5  UNL     1      14.001  16.134  15.101  1.00  0.00     0.050 C 
BRANCH  25  26
HETATM   26  C4  UNL     1      13.349  15.073  14.312  1.00  0.00     0.187 A 
HETATM   27  C3  UNL     1      12.562  14.048  15.138  1.00  0.00     0.254 A 
HETATM   28  O3  UNL     1      13.707  13.754  14.441  1.00  0.00    -0.361 OA
BRANCH  27  29
HETATM   29  C2  UNL     1      11.225  13.687  14.597  1.00  0.00     0.290 C 
HETATM   30  O2  UNL     1      10.211  14.355  14.950  1.00  0.00    -0.262 OA
BRANCH  29  31
HETATM   31  O1  UNL     1      11.033  12.651  13.726  1.00  0.00    -0.324 OA
HETATM   32  C1  UNL     1       9.895  12.514  12.895  1.00  0.00     0.213 C 
ENDBRANCH  29  31
ENDBRANCH  27  29
ENDBRANCH  25  26
BRANCH  24  33
HETATM   33  O4  UNL     1      15.627  17.755  15.411  1.00  0.00    -0.355 OA
ATOM     34  H4  UNL     1      15.104  18.524  15.605  1.00  0.00     0.218 HD
ENDBRANCH  24  33
ENDBRANCH  22  24
ENDBRANCH  21  22
ENDBRANCH  20  21
ENDBRANCH   1  20
TORSDOF 17
ENDMDL
MODEL 2
REMARK VINA RESULT: -7.992093363      3.835      8.937
REMARK  17 active torsions:
REMARK  status: ('A' for Active; 'I' for Inactive)
REMARK    1  A    between atoms: O1_2  and  C2_3 
REMARK    2  A    between atoms: C2_3  and  C3_5 
REMARK    3  A    between atoms: C4_7  and  C5_8 
REMARK    4  A    between atoms: C6_9  and  O4_10 
REMARK    5  A    between atoms: C6_9  and  C7_12 
REMARK    6  A    between atoms: C7_12  and  O6_14 
REMARK    7  A    between atoms: O6_14  and  C8_15 
REMARK    8  A    between atoms: C8_15  and  C9_16 
REMARK    9  A    between atoms: C10_17  and  C12_19 
REMARK   10  A    between atoms: C12_19  and  C13_20 
REMARK   11  A    between atoms: C13_20  and  C14_21 
REMARK   12  A    between atoms: C15_22  and  C17_24 
REMARK   13  A    between atoms: C17_24  and  C18_25 
REMARK   14  A    between atoms: C18_25  and  C19_26 
REMARK   15  A    between atoms: C20_27  and  C22_29 
REMARK   16  A    between atoms: C22_29  and  C23_30 
REMARK   17  A    between atoms: C23_30  and  C24_31 
ROOT
HETATM    1  C9  UNL     1      12.555  14.688  12.840  1.00  0.00     0.002 C 
HETATM    2  C10 UNL     1      12.649  14.667  14.151  1.00  0.00    -0.085 C 
HETATM    3  C11 UNL     1      12.559  13.339  14.878  1.00  0.00     0.043 C 
ENDROOT
BRANCH   2   4
HETATM    4  C12 UNL     1      12.902  15.874  14.931  1.00  0.00     0.037 C 
BRANCH   4   5
HETATM    5  C13 UNL     1      14.221  15.913  15.599  1.00  0.00     0.031 C 
BRANCH   5   6
HETATM    6  C14 UNL     1      15.361  15.295  14.927  1.00  0.00    -0.024 C 
HETATM    7  C15 UNL     1      16.208  16.070  14.217  1.00  0.00    -0.087 C 
HETATM    8  C16 UNL     1      15.925  17.506  14.163  1.00  0.00     0.043 C 
BRANCH   7   9
HETATM    9  C17 UNL     1      17.328  15.394  13.551  1.00  0.00     0.037 C 
BRANCH   9  10
HETATM   10  C18 UNL     1      18.491  15.026  14.387  1.00  0.00     0.031 C 
BRANCH  10  11
HETATM   11  C19 UNL     1      19.276  16.237  14.787  1.00  0.00    -0.024 C 
HETATM   12  C20 UNL     1      19.456  16.576  16.035  1.00  0.00    -0.087 C 
HETATM   13  C21 UNL     1      18.853  15.731  17.134  1.00  0.00     0.043 C 
BRANCH  12  14
HETATM   14  C22 UNL     1      20.250  17.721  16.462  1.00  0.00     0.037 C 
BRANCH  14  15
HETATM   15  C23 UNL     1      19.544  18.767  17.237  1.00  0.00     0.031 C 
BRANCH  15  16
HETATM   16  C24 UNL     1      20.369  19.527  18.200  1.00  0.00    -0.024 C 
HETATM   17  C25 UNL     1      20.173  19.289  19.502  1.00  0.00    -0.091 C 
HETATM   18  C26 UNL     1      19.170  18.301  19.953  1.00  0.00     0.042 C 
HETATM   19  C27 UNL     1      20.974  20.025  20.511  1.00  0.00     0.042 C 
ENDBRANCH  15  16
ENDBRANCH  14  15
ENDBRANCH  12  14
ENDBRANCH  10  11
ENDBRANCH   9  10
ENDBRANCH   7   9
ENDBRANCH   5   6
ENDBRANCH   4   5
ENDBRANCH   2   4
BRANCH   1  20
HETATM   20  C8  UNL     1      12.613  15.849  11.959  1.00  0.00     0.207 C 
BRANCH  20  21
HETATM   21  O6  UNL     1      14.000  15.985  11.575  1.00  0.00    -0.312 OA
BRANCH  21  22
HETATM   22  C7  UNL     1      14.356  16.627  10.390  1.00  0.00     0.316 C 
HETATM   23  O5  UNL     1      13.435  16.876   9.582  1.00  0.00    -0.257 OA
BRANCH  22  24
HETATM   24  C6  UNL     1      15.737  16.992  10.103  1.00  0.00     0.140 C 
HETATM   25  C5  UNL     1      16.221  18.188  10.351  1.00  0.00     0.050 C 
BRANCH  25  26
HETATM   26  C4  UNL     1      15.361  19.228  10.942  1.00  0.00     0.187 A 
HETATM   27  C3  UNL     1      14.902  20.317   9.963  1.00  0.00     0.254 A 
HETATM   28  O3  UNL     1      15.759  20.540  11.012  1.00  0.00    -0.361 OA
BRANCH  27  29
HETATM   29  C2  UNL     1      13.467  20.693  10.056  1.00  0.00     0.290 C 
HETATM   30  O2  UNL     1      12.598  19.973   9.485  1.00  0.00    -0.262 OA
BRANCH  29  31
HETATM   31  O1  UNL     1      13.032  21.796  10.737  1.00  0.00    -0.324 OA
HETATM   32  C1  UNL     1      11.715  22.308  10.658  1.00  0.00     0.213 C 
ENDBRANCH  29  31
ENDBRANCH  27  29
ENDBRANCH  25  26
BRANCH  24  33
HETATM   33  O4  UNL     1      16.595  16.048   9.543  1.00  0.00    -0.355 OA
ATOM     34  H4  UNL     1      16.824  15.292  10.070  1.00  0.00     0.218 HD
ENDBRANCH  24  33
ENDBRANCH  22  24
ENDBRANCH  21  22
ENDBRANCH  20  21
ENDBRANCH   1  20
TORSDOF 17
ENDMDL
MODEL 3
REMARK VINA RESULT: -7.987021951      3.251      9.905
REMARK  17 active torsions:
REMARK  status: ('A' for Active; 'I' for Inactive)
REMARK    1  A    between atoms: O1_2  and  C2_3 
REMARK    2  A    between atoms: C2_3  and  C3_5 
REMARK    3  A    between atoms: C4_7  and  C5_8 
REMARK    4  A    between atoms: C6_9  and  O4_10 
REMARK    5  A    between atoms: C6_9  and  C7_12 
REMARK    6  A    between atoms: C7_12  and  O6_14 
REMARK    7  A    between atoms: O6_14  and  C8_15 
REMARK    8  A    between atoms: C8_15  and  C9_16 
REMARK    9  A    between atoms: C10_17  and  C12_19 
REMARK   10  A    between atoms: C12_19  and  C13_20 
REMARK   11  A    between atoms: C13_20  and  C14_21 
REMARK   12  A    between atoms: C15_22  and  C17_24 
REMARK   13  A    between atoms: C17_24  and  C18_25 
REMARK   14  A    between atoms: C18_25  and  C19_26 
REMARK   15  A    between atoms: C20_27  and  C22_29 
REMARK   16  A    between atoms: C22_29  and  C23_30 
REMARK   17  A    between atoms: C23_30  and  C24_31 
ROOT
HETATM    1  C9  UNL     1      13.574  18.166  10.186  1.00  0.00     0.002 C 
HETATM    2  C10 UNL     1      14.250  17.044  10.296  1.00  0.00    -0.085 C 
HETATM    3  C11 UNL     1      13.601  15.853  10.973  1.00  0.00     0.043 C 
ENDROOT
BRANCH   2   4
HETATM    4  C12 UNL     1      15.585  16.883   9.729  1.00  0.00     0.037 C 
BRANCH   4   5
HETATM    5  C13 UNL     1      16.693  17.156  10.670  1.00  0.00     0.031 C 
BRANCH   5   6
HETATM    6  C14 UNL     1      17.042  16.131  11.650  1.00  0.00    -0.024 C 
HETATM    7  C15 UNL     1      16.793  16.356  12.958  1.00  0.00    -0.087 C 
HETATM    8  C16 UNL     1      16.180  17.637  13.317  1.00  0.00     0.043 C 
BRANCH   7   9
HETATM    9  C17 UNL     1      17.177  15.298  13.900  1.00  0.00     0.037 C 
BRANCH   9  10
HETATM   10  C18 UNL     1      16.241  15.005  15.007  1.00  0.00     0.031 C 
BRANCH  10  11
HETATM   11  C19 UNL     1      14.933  14.492  14.490  1.00  0.00    -0.024 C 
HETATM   12  C20 UNL     1      13.793  15.054  14.784  1.00  0.00    -0.087 C 
HETATM   13  C21 UNL     1      13.768  16.268  15.685  1.00  0.00     0.043 C 
BRANCH  12  14
HETATM   14  C22 UNL     1      12.506  14.609  14.264  1.00  0.00     0.037 C 
BRANCH  14  15
HETATM   15  C23 UNL     1      12.026  13.285  14.722  1.00  0.00     0.031 C 
BRANCH  15  16
HETATM   16  C24 UNL     1      11.232  13.278  15.968  1.00  0.00    -0.024 C 
HETATM   17  C25 UNL     1       9.900  13.221  15.850  1.00  0.00    -0.091 C 
HETATM   18  C26 UNL     1       9.256  13.165  14.521  1.00  0.00     0.042 C 
HETATM   19  C27 UNL     1       9.055  13.212  17.070  1.00  0.00     0.042 C 
ENDBRANCH  15  16
ENDBRANCH  14  15
ENDBRANCH  12  14
ENDBRANCH  10  11
ENDBRANCH   9  10
ENDBRANCH   7   9
ENDBRANCH   5   6
ENDBRANCH   4   5
ENDBRANCH   2   4
BRANCH   1  20
HETATM   20  C8  UNL     1      14.013  19.417   9.577  1.00  0.00     0.207 C 
BRANCH  20  21
HETATM   21  O6  UNL     1      13.660  20.459  10.515  1.00  0.00    -0.312 OA
BRANCH  21  22
HETATM   22  C7  UNL     1      12.526  21.246  10.320  1.00  0.00     0.316 C 
HETATM   23  O5  UNL     1      11.630  20.776   9.586  1.00  0.00    -0.257 OA
BRANCH  22  24
HETATM   24  C6  UNL     1      12.389  22.556  10.940  1.00  0.00     0.140 C 
HETATM   25  C5  UNL     1      13.074  23.605  10.544  1.00  0.00     0.050 C 
BRANCH  25  26
HETATM   26  C4  UNL     1      14.029  23.487   9.428  1.00  0.00     0.187 A 
HETATM   27  C3  UNL     1      15.506  23.519   9.840  1.00  0.00     0.254 A 
HETATM   28  O3  UNL     1      14.893  24.504   9.107  1.00  0.00    -0.361 OA
BRANCH  27  29
HETATM   29  C2  UNL     1      16.373  22.506   9.182  1.00  0.00     0.290 C 
HETATM   30  O2  UNL     1      16.925  21.610   9.884  1.00  0.00    -0.262 OA
BRANCH  29  31
HETATM   31  O1  UNL     1      16.608  22.492   7.836  1.00  0.00    -0.324 OA
HETATM   32  C1  UNL     1      17.706  23.134   7.215  1.00  0.00     0.213 C 
ENDBRANCH  29  31
ENDBRANCH  27  29
ENDBRANCH  25  26
BRANCH  24  33
HETATM   33  O4  UNL     1      11.501  22.725  12.000  1.00  0.00    -0.355 OA
ATOM     34  H4  UNL     1      10.590  22.896  11.791  1.00  0.00     0.218 HD
ENDBRANCH  24  33
ENDBRANCH  22  24
ENDBRANCH  21  22
ENDBRANCH  20  21
ENDBRANCH   1  20
TORSDOF 17
ENDMDL
MODEL 4
REMARK VINA RESULT: -7.905316254      3.002      9.687
REMARK  17 active torsions:
REMARK  status: ('A' for Active; 'I' for Inactive)
REMARK    1  A    between atoms: O1_2  and  C2_3 
REMARK    2  A    between atoms: C2_3  and  C3_5 
REMARK    3  A    between atoms: C4_7  and  C5_8 
REMARK    4  A    between atoms: C6_9  and  O4_10 
REMARK    5  A    between atoms: C6_9  and  C7_12 
REMARK    6  A    between atoms: C7_12  and  O6_14 
REMARK    7  A    between atoms: O6_14  and  C8_15 
REMARK    8  A    between atoms: C8_15  and  C9_16 
REMARK    9  A    between atoms: C10_17  and  C12_19 
REMARK   10  A    between atoms: C12_19  and  C13_20 
REMARK   11  A    between atoms: C13_20  and  C14_21 
REMARK   12  A    between atoms: C15_22  and  C17_24 
REMARK   13  A    between atoms: C17_24  and  C18_25 
REMARK   14  A    between atoms: C18_25  and  C19_26 
REMARK   15  A    between atoms: C20_27  and  C22_29 
REMARK   16  A    between atoms: C22_29  and  C23_30 
REMARK   17  A    between atoms: C23_30  and  C24_31 
ROOT
HETATM    1  C9  UNL     1      14.426  16.912  10.034  1.00  0.00     0.002 C 
HETATM    2  C10 UNL     1      15.693  17.036  10.358  1.00  0.00    -0.085 C 
HETATM    3  C11 UNL     1      16.746  16.352   9.507  1.00  0.00     0.043 C 
ENDROOT
BRANCH   2   4
HETATM    4  C12 UNL     1      16.131  17.867  11.475  1.00  0.00     0.037 C 
BRANCH   4   5
HETATM    5  C13 UNL     1      16.516  17.118  12.690  1.00  0.00     0.031 C 
BRANCH   5   6
HETATM    6  C14 UNL     1      15.571  17.062  13.802  1.00  0.00    -0.024 C 
HETATM    7  C15 UNL     1      15.609  16.012  14.649  1.00  0.00    -0.087 C 
HETATM    8  C16 UNL     1      16.612  14.975  14.394  1.00  0.00     0.043 C 
BRANCH   7   9
HETATM    9  C17 UNL     1      14.627  16.000  15.741  1.00  0.00     0.037 C 
BRANCH   9  10
HETATM   10  C18 UNL     1      13.198  16.051  15.365  1.00  0.00     0.031 C 
BRANCH  10  11
HETATM   11  C19 UNL     1      12.614  14.677  15.265  1.00  0.00    -0.024 C 
HETATM   12  C20 UNL     1      12.283  14.135  14.123  1.00  0.00    -0.087 C 
HETATM   13  C21 UNL     1      12.484  14.911  12.842  1.00  0.00     0.043 C 
BRANCH  12  14
HETATM   14  C22 UNL     1      11.753  12.785  13.985  1.00  0.00     0.037 C 
BRANCH  14  15
HETATM   15  C23 UNL     1      10.641  12.602  13.024  1.00  0.00     0.031 C 
BRANCH  15  16
HETATM   16  C24 UNL     1       9.278  12.745  13.576  1.00  0.00    -0.024 C 
HETATM   17  C25 UNL     1       8.335  13.243  12.767  1.00  0.00    -0.091 C 
HETATM   18  C26 UNL     1       8.653  13.631  11.376  1.00  0.00     0.042 C 
HETATM   19  C27 UNL     1       6.949  13.408  13.270  1.00  0.00     0.042 C 
ENDBRANCH  15  16
ENDBRANCH  14  15
ENDBRANCH  12  14
ENDBRANCH  10  11
ENDBRANCH   9  10
ENDBRANCH   7   9
ENDBRANCH   5   6
ENDBRANCH   4   5
ENDBRANCH   2   4
BRANCH   1  20
HETATM   20  C8  UNL     1      13.269  17.482  10.715  1.00  0.00     0.207 C 
BRANCH  20  21
HETATM   21  O6  UNL     1      12.926  18.678   9.977  1.00  0.00    -0.312 OA
BRANCH  21  22
HETATM   22  C7  UNL     1      11.619  18.903   9.546  1.00  0.00     0.316 C 
HETATM   23  O5  UNL     1      11.106  18.030   8.813  1.00  0.00    -0.257 OA
BRANCH  22  24
HETATM   24  C6  UNL     1      10.884  20.100   9.928  1.00  0.00     0.140 C 
HETATM   25  C5  UNL     1      11.447  21.284  10.013  1.00  0.00     0.050 C 
BRANCH  25  26
HETATM   26  C4  UNL     1      12.882  21.444   9.715  1.00  0.00     0.187 A 
HETATM   27  C3  UNL     1      13.274  22.818   9.156  1.00  0.00     0.254 A 
HETATM   28  O3  UNL     1      13.335  21.651   8.435  1.00  0.00    -0.361 OA
BRANCH  27  29
HETATM   29  C2  UNL     1      14.501  23.417   9.742  1.00  0.00     0.290 C 
HETATM   30  O2  UNL     1      14.394  24.271  10.670  1.00  0.00    -0.262 OA
BRANCH  29  31
HETATM   31  O1  UNL     1      15.760  23.089   9.324  1.00  0.00    -0.324 OA
HETATM   32  C1  UNL     1      16.685  24.015   8.786  1.00  0.00     0.213 C 
ENDBRANCH  29  31
ENDBRANCH  27  29
ENDBRANCH  25  26
BRANCH  24  33
HETATM   33  O4  UNL     1       9.525  20.007  10.222  1.00  0.00    -0.355 OA
ATOM     34  H4  UNL     1       8.912  20.061   9.498  1.00  0.00     0.218 HD
ENDBRANCH  24  33
ENDBRANCH  22  24
ENDBRANCH  21  22
ENDBRANCH  20  21
ENDBRANCH   1  20
TORSDOF 17
ENDMDL
MODEL 5
REMARK VINA RESULT: -7.815397055      4.512      8.497
REMARK  17 active torsions:
REMARK  status: ('A' for Active; 'I' for Inactive)
REMARK    1  A    between atoms: O1_2  and  C2_3 
REMARK    2  A    between atoms: C2_3  and  C3_5 
REMARK    3  A    between atoms: C4_7  and  C5_8 
REMARK    4  A    between atoms: C6_9  and  O4_10 
REMARK    5  A    between atoms: C6_9  and  C7_12 
REMARK    6  A    between atoms: C7_12  and  O6_14 
REMARK    7  A    between atoms: O6_14  and  C8_15 
REMARK    8  A    between atoms: C8_15  and  C9_16 
REMARK    9  A    between atoms: C10_17  and  C12_19 
REMARK   10  A    between atoms: C12_19  and  C13_20 
REMARK   11  A    between atoms: C13_20  and  C14_21 
REMARK   12  A    between atoms: C15_22  and  C17_24 
REMARK   13  A    between atoms: C17_24  and  C18_25 
REMARK   14  A    between atoms: C18_25  and  C19_26 
REMARK   15  A    between atoms: C20_27  and  C22_29 
REMARK   16  A    between atoms: C22_29  and  C23_30 
REMARK   17  A    between atoms: C23_30  and  C24_31 
ROOT
HETATM    1  C9  UNL     1      12.742  14.923  12.248  1.00  0.00     0.002 C 
HETATM    2  C10 UNL     1      12.809  14.790  13.554  1.00  0.00    -0.085 C 
HETATM    3  C11 UNL     1      12.384  13.479  14.187  1.00  0.00     0.043 C 
ENDROOT
BRANCH   2   4
HETATM    4  C12 UNL     1      13.341  15.841  14.415  1.00  0.00     0.037 C 
BRANCH   4   5
HETATM    5  C13 UNL     1      14.575  15.478  15.143  1.00  0.00     0.031 C 
BRANCH   5   6
HETATM    6  C14 UNL     1      15.692  16.421  15.134  1.00  0.00    -0.024 C 
HETATM    7  C15 UNL     1      16.955  15.947  15.086  1.00  0.00    -0.087 C 
HETATM    8  C16 UNL     1      17.130  14.493  15.049  1.00  0.00     0.043 C 
BRANCH   7   9
HETATM    9  C17 UNL     1      18.038  16.939  15.093  1.00  0.00     0.037 C 
BRANCH   9  10
HETATM   10  C18 UNL     1      19.085  16.788  16.125  1.00  0.00     0.031 C 
BRANCH  10  11
HETATM   11  C19 UNL     1      20.454  16.907  15.531  1.00  0.00    -0.024 C 
HETATM   12  C20 UNL     1      21.269  17.881  15.833  1.00  0.00    -0.087 C 
HETATM   13  C21 UNL     1      20.832  18.945  16.814  1.00  0.00     0.043 C 
BRANCH  12  14
HETATM   14  C22 UNL     1      22.623  18.004  15.308  1.00  0.00     0.037 C 
BRANCH  14  15
HETATM   15  C23 UNL     1      22.751  18.309  13.865  1.00  0.00     0.031 C 
BRANCH  15  16
HETATM   16  C24 UNL     1      23.803  19.280  13.498  1.00  0.00    -0.024 C 
HETATM   17  C25 UNL     1      23.966  19.552  12.198  1.00  0.00    -0.091 C 
HETATM   18  C26 UNL     1      23.121  18.902  11.174  1.00  0.00     0.042 C 
HETATM   19  C27 UNL     1      25.008  20.519  11.775  1.00  0.00     0.042 C 
ENDBRANCH  15  16
ENDBRANCH  14  15
ENDBRANCH  12  14
ENDBRANCH  10  11
ENDBRANCH   9  10
ENDBRANCH   7   9
ENDBRANCH   5   6
ENDBRANCH   4   5
ENDBRANCH   2   4
BRANCH   1  20
HETATM   20  C8  UNL     1      13.098  16.091  11.449  1.00  0.00     0.207 C 
BRANCH  20  21
HETATM   21  O6  UNL     1      11.846  16.671  11.018  1.00  0.00    -0.312 OA
BRANCH  21  22
HETATM   22  C7  UNL     1      11.765  17.403   9.835  1.00  0.00     0.316 C 
HETATM   23  O5  UNL     1      11.798  16.756   8.765  1.00  0.00    -0.257 OA
BRANCH  22  24
HETATM   24  C6  UNL     1      11.647  18.855   9.840  1.00  0.00     0.140 C 
HETATM   25  C5  UNL     1      12.684  19.652   9.726  1.00  0.00     0.050 C 
BRANCH  25  26
HETATM   26  C4  UNL     1      14.039  19.089   9.585  1.00  0.00     0.187 A 
HETATM   27  C3  UNL     1      15.039  19.543  10.656  1.00  0.00     0.254 A 
HETATM   28  O3  UNL     1      15.128  19.885   9.329  1.00  0.00    -0.361 OA
BRANCH  27  29
HETATM   29  C2  UNL     1      15.893  18.468  11.226  1.00  0.00     0.290 C 
HETATM   30  O2  UNL     1      15.803  18.190  12.457  1.00  0.00    -0.262 OA
BRANCH  29  31
HETATM   31  O1  UNL     1      16.785  17.753  10.477  1.00  0.00    -0.324 OA
HETATM   32  C1  UNL     1      16.588  16.411  10.074  1.00  0.00     0.213 C 
ENDBRANCH  29  31
ENDBRANCH  27  29
ENDBRANCH  25  26
BRANCH  24  33
HETATM   33  O4  UNL     1      10.390  19.441   9.972  1.00  0.00    -0.355 OA
ATOM     34  H4  UNL     1       9.746  18.991  10.505  1.00  0.00     0.218 HD
ENDBRANCH  24  33
ENDBRANCH  22  24
ENDBRANCH  21  22
ENDBRANCH  20  21
ENDBRANCH   1  20
TORSDOF 17
ENDMDL
