MODEL 1
REMARK VINA RESULT: -9.196160630      0.000      0.000
REMARK  15 active torsions:
REMARK  status: ('A' for Active; 'I' for Inactive)
REMARK    1  A    between atoms: C4_4  and  C5_5 
REMARK    2  A    between atoms: C5_5  and  C6_6 
REMARK    3  A    between atoms: C6_6  and  C7_7 
REMARK    4  A    between atoms: C9_9  and  C10_10 
REMARK    5  A    between atoms: C10_10  and  C11_11 
REMARK    6  A    between atoms: C11_11  and  C12_12 
REMARK    7  A    between atoms: C14_14  and  C15_15 
REMARK    8  A    between atoms: C15_15  and  C16_16 
REMARK    9  A    between atoms: C16_16  and  C17_17 
REMARK   10  A    between atoms: C19_19  and  C20_20 
REMARK   11  A    between atoms: C20_20  and  N1_21 
REMARK   12  A    between atoms: C22_25  and  C23_26 
REMARK   13  A    between atoms: C23_26  and  O1_27 
REMARK   14  A    between atoms: C23_26  and  C24_29 
REMARK   15  A    between atoms: C24_29  and  N3_30 
ROOT
HETATM    1  C17 UNL     1      15.683  16.742  11.260  1.00  0.00    -0.086 C 
HETATM    2  C18 UNL     1      16.522  16.574  10.019  1.00  0.00     0.043 C 
HETATM    3  C19 UNL     1      16.330  16.909  12.379  1.00  0.00    -0.003 C 
ENDROOT
BRANCH   1   4
HETATM    4  C16 UNL     1      14.239  16.672  11.168  1.00  0.00     0.037 C 
BRANCH   4   5
HETATM    5  C15 UNL     1      13.595  17.200   9.915  1.00  0.00     0.031 C 
BRANCH   5   6
HETATM    6  C14 UNL     1      12.893  18.470  10.014  1.00  0.00    -0.024 C 
HETATM    7  C12 UNL     1      13.381  19.644   9.871  1.00  0.00    -0.087 C 
HETATM    8  C13 UNL     1      12.437  20.831  10.023  1.00  0.00     0.043 C 
BRANCH   7   9
HETATM    9  C11 UNL     1      14.810  19.973   9.567  1.00  0.00     0.037 C 
BRANCH   9  10
HETATM   10  C10 UNL     1      15.144  21.197  10.341  1.00  0.00     0.031 C 
BRANCH  10  11
HETATM   11  C9  UNL     1      15.769  22.330   9.727  1.00  0.00    -0.024 C 
HETATM   12  C7  UNL     1      15.383  23.537   9.428  1.00  0.00    -0.087 C 
HETATM   13  C8  UNL     1      14.021  24.049   9.647  1.00  0.00     0.043 C 
BRANCH  12  14
HETATM   14  C6  UNL     1      16.389  24.436   8.771  1.00  0.00     0.037 C 
BRANCH  14  15
HETATM   15  C5  UNL     1      17.639  23.797   8.312  1.00  0.00     0.031 C 
BRANCH  15  16
HETATM   16  C4  UNL     1      18.732  24.726   8.008  1.00  0.00    -0.024 C 
HETATM   17  C2  UNL     1      19.072  25.072   6.764  1.00  0.00    -0.091 C 
HETATM   18  C1  UNL     1      20.172  26.007   6.470  1.00  0.00     0.042 C 
HETATM   19  C3  UNL     1      18.302  24.482   5.644  1.00  0.00     0.042 C 
ENDBRANCH  15  16
ENDBRANCH  14  15
ENDBRANCH  12  14
ENDBRANCH  10  11
ENDBRANCH   9  10
ENDBRANCH   7   9
ENDBRANCH   5   6
ENDBRANCH   4   5
ENDBRANCH   1   4
BRANCH   3  20
HETATM   20  C20 UNL     1      15.723  17.054  13.700  1.00  0.00     0.177 C 
BRANCH  20  21
HETATM   21  N1  UNL     1      16.699  16.742  14.757  1.00  0.00    -0.283 N 
HETATM   22  C21 UNL     1      16.658  15.638  15.511  1.00  0.00     0.202 A 
HETATM   23  N2  UNL     1      17.706  15.695  16.362  1.00  0.00    -0.338 N 
HETATM   24  C22 UNL     1      18.369  16.816  16.125  1.00  0.00     0.128 A 
ATOM     25  H2  UNL     1      17.945  14.996  17.064  1.00  0.00     0.168 HD
HETATM   26  N4  UNL     1      17.742  17.456  15.134  1.00  0.00    -0.283 N 
ATOM     27  H4  UNL     1      18.024  18.352  14.734  1.00  0.00     0.188 HD
BRANCH  24  28
HETATM   28  C23 UNL     1      19.581  17.276  16.831  1.00  0.00     0.215 C 
BRANCH  28  29
HETATM   29  O1  UNL     1      20.728  17.132  16.075  1.00  0.00    -0.386 OA
ATOM     30  H1  UNL     1      21.159  16.297  16.215  1.00  0.00     0.210 HD
ENDBRANCH  28  29
BRANCH  28  31
HETATM   31  C24 UNL     1      19.361  18.662  17.371  1.00  0.00     0.311 C 
BRANCH  31  32
HETATM   32  N3  UNL     1      20.228  18.944  18.497  1.00  0.00     0.091 N 
HETATM   33  C25 UNL     1      20.452  20.371  18.653  1.00  0.00     0.272 C 
HETATM   34  C26 UNL     1      20.798  20.570  20.112  1.00  0.00     0.032 C 
HETATM   35  C27 UNL     1      20.162  19.427  20.837  1.00  0.00     0.032 C 
HETATM   36  C28 UNL     1      19.670  18.499  19.761  1.00  0.00     0.272 C 
ENDBRANCH  31  32
ENDBRANCH  28  31
ENDBRANCH  24  28
ENDBRANCH  20  21
ENDBRANCH   3  20
TORSDOF 15
ENDMDL
MODEL 2
REMARK VINA RESULT: -9.157624364      1.528      2.561
REMARK  15 active torsions:
REMARK  status: ('A' for Active; 'I' for Inactive)
REMARK    1  A    between atoms: C4_4  and  C5_5 
REMARK    2  A    between atoms: C5_5  and  C6_6 
REMARK    3  A    between atoms: C6_6  and  C7_7 
REMARK    4  A    between atoms: C9_9  and  C10_10 
REMARK    5  A    between atoms: C10_10  and  C11_11 
REMARK    6  A    between atoms: C11_11  and  C12_12 
REMARK    7  A    between atoms: C14_14  and  C15_15 
REMARK    8  A    between atoms: C15_15  and  C16_16 
REMARK    9  A    between atoms: C16_16  and  C17_17 
REMARK   10  A    between atoms: C19_19  and  C20_20 
REMARK   11  A    between atoms: C20_20  and  N1_21 
REMARK   12  A    between atoms: C22_25  and  C23_26 
REMARK   13  A    between atoms: C23_26  and  O1_27 
REMARK   14  A    between atoms: C23_26  and  C24_29 
REMARK   15  A    between atoms: C24_29  and  N3_30 
ROOT
HETATM    1  C17 UNL     1      13.510  15.275  13.270  1.00  0.00    -0.086 C 
HETATM    2  C18 UNL     1      12.867  13.932  13.500  1.00  0.00     0.043 C 
HETATM    3  C19 UNL     1      14.480  15.600  14.078  1.00  0.00    -0.003 C 
ENDROOT
BRANCH   1   4
HETATM    4  C16 UNL     1      13.015  16.139  12.217  1.00  0.00     0.037 C 
BRANCH   4   5
HETATM    5  C15 UNL     1      13.435  15.830  10.806  1.00  0.00     0.031 C 
BRANCH   5   6
HETATM    6  C14 UNL     1      14.845  15.983  10.485  1.00  0.00    -0.024 C 
HETATM    7  C12 UNL     1      15.454  17.055  10.139  1.00  0.00    -0.087 C 
HETATM    8  C13 UNL     1      16.948  16.962   9.850  1.00  0.00     0.043 C 
BRANCH   7   9
HETATM    9  C11 UNL     1      14.835  18.409   9.987  1.00  0.00     0.037 C 
BRANCH   9  10
HETATM   10  C10 UNL     1      15.672  19.355  10.770  1.00  0.00     0.031 C 
BRANCH  10  11
HETATM   11  C9  UNL     1      15.920  20.692  10.320  1.00  0.00    -0.024 C 
HETATM   12  C7  UNL     1      16.698  21.225   9.422  1.00  0.00    -0.087 C 
HETATM   13  C8  UNL     1      17.650  20.466   8.595  1.00  0.00     0.043 C 
BRANCH  12  14
HETATM   14  C6  UNL     1      16.645  22.716   9.266  1.00  0.00     0.037 C 
BRANCH  14  15
HETATM   15  C5  UNL     1      17.123  23.258   7.977  1.00  0.00     0.031 C 
BRANCH  15  16
HETATM   16  C4  UNL     1      18.184  24.264   8.087  1.00  0.00    -0.024 C 
HETATM   17  C2  UNL     1      18.790  24.806   7.027  1.00  0.00    -0.091 C 
HETATM   18  C1  UNL     1      19.855  25.816   7.149  1.00  0.00     0.042 C 
HETATM   19  C3  UNL     1      18.360  24.363   5.681  1.00  0.00     0.042 C 
ENDBRANCH  15  16
ENDBRANCH  14  15
ENDBRANCH  12  14
ENDBRANCH  10  11
ENDBRANCH   9  10
ENDBRANCH   7   9
ENDBRANCH   5   6
ENDBRANCH   4   5
ENDBRANCH   1   4
BRANCH   3  20
HETATM   20  C20 UNL     1      15.215  16.862  14.060  1.00  0.00     0.177 C 
BRANCH  20  21
HETATM   21  N1  UNL     1      16.642  16.635  14.339  1.00  0.00    -0.283 N 
HETATM   22  C21 UNL     1      17.572  16.465  13.392  1.00  0.00     0.202 A 
HETATM   23  N2  UNL     1      18.755  16.288  14.020  1.00  0.00    -0.338 N 
HETATM   24  C22 UNL     1      18.544  16.350  15.325  1.00  0.00     0.128 A 
ATOM     25  H2  UNL     1      19.656  16.133  13.567  1.00  0.00     0.168 HD
HETATM   26  N4  UNL     1      17.238  16.565  15.514  1.00  0.00    -0.283 N 
ATOM     27  H4  UNL     1      16.777  16.659  16.420  1.00  0.00     0.188 HD
BRANCH  24  28
HETATM   28  C23 UNL     1      19.565  16.206  16.381  1.00  0.00     0.215 C 
BRANCH  28  29
HETATM   29  O1  UNL     1      20.239  15.003  16.314  1.00  0.00    -0.386 OA
ATOM     30  H1  UNL     1      20.987  15.031  15.729  1.00  0.00     0.210 HD
ENDBRANCH  28  29
BRANCH  28  31
HETATM   31  C24 UNL     1      20.455  17.418  16.397  1.00  0.00     0.311 C 
BRANCH  31  32
HETATM   32  N3  UNL     1      19.839  18.528  17.095  1.00  0.00     0.091 N 
HETATM   33  C25 UNL     1      19.678  18.243  18.511  1.00  0.00     0.272 C 
HETATM   34  C26 UNL     1      19.638  19.594  19.193  1.00  0.00     0.032 C 
HETATM   35  C27 UNL     1      20.386  20.523  18.292  1.00  0.00     0.032 C 
HETATM   36  C28 UNL     1      20.633  19.742  17.032  1.00  0.00     0.272 C 
ENDBRANCH  31  32
ENDBRANCH  28  31
ENDBRANCH  24  28
ENDBRANCH  20  21
ENDBRANCH   3  20
TORSDOF 15
ENDMDL
MODEL 3
REMARK VINA RESULT: -9.132276338      1.269      2.172
REMARK  15 active torsions:
REMARK  status: ('A' for Active; 'I' for Inactive)
REMARK    1  A    between atoms: C4_4  and  C5_5 
REMARK    2  A    between atoms: C5_5  and  C6_6 
REMARK    3  A    between atoms: C6_6  and  C7_7 
REMARK    4  A    between atoms: C9_9  and  C10_10 
REMARK    5  A    between atoms: C10_10  and  C11_11 
REMARK    6  A    between atoms: C11_11  and  C12_12 
REMARK    7  A    between atoms: C14_14  and  C15_15 
REMARK    8  A    between atoms: C15_15  and  C16_16 
REMARK    9  A    between atoms: C16_16  and  C17_17 
REMARK   10  A    between atoms: C19_19  and  C20_20 
REMARK   11  A    between atoms: C20_20  and  N1_21 
REMARK   12  A    between atoms: C22_25  and  C23_26 
REMARK   13  A    between atoms: C23_26  and  O1_27 
REMARK   14  A    between atoms: C23_26  and  C24_29 
REMARK   15  A    between atoms: C24_29  and  N3_30 
ROOT
HETATM    1  C17 UNL     1      15.497  15.996  13.514  1.00  0.00    -0.086 C 
HETATM    2  C18 UNL     1      14.010  15.875  13.720  1.00  0.00     0.043 C 
HETATM    3  C19 UNL     1      16.243  15.136  14.149  1.00  0.00    -0.003 C 
ENDROOT
BRANCH   1   4
HETATM    4  C16 UNL     1      16.025  17.055  12.677  1.00  0.00     0.037 C 
BRANCH   4   5
HETATM    5  C15 UNL     1      15.796  16.949  11.194  1.00  0.00     0.031 C 
BRANCH   5   6
HETATM    6  C14 UNL     1      14.548  17.486  10.675  1.00  0.00    -0.024 C 
HETATM    7  C12 UNL     1      14.328  18.673  10.247  1.00  0.00    -0.087 C 
HETATM    8  C13 UNL     1      12.924  19.000   9.750  1.00  0.00     0.043 C 
BRANCH   7   9
HETATM    9  C11 UNL     1      15.326  19.787  10.187  1.00  0.00     0.037 C 
BRANCH   9  10
HETATM   10  C10 UNL     1      14.981  20.609   8.998  1.00  0.00     0.031 C 
BRANCH  10  11
HETATM   11  C9  UNL     1      15.743  21.767   8.636  1.00  0.00    -0.024 C 
HETATM   12  C7  UNL     1      16.991  21.983   8.332  1.00  0.00    -0.087 C 
HETATM   13  C8  UNL     1      18.036  20.947   8.340  1.00  0.00     0.043 C 
BRANCH  12  14
HETATM   14  C6  UNL     1      17.383  23.393   8.004  1.00  0.00     0.037 C 
BRANCH  14  15
HETATM   15  C5  UNL     1      18.456  23.559   7.002  1.00  0.00     0.031 C 
BRANCH  15  16
HETATM   16  C4  UNL     1      18.238  24.643   6.039  1.00  0.00    -0.024 C 
HETATM   17  C2  UNL     1      18.965  25.764   6.023  1.00  0.00    -0.091 C 
HETATM   18  C1  UNL     1      18.737  26.846   5.051  1.00  0.00     0.042 C 
HETATM   19  C3  UNL     1      20.041  25.907   7.031  1.00  0.00     0.042 C 
ENDBRANCH  15  16
ENDBRANCH  14  15
ENDBRANCH  12  14
ENDBRANCH  10  11
ENDBRANCH   9  10
ENDBRANCH   7   9
ENDBRANCH   5   6
ENDBRANCH   4   5
ENDBRANCH   1   4
BRANCH   3  20
HETATM   20  C20 UNL     1      17.703  15.094  14.125  1.00  0.00     0.177 C 
BRANCH  20  21
HETATM   21  N1  UNL     1      18.261  15.711  15.339  1.00  0.00    -0.283 N 
HETATM   22  C21 UNL     1      18.036  15.261  16.579  1.00  0.00     0.202 A 
HETATM   23  N2  UNL     1      18.708  16.070  17.427  1.00  0.00    -0.338 N 
HETATM   24  C22 UNL     1      19.328  16.995  16.711  1.00  0.00     0.128 A 
ATOM     25  H2  UNL     1      18.732  15.983  18.443  1.00  0.00     0.168 HD
HETATM   26  N4  UNL     1      19.048  16.766  15.424  1.00  0.00    -0.283 N 
ATOM     27  H4  UNL     1      19.387  17.319  14.636  1.00  0.00     0.188 HD
BRANCH  24  28
HETATM   28  C23 UNL     1      20.174  18.082  17.239  1.00  0.00     0.215 C 
BRANCH  28  29
HETATM   29  O1  UNL     1      21.292  18.315  16.464  1.00  0.00    -0.386 OA
ATOM     30  H1  UNL     1      21.815  17.534  16.328  1.00  0.00     0.210 HD
ENDBRANCH  28  29
BRANCH  28  31
HETATM   31  C24 UNL     1      19.333  19.301  17.502  1.00  0.00     0.311 C 
BRANCH  31  32
HETATM   32  N3  UNL     1      19.384  19.700  18.893  1.00  0.00     0.091 N 
HETATM   33  C25 UNL     1      19.454  18.547  19.776  1.00  0.00     0.272 C 
HETATM   34  C26 UNL     1      20.107  19.049  21.046  1.00  0.00     0.032 C 
HETATM   35  C27 UNL     1      20.932  20.227  20.636  1.00  0.00     0.032 C 
HETATM   36  C28 UNL     1      20.554  20.499  19.207  1.00  0.00     0.272 C 
ENDBRANCH  31  32
ENDBRANCH  28  31
ENDBRANCH  24  28
ENDBRANCH  20  21
ENDBRANCH   3  20
TORSDOF 15
ENDMDL
MODEL 4
REMARK VINA RESULT: -9.104710448      4.456      9.603
REMARK  15 active torsions:
REMARK  status: ('A' for Active; 'I' for Inactive)
REMARK    1  A    between atoms: C4_4  and  C5_5 
REMARK    2  A    between atoms: C5_5  and  C6_6 
REMARK    3  A    between atoms: C6_6  and  C7_7 
REMARK    4  A    between atoms: C9_9  and  C10_10 
REMARK    5  A    between atoms: C10_10  and  C11_11 
REMARK    6  A    between atoms: C11_11  and  C12_12 
REMARK    7  A    between atoms: C14_14  and  C15_15 
REMARK    8  A    between atoms: C15_15  and  C16_16 
REMARK    9  A    between atoms: C16_16  and  C17_17 
REMARK   10  A    between atoms: C19_19  and  C20_20 
REMARK   11  A    between atoms: C20_20  and  N1_21 
REMARK   12  A    between atoms: C22_25  and  C23_26 
REMARK   13  A    between atoms: C23_26  and  O1_27 
REMARK   14  A    between atoms: C23_26  and  C24_29 
REMARK   15  A    between atoms: C24_29  and  N3_30 
ROOT
HETATM    1  C17 UNL     1      15.710  17.450  10.730  1.00  0.00    -0.086 C 
HETATM    2  C18 UNL     1      15.635  16.191   9.906  1.00  0.00     0.043 C 
HETATM    3  C19 UNL     1      15.298  18.545  10.156  1.00  0.00    -0.003 C 
ENDROOT
BRANCH   1   4
HETATM    4  C16 UNL     1      16.258  17.402  12.071  1.00  0.00     0.037 C 
BRANCH   4   5
HETATM    5  C15 UNL     1      17.509  16.593  12.283  1.00  0.00     0.031 C 
BRANCH   5   6
HETATM    6  C14 UNL     1      17.454  15.532  13.276  1.00  0.00    -0.024 C 
HETATM    7  C12 UNL     1      17.638  15.636  14.539  1.00  0.00    -0.087 C 
HETATM    8  C13 UNL     1      17.527  14.370  15.380  1.00  0.00     0.043 C 
BRANCH   7   9
HETATM    9  C11 UNL     1      17.958  16.896  15.281  1.00  0.00     0.037 C 
BRANCH   9  10
HETATM   10  C10 UNL     1      19.139  16.603  16.136  1.00  0.00     0.031 C 
BRANCH  10  11
HETATM   11  C9  UNL     1      20.466  16.965  15.738  1.00  0.00    -0.024 C 
HETATM   12  C7  UNL     1      21.212  18.021  15.896  1.00  0.00    -0.087 C 
HETATM   13  C8  UNL     1      20.772  19.252  16.573  1.00  0.00     0.043 C 
BRANCH  12  14
HETATM   14  C6  UNL     1      22.588  17.984  15.301  1.00  0.00     0.037 C 
BRANCH  14  15
HETATM   15  C5  UNL     1      22.844  18.916  14.182  1.00  0.00     0.031 C 
BRANCH  15  16
HETATM   16  C4  UNL     1      23.231  18.275  12.922  1.00  0.00    -0.024 C 
HETATM   17  C2  UNL     1      24.290  18.656  12.203  1.00  0.00    -0.091 C 
HETATM   18  C1  UNL     1      24.670  18.005  10.938  1.00  0.00     0.042 C 
HETATM   19  C3  UNL     1      25.106  19.782  12.714  1.00  0.00     0.042 C 
ENDBRANCH  15  16
ENDBRANCH  14  15
ENDBRANCH  12  14
ENDBRANCH  10  11
ENDBRANCH   9  10
ENDBRANCH   7   9
ENDBRANCH   5   6
ENDBRANCH   4   5
ENDBRANCH   1   4
BRANCH   3  20
HETATM   20  C20 UNL     1      15.316  19.878  10.752  1.00  0.00     0.177 C 
BRANCH  20  21
HETATM   21  N1  UNL     1      16.109  20.805   9.929  1.00  0.00    -0.283 N 
HETATM   22  C21 UNL     1      17.106  20.424   9.122  1.00  0.00     0.202 A 
HETATM   23  N2  UNL     1      17.593  21.537   8.532  1.00  0.00    -0.338 N 
HETATM   24  C22 UNL     1      16.901  22.575   8.976  1.00  0.00     0.128 A 
ATOM     25  H2  UNL     1      18.360  21.573   7.861  1.00  0.00     0.168 HD
HETATM   26  N4  UNL     1      15.988  22.115   9.837  1.00  0.00    -0.283 N 
ATOM     27  H4  UNL     1      15.308  22.685  10.341  1.00  0.00     0.188 HD
BRANCH  24  28
HETATM   28  C23 UNL     1      17.104  23.986   8.591  1.00  0.00     0.215 C 
BRANCH  28  29
HETATM   29  O1  UNL     1      16.247  24.848   9.245  1.00  0.00    -0.386 OA
ATOM     30  H1  UNL     1      16.580  25.736   9.289  1.00  0.00     0.210 HD
ENDBRANCH  28  29
BRANCH  28  31
HETATM   31  C24 UNL     1      18.559  24.343   8.712  1.00  0.00     0.311 C 
BRANCH  31  32
HETATM   32  N3  UNL     1      19.136  24.694   7.430  1.00  0.00     0.091 N 
HETATM   33  C25 UNL     1      18.115  24.814   6.402  1.00  0.00     0.272 C 
HETATM   34  C26 UNL     1      18.699  25.741   5.358  1.00  0.00     0.032 C 
HETATM   35  C27 UNL     1      19.697  26.587   6.083  1.00  0.00     0.032 C 
HETATM   36  C28 UNL     1      19.816  25.975   7.451  1.00  0.00     0.272 C 
ENDBRANCH  31  32
ENDBRANCH  28  31
ENDBRANCH  24  28
ENDBRANCH  20  21
ENDBRANCH   3  20
TORSDOF 15
ENDMDL
MODEL 5
REMARK VINA RESULT: -8.985569380      1.240      1.875
REMARK  15 active torsions:
REMARK  status: ('A' for Active; 'I' for Inactive)
REMARK    1  A    between atoms: C4_4  and  C5_5 
REMARK    2  A    between atoms: C5_5  and  C6_6 
REMARK    3  A    between atoms: C6_6  and  C7_7 
REMARK    4  A    between atoms: C9_9  and  C10_10 
REMARK    5  A    between atoms: C10_10  and  C11_11 
REMARK    6  A    between atoms: C11_11  and  C12_12 
REMARK    7  A    between atoms: C14_14  and  C15_15 
REMARK    8  A    between atoms: C15_15  and  C16_16 
REMARK    9  A    between atoms: C16_16  and  C17_17 
REMARK   10  A    between atoms: C19_19  and  C20_20 
REMARK   11  A    between atoms: C20_20  and  N1_21 
REMARK   12  A    between atoms: C22_25  and  C23_26 
REMARK   13  A    between atoms: C23_26  and  O1_27 
REMARK   14  A    between atoms: C23_26  and  C24_29 
REMARK   15  A    between atoms: C24_29  and  N3_30 
ROOT
HETATM    1  C17 UNL     1      15.821  17.482  10.954  1.00  0.00    -0.086 C 
HETATM    2  C18 UNL     1      16.684  17.538   9.720  1.00  0.00     0.043 C 
HETATM    3  C19 UNL     1      16.441  17.525  12.099  1.00  0.00    -0.003 C 
ENDROOT
BRANCH   1   4
HETATM    4  C16 UNL     1      14.384  17.348  10.822  1.00  0.00     0.037 C 
BRANCH   4   5
HETATM    5  C15 UNL     1      13.694  18.217   9.806  1.00  0.00     0.031 C 
BRANCH   5   6
HETATM    6  C14 UNL     1      13.174  19.494  10.268  1.00  0.00    -0.024 C 
HETATM    7  C12 UNL     1      13.528  20.664   9.888  1.00  0.00    -0.087 C 
HETATM    8  C13 UNL     1      12.831  21.861  10.526  1.00  0.00     0.043 C 
BRANCH   7   9
HETATM    9  C11 UNL     1      14.576  20.978   8.866  1.00  0.00     0.037 C 
BRANCH   9  10
HETATM   10  C10 UNL     1      15.504  21.959   9.490  1.00  0.00     0.031 C 
BRANCH  10  11
HETATM   11  C9  UNL     1      16.599  22.527   8.763  1.00  0.00    -0.024 C 
HETATM   12  C7  UNL     1      17.671  22.046   8.199  1.00  0.00    -0.087 C 
HETATM   13  C8  UNL     1      18.059  20.627   8.234  1.00  0.00     0.043 C 
BRANCH  12  14
HETATM   14  C6  UNL     1      18.585  23.021   7.518  1.00  0.00     0.037 C 
BRANCH  14  15
HETATM   15  C5  UNL     1      18.304  24.454   7.747  1.00  0.00     0.031 C 
BRANCH  15  16
HETATM   16  C4  UNL     1      18.085  25.241   6.530  1.00  0.00    -0.024 C 
HETATM   17  C2  UNL     1      19.006  26.057   6.012  1.00  0.00    -0.091 C 
HETATM   18  C1  UNL     1      18.775  26.843   4.788  1.00  0.00     0.042 C 
HETATM   19  C3  UNL     1      20.308  26.165   6.709  1.00  0.00     0.042 C 
ENDBRANCH  15  16
ENDBRANCH  14  15
ENDBRANCH  12  14
ENDBRANCH  10  11
ENDBRANCH   9  10
ENDBRANCH   7   9
ENDBRANCH   5   6
ENDBRANCH   4   5
ENDBRANCH   1   4
BRANCH   3  20
HETATM   20  C20 UNL     1      15.809  17.448  13.413  1.00  0.00     0.177 C 
BRANCH  20  21
HETATM   21  N1  UNL     1      16.652  16.688  14.351  1.00  0.00    -0.283 N 
HETATM   22  C21 UNL     1      16.573  15.364  14.524  1.00  0.00     0.202 A 
HETATM   23  N2  UNL     1      17.494  15.025  15.453  1.00  0.00    -0.338 N 
HETATM   24  C22 UNL     1      18.120  16.127  15.834  1.00  0.00     0.128 A 
ATOM     25  H2  UNL     1      17.676  14.084  15.799  1.00  0.00     0.168 HD
HETATM   26  N4  UNL     1      17.595  17.149  15.150  1.00  0.00    -0.283 N 
ATOM     27  H4  UNL     1      17.878  18.126  15.233  1.00  0.00     0.188 HD
BRANCH  24  28
HETATM   28  C23 UNL     1      19.200  16.213  16.836  1.00  0.00     0.215 C 
BRANCH  28  29
HETATM   29  O1  UNL     1      19.934  15.047  16.933  1.00  0.00    -0.386 OA
ATOM     30  H1  UNL     1      20.847  15.203  17.144  1.00  0.00     0.210 HD
ENDBRANCH  28  29
BRANCH  28  31
HETATM   31  C24 UNL     1      20.023  17.448  16.594  1.00  0.00     0.311 C 
BRANCH  31  32
HETATM   32  N3  UNL     1      19.572  18.561  17.404  1.00  0.00     0.091 N 
HETATM   33  C25 UNL     1      19.638  18.249  18.822  1.00  0.00     0.272 C 
HETATM   34  C26 UNL     1      19.760  19.584  19.525  1.00  0.00     0.032 C 
HETATM   35  C27 UNL     1      20.382  20.509  18.528  1.00  0.00     0.032 C 
HETATM   36  C28 UNL     1      20.387  19.749  17.231  1.00  0.00     0.272 C 
ENDBRANCH  31  32
ENDBRANCH  28  31
ENDBRANCH  24  28
ENDBRANCH  20  21
ENDBRANCH   3  20
TORSDOF 15
ENDMDL
