MODEL 1
REMARK VINA RESULT: -8.909036541      0.000      0.000
REMARK  15 active torsions:
REMARK  status: ('A' for Active; 'I' for Inactive)
REMARK    1  A    between atoms: C2_2  and  C3_3 
REMARK    2  A    between atoms: C3_3  and  O1_4 
REMARK    3  A    between atoms: C3_3  and  C4_6 
REMARK    4  A    between atoms: C3_3  and  O3_27 
REMARK    5  A    between atoms: C4_6  and  C5_7 
REMARK    6  A    between atoms: C5_7  and  C6_8 
REMARK    7  A    between atoms: C12_15  and  C13_16 
REMARK    8  A    between atoms: C13_16  and  C14_17 
REMARK    9  A    between atoms: C14_17  and  C15_18 
REMARK   10  A    between atoms: C15_18  and  C18_21 
REMARK   11  A    between atoms: C18_21  and  C19_22 
REMARK   12  A    between atoms: C19_22  and  C20_23 
REMARK   13  A    between atoms: C20_23  and  C21_24 
REMARK   14  A    between atoms: O3_27  and  C24_28 
REMARK   15  A    between atoms: C24_28  and  C25_29 
ROOT
HETATM    1  C6  UNL     1      14.627  16.110  11.642  1.00  0.00     0.015 C 
HETATM    2  C7  UNL     1      15.446  17.162  12.358  1.00  0.00     0.014 C 
HETATM    3  C8  UNL     1      16.512  17.611  11.358  1.00  0.00     0.015 C 
HETATM    4  C9  UNL     1      17.014  16.379  10.625  1.00  0.00     0.010 C 
HETATM    5  C10 UNL     1      15.922  16.043   9.602  1.00  0.00     0.033 C 
HETATM    6  C11 UNL     1      14.642  16.614  10.169  1.00  0.00     0.126 C 
HETATM    7  O2  UNL     1      14.595  18.005  10.125  1.00  0.00    -0.380 OA
HETATM    8  C12 UNL     1      15.884  18.497  10.301  1.00  0.00     0.126 C 
ENDROOT
BRANCH   1   9
HETATM    9  C5  UNL     1      13.256  15.961  12.132  1.00  0.00     0.013 C 
BRANCH   9  10
HETATM   10  C4  UNL     1      12.888  14.716  12.831  1.00  0.00     0.074 C 
BRANCH  10  11
HETATM   11  C3  UNL     1      13.107  14.573  14.282  1.00  0.00     0.185 C 
BRANCH  11  12
HETATM   12  C2  UNL     1      13.037  15.805  15.093  1.00  0.00     0.031 C 
HETATM   13  C1  UNL     1      14.076  16.284  15.775  1.00  0.00     0.012 C 
ENDBRANCH  11  12
BRANCH  11  14
HETATM   14  O1  UNL     1      14.539  14.217  14.396  1.00  0.00    -0.362 OA
ATOM     15  H1  UNL     1      14.955  15.071  14.352  1.00  0.00     0.213 HD
ENDBRANCH  11  14
BRANCH  11  16
HETATM   16  O3  UNL     1      12.522  13.502  14.861  1.00  0.00    -0.320 OA
BRANCH  16  17
HETATM   17  C24 UNL     1      11.551  12.764  14.348  1.00  0.00     0.169 C 
BRANCH  17  18
HETATM   18  C25 UNL     1      10.140  13.104  14.525  1.00  0.00     0.072 A 
HETATM   19  C26 UNL     1       9.569  13.604  15.689  1.00  0.00     0.120 A 
HETATM   20  N1  UNL     1       8.261  13.781  15.501  1.00  0.00    -0.360 N 
HETATM   21  C27 UNL     1       8.000  13.400  14.240  1.00  0.00     0.182 A 
ATOM     22  H1  UNL     1       7.590  14.136  16.182  1.00  0.00     0.166 HD
HETATM   23  N2  UNL     1       9.129  12.992  13.649  1.00  0.00    -0.345 N 
HETATM   24  C28 UNL     1       9.207  12.494  12.266  1.00  0.00     0.157 C 
ENDBRANCH  17  18
ENDBRANCH  16  17
ENDBRANCH  11  16
ENDBRANCH  10  11
ENDBRANCH   9  10
ENDBRANCH   1   9
BRANCH   8  25
HETATM   25  C13 UNL     1      15.906  19.948  10.693  1.00  0.00     0.033 C 
BRANCH  25  26
HETATM   26  C14 UNL     1      14.686  20.640  10.087  1.00  0.00     0.011 C 
BRANCH  26  27
HETATM   27  C15 UNL     1      15.054  21.903   9.382  1.00  0.00    -0.048 C 
HETATM   28  C16 UNL     1      14.648  23.137  10.166  1.00  0.00     0.015 C 
HETATM   29  C17 UNL     1      14.415  21.954   8.031  1.00  0.00     0.015 C 
BRANCH  27  30
HETATM   30  C18 UNL     1      16.560  21.965   9.265  1.00  0.00     0.008 C 
BRANCH  30  31
HETATM   31  C19 UNL     1      17.049  22.222   7.877  1.00  0.00     0.001 C 
BRANCH  31  32
HETATM   32  C20 UNL     1      18.309  23.047   7.846  1.00  0.00     0.004 C 
BRANCH  32  33
HETATM   33  C21 UNL     1      18.156  24.336   7.070  1.00  0.00    -0.023 C 
HETATM   34  C22 UNL     1      19.291  25.257   7.463  1.00  0.00     0.009 C 
HETATM   35  C23 UNL     1      18.207  24.125   5.589  1.00  0.00     0.009 C 
ENDBRANCH  32  33
ENDBRANCH  31  32
ENDBRANCH  30  31
ENDBRANCH  27  30
ENDBRANCH  26  27
ENDBRANCH  25  26
ENDBRANCH   8  25
TORSDOF 15
ENDMDL
MODEL 2
REMARK VINA RESULT: -8.846383967      3.411      9.700
REMARK  15 active torsions:
REMARK  status: ('A' for Active; 'I' for Inactive)
REMARK    1  A    between atoms: C2_2  and  C3_3 
REMARK    2  A    between atoms: C3_3  and  O1_4 
REMARK    3  A    between atoms: C3_3  and  C4_6 
REMARK    4  A    between atoms: C3_3  and  O3_27 
REMARK    5  A    between atoms: C4_6  and  C5_7 
REMARK    6  A    between atoms: C5_7  and  C6_8 
REMARK    7  A    between atoms: C12_15  and  C13_16 
REMARK    8  A    between atoms: C13_16  and  C14_17 
REMARK    9  A    between atoms: C14_17  and  C15_18 
REMARK   10  A    between atoms: C15_18  and  C18_21 
REMARK   11  A    between atoms: C18_21  and  C19_22 
REMARK   12  A    between atoms: C19_22  and  C20_23 
REMARK   13  A    between atoms: C20_23  and  C21_24 
REMARK   14  A    between atoms: O3_27  and  C24_28 
REMARK   15  A    between atoms: C24_28  and  C25_29 
ROOT
HETATM    1  C6  UNL     1      14.678  18.353   9.861  1.00  0.00     0.015 C 
HETATM    2  C7  UNL     1      14.022  17.265  10.681  1.00  0.00     0.014 C 
HETATM    3  C8  UNL     1      15.158  16.355  11.150  1.00  0.00     0.015 C 
HETATM    4  C9  UNL     1      16.134  16.192   9.997  1.00  0.00     0.010 C 
HETATM    5  C10 UNL     1      16.937  17.499   9.959  1.00  0.00     0.033 C 
HETATM    6  C11 UNL     1      16.044  18.546  10.585  1.00  0.00     0.126 C 
HETATM    7  O2  UNL     1      15.896  18.392  11.960  1.00  0.00    -0.380 OA
HETATM    8  C12 UNL     1      15.935  17.033  12.259  1.00  0.00     0.126 C 
ENDROOT
BRANCH   1   9
HETATM    9  C5  UNL     1      13.933  19.612   9.804  1.00  0.00     0.013 C 
BRANCH   9  10
HETATM   10  C4  UNL     1      14.671  20.876   9.987  1.00  0.00     0.074 C 
BRANCH  10  11
HETATM   11  C3  UNL     1      14.621  21.935   8.963  1.00  0.00     0.185 C 
BRANCH  11  12
HETATM   12  C2  UNL     1      15.720  21.963   7.977  1.00  0.00     0.031 C 
HETATM   13  C1  UNL     1      16.899  21.381   8.190  1.00  0.00     0.012 C 
ENDBRANCH  11  12
BRANCH  11  14
HETATM   14  O1  UNL     1      14.864  23.181   9.723  1.00  0.00    -0.362 OA
ATOM     15  H1  UNL     1      14.259  23.086  10.450  1.00  0.00     0.213 HD
ENDBRANCH  11  14
BRANCH  11  16
HETATM   16  O3  UNL     1      13.403  22.181   8.432  1.00  0.00    -0.320 OA
BRANCH  16  17
HETATM   17  C24 UNL     1      12.617  23.208   8.711  1.00  0.00     0.169 C 
BRANCH  17  18
HETATM   18  C25 UNL     1      11.473  23.089   9.612  1.00  0.00     0.072 A 
HETATM   19  C26 UNL     1      11.518  22.619  10.919  1.00  0.00     0.120 A 
HETATM   20  N1  UNL     1      10.289  22.627  11.437  1.00  0.00    -0.360 N 
HETATM   21  C27 UNL     1       9.473  23.092  10.477  1.00  0.00     0.182 A 
ATOM     22  H1  UNL     1      10.022  22.336  12.377  1.00  0.00     0.166 HD
HETATM   23  N2  UNL     1      10.181  23.371   9.377  1.00  0.00    -0.345 N 
HETATM   24  C28 UNL     1       9.602  23.888   8.127  1.00  0.00     0.157 C 
ENDBRANCH  17  18
ENDBRANCH  16  17
ENDBRANCH  11  16
ENDBRANCH  10  11
ENDBRANCH   9  10
ENDBRANCH   1   9
BRANCH   8  25
HETATM   25  C13 UNL     1      15.372  16.720  13.618  1.00  0.00     0.033 C 
BRANCH  25  26
HETATM   26  C14 UNL     1      14.910  15.263  13.635  1.00  0.00     0.011 C 
BRANCH  26  27
HETATM   27  C15 UNL     1      13.562  15.113  14.258  1.00  0.00    -0.048 C 
HETATM   28  C16 UNL     1      12.441  15.353  13.264  1.00  0.00     0.015 C 
HETATM   29  C17 UNL     1      13.407  16.062  15.404  1.00  0.00     0.015 C 
BRANCH  27  30
HETATM   30  C18 UNL     1      13.404  13.683  14.721  1.00  0.00     0.008 C 
BRANCH  30  31
HETATM   31  C19 UNL     1      12.050  13.109  14.459  1.00  0.00     0.001 C 
BRANCH  31  32
HETATM   32  C20 UNL     1      11.217  12.984  15.708  1.00  0.00     0.004 C 
BRANCH  32  33
HETATM   33  C21 UNL     1       9.868  13.656  15.592  1.00  0.00    -0.023 C 
HETATM   34  C22 UNL     1       9.194  13.139  14.340  1.00  0.00     0.009 C 
HETATM   35  C23 UNL     1       8.981  13.369  16.763  1.00  0.00     0.009 C 
ENDBRANCH  32  33
ENDBRANCH  31  32
ENDBRANCH  30  31
ENDBRANCH  27  30
ENDBRANCH  26  27
ENDBRANCH  25  26
ENDBRANCH   8  25
TORSDOF 15
ENDMDL
MODEL 3
REMARK VINA RESULT: -8.813843678      4.244      5.978
REMARK  15 active torsions:
REMARK  status: ('A' for Active; 'I' for Inactive)
REMARK    1  A    between atoms: C2_2  and  C3_3 
REMARK    2  A    between atoms: C3_3  and  O1_4 
REMARK    3  A    between atoms: C3_3  and  C4_6 
REMARK    4  A    between atoms: C3_3  and  O3_27 
REMARK    5  A    between atoms: C4_6  and  C5_7 
REMARK    6  A    between atoms: C5_7  and  C6_8 
REMARK    7  A    between atoms: C12_15  and  C13_16 
REMARK    8  A    between atoms: C13_16  and  C14_17 
REMARK    9  A    between atoms: C14_17  and  C15_18 
REMARK   10  A    between atoms: C15_18  and  C18_21 
REMARK   11  A    between atoms: C18_21  and  C19_22 
REMARK   12  A    between atoms: C19_22  and  C20_23 
REMARK   13  A    between atoms: C20_23  and  C21_24 
REMARK   14  A    between atoms: O3_27  and  C24_28 
REMARK   15  A    between atoms: C24_28  and  C25_29 
ROOT
HETATM    1  C6  UNL     1      16.882  16.213  11.963  1.00  0.00     0.015 C 
HETATM    2  C7  UNL     1      17.434  16.680  10.635  1.00  0.00     0.014 C 
HETATM    3  C8  UNL     1      16.220  17.086   9.799  1.00  0.00     0.015 C 
HETATM    4  C9  UNL     1      15.121  16.066  10.044  1.00  0.00     0.010 C 
HETATM    5  C10 UNL     1      14.537  16.422  11.416  1.00  0.00     0.033 C 
HETATM    6  C11 UNL     1      15.643  17.136  12.159  1.00  0.00     0.126 C 
HETATM    7  O2  UNL     1      15.900  18.413  11.666  1.00  0.00    -0.380 OA
HETATM    8  C12 UNL     1      15.675  18.411  10.293  1.00  0.00     0.126 C 
ENDROOT
BRANCH   1   9
HETATM    9  C5  UNL     1      17.809  16.333  13.090  1.00  0.00     0.013 C 
BRANCH   9  10
HETATM   10  C4  UNL     1      17.596  15.477  14.272  1.00  0.00     0.074 C 
BRANCH  10  11
HETATM   11  C3  UNL     1      16.844  15.975  15.439  1.00  0.00     0.185 C 
BRANCH  11  12
HETATM   12  C2  UNL     1      15.420  15.595  15.527  1.00  0.00     0.031 C 
HETATM   13  C1  UNL     1      14.431  16.486  15.522  1.00  0.00     0.012 C 
ENDBRANCH  11  12
BRANCH  11  14
HETATM   14  O1  UNL     1      16.754  17.435  15.211  1.00  0.00    -0.362 OA
ATOM     15  H1  UNL     1      16.578  17.757  16.088  1.00  0.00     0.213 HD
ENDBRANCH  11  14
BRANCH  11  16
HETATM   16  O3  UNL     1      17.498  15.931  16.620  1.00  0.00    -0.320 OA
BRANCH  16  17
HETATM   17  C24 UNL     1      18.808  15.863  16.792  1.00  0.00     0.169 C 
BRANCH  17  18
HETATM   18  C25 UNL     1      19.628  17.057  16.989  1.00  0.00     0.072 A 
HETATM   19  C26 UNL     1      19.559  17.913  18.081  1.00  0.00     0.120 A 
HETATM   20  N1  UNL     1      20.435  18.907  17.922  1.00  0.00    -0.360 N 
HETATM   21  C27 UNL     1      21.051  18.690  16.749  1.00  0.00     0.182 A 
ATOM     22  H1  UNL     1      20.603  19.680  18.565  1.00  0.00     0.166 HD
HETATM   23  N2  UNL     1      20.567  17.578  16.183  1.00  0.00    -0.345 N 
HETATM   24  C28 UNL     1      21.009  17.050  14.883  1.00  0.00     0.157 C 
ENDBRANCH  17  18
ENDBRANCH  16  17
ENDBRANCH  11  16
ENDBRANCH  10  11
ENDBRANCH   9  10
ENDBRANCH   1   9
BRANCH   8  25
HETATM   25  C13 UNL     1      16.313  19.581   9.596  1.00  0.00     0.033 C 
BRANCH  25  26
HETATM   26  C14 UNL     1      15.870  20.868  10.290  1.00  0.00     0.011 C 
BRANCH  26  27
HETATM   27  C15 UNL     1      15.888  22.036   9.361  1.00  0.00    -0.048 C 
HETATM   28  C16 UNL     1      15.109  23.217   9.910  1.00  0.00     0.015 C 
HETATM   29  C17 UNL     1      15.321  21.655   8.031  1.00  0.00     0.015 C 
BRANCH  27  30
HETATM   30  C18 UNL     1      17.315  22.514   9.219  1.00  0.00     0.008 C 
BRANCH  30  31
HETATM   31  C19 UNL     1      17.618  23.127   7.891  1.00  0.00     0.001 C 
BRANCH  31  32
HETATM   32  C20 UNL     1      18.248  24.491   8.009  1.00  0.00     0.004 C 
BRANCH  32  33
HETATM   33  C21 UNL     1      18.351  25.215   6.686  1.00  0.00    -0.023 C 
HETATM   34  C22 UNL     1      19.683  25.931   6.646  1.00  0.00     0.009 C 
HETATM   35  C23 UNL     1      18.277  24.285   5.516  1.00  0.00     0.009 C 
ENDBRANCH  32  33
ENDBRANCH  31  32
ENDBRANCH  30  31
ENDBRANCH  27  30
ENDBRANCH  26  27
ENDBRANCH  25  26
ENDBRANCH   8  25
TORSDOF 15
ENDMDL
MODEL 4
REMARK VINA RESULT: -8.774517568      0.512      1.121
REMARK  15 active torsions:
REMARK  status: ('A' for Active; 'I' for Inactive)
REMARK    1  A    between atoms: C2_2  and  C3_3 
REMARK    2  A    between atoms: C3_3  and  O1_4 
REMARK    3  A    between atoms: C3_3  and  C4_6 
REMARK    4  A    between atoms: C3_3  and  O3_27 
REMARK    5  A    between atoms: C4_6  and  C5_7 
REMARK    6  A    between atoms: C5_7  and  C6_8 
REMARK    7  A    between atoms: C12_15  and  C13_16 
REMARK    8  A    between atoms: C13_16  and  C14_17 
REMARK    9  A    between atoms: C14_17  and  C15_18 
REMARK   10  A    between atoms: C15_18  and  C18_21 
REMARK   11  A    between atoms: C18_21  and  C19_22 
REMARK   12  A    between atoms: C19_22  and  C20_23 
REMARK   13  A    between atoms: C20_23  and  C21_24 
REMARK   14  A    between atoms: O3_27  and  C24_28 
REMARK   15  A    between atoms: C24_28  and  C25_29 
ROOT
HETATM    1  C6  UNL     1      14.522  16.092  11.602  1.00  0.00     0.015 C 
HETATM    2  C7  UNL     1      15.303  17.141  12.363  1.00  0.00     0.014 C 
HETATM    3  C8  UNL     1      16.442  17.566  11.435  1.00  0.00     0.015 C 
HETATM    4  C9  UNL     1      16.977  16.320  10.750  1.00  0.00     0.010 C 
HETATM    5  C10 UNL     1      15.953  15.988   9.657  1.00  0.00     0.033 C 
HETATM    6  C11 UNL     1      14.645  16.582  10.129  1.00  0.00     0.126 C 
HETATM    7  O2  UNL     1      14.620  17.972  10.069  1.00  0.00    -0.380 OA
HETATM    8  C12 UNL     1      15.901  18.449  10.330  1.00  0.00     0.126 C 
ENDROOT
BRANCH   1   9
HETATM    9  C5  UNL     1      13.117  15.967  11.997  1.00  0.00     0.013 C 
BRANCH   9  10
HETATM   10  C4  UNL     1      12.675  14.714  12.635  1.00  0.00     0.074 C 
BRANCH  10  11
HETATM   11  C3  UNL     1      12.697  14.565  14.102  1.00  0.00     0.185 C 
BRANCH  11  12
HETATM   12  C2  UNL     1      12.887  15.797  14.895  1.00  0.00     0.031 C 
HETATM   13  C1  UNL     1      13.944  15.997  15.680  1.00  0.00     0.012 C 
ENDBRANCH  11  12
BRANCH  11  14
HETATM   14  O1  UNL     1      13.956  13.836  14.370  1.00  0.00    -0.362 OA
ATOM     15  H1  UNL     1      13.633  12.989  14.654  1.00  0.00     0.213 HD
ENDBRANCH  11  14
BRANCH  11  16
HETATM   16  O3  UNL     1      11.782  13.716  14.620  1.00  0.00    -0.320 OA
BRANCH  16  17
HETATM   17  C24 UNL     1      11.126  12.773  13.965  1.00  0.00     0.169 C 
BRANCH  17  18
HETATM   18  C25 UNL     1       9.720  12.922  13.592  1.00  0.00     0.072 A 
HETATM   19  C26 UNL     1       9.199  12.749  12.316  1.00  0.00     0.120 A 
HETATM   20  N1  UNL     1       7.886  12.982  12.336  1.00  0.00    -0.360 N 
HETATM   21  C27 UNL     1       7.574  13.300  13.603  1.00  0.00     0.182 A 
ATOM     22  H1  UNL     1       7.245  12.930  11.545  1.00  0.00     0.166 HD
HETATM   23  N2  UNL     1       8.675  13.265  14.363  1.00  0.00    -0.345 N 
HETATM   24  C28 UNL     1       8.699  13.572  15.801  1.00  0.00     0.157 C 
ENDBRANCH  17  18
ENDBRANCH  16  17
ENDBRANCH  11  16
ENDBRANCH  10  11
ENDBRANCH   9  10
ENDBRANCH   1   9
BRANCH   8  25
HETATM   25  C13 UNL     1      15.915  19.904  10.709  1.00  0.00     0.033 C 
BRANCH  25  26
HETATM   26  C14 UNL     1      14.709  20.591  10.070  1.00  0.00     0.011 C 
BRANCH  26  27
HETATM   27  C15 UNL     1      15.091  21.858   9.380  1.00  0.00    -0.048 C 
HETATM   28  C16 UNL     1      14.727  23.086  10.194  1.00  0.00     0.015 C 
HETATM   29  C17 UNL     1      14.426  21.946   8.044  1.00  0.00     0.015 C 
BRANCH  27  30
HETATM   30  C18 UNL     1      16.595  21.891   9.234  1.00  0.00     0.008 C 
BRANCH  30  31
HETATM   31  C19 UNL     1      17.061  22.216   7.852  1.00  0.00     0.001 C 
BRANCH  31  32
HETATM   32  C20 UNL     1      18.312  23.056   7.842  1.00  0.00     0.004 C 
BRANCH  32  33
HETATM   33  C21 UNL     1      18.162  24.336   7.052  1.00  0.00    -0.023 C 
HETATM   34  C22 UNL     1      19.298  25.260   7.435  1.00  0.00     0.009 C 
HETATM   35  C23 UNL     1      18.212  24.109   5.574  1.00  0.00     0.009 C 
ENDBRANCH  32  33
ENDBRANCH  31  32
ENDBRANCH  30  31
ENDBRANCH  27  30
ENDBRANCH  26  27
ENDBRANCH  25  26
ENDBRANCH   8  25
TORSDOF 15
ENDMDL
MODEL 5
REMARK VINA RESULT: -8.744713797      4.857      6.638
REMARK  15 active torsions:
REMARK  status: ('A' for Active; 'I' for Inactive)
REMARK    1  A    between atoms: C2_2  and  C3_3 
REMARK    2  A    between atoms: C3_3  and  O1_4 
REMARK    3  A    between atoms: C3_3  and  C4_6 
REMARK    4  A    between atoms: C3_3  and  O3_27 
REMARK    5  A    between atoms: C4_6  and  C5_7 
REMARK    6  A    between atoms: C5_7  and  C6_8 
REMARK    7  A    between atoms: C12_15  and  C13_16 
REMARK    8  A    between atoms: C13_16  and  C14_17 
REMARK    9  A    between atoms: C14_17  and  C15_18 
REMARK   10  A    between atoms: C15_18  and  C18_21 
REMARK   11  A    between atoms: C18_21  and  C19_22 
REMARK   12  A    between atoms: C19_22  and  C20_23 
REMARK   13  A    between atoms: C20_23  and  C21_24 
REMARK   14  A    between atoms: O3_27  and  C24_28 
REMARK   15  A    between atoms: C24_28  and  C25_29 
ROOT
HETATM    1  C6  UNL     1      16.745  16.161  12.015  1.00  0.00     0.015 C 
HETATM    2  C7  UNL     1      17.168  16.715  10.672  1.00  0.00     0.014 C 
HETATM    3  C8  UNL     1      15.879  17.164   9.982  1.00  0.00     0.015 C 
HETATM    4  C9  UNL     1      14.810  16.123  10.266  1.00  0.00     0.010 C 
HETATM    5  C10 UNL     1      14.359  16.389  11.707  1.00  0.00     0.033 C 
HETATM    6  C11 UNL     1      15.530  17.062  12.385  1.00  0.00     0.126 C 
HETATM    7  O2  UNL     1      15.738  18.369  11.952  1.00  0.00    -0.380 OA
HETATM    8  C12 UNL     1      15.383  18.451  10.609  1.00  0.00     0.126 C 
ENDROOT
BRANCH   1   9
HETATM    9  C5  UNL     1      17.775  16.217  13.054  1.00  0.00     0.013 C 
BRANCH   9  10
HETATM   10  C4  UNL     1      17.381  16.632  14.413  1.00  0.00     0.074 C 
BRANCH  10  11
HETATM   11  C3  UNL     1      18.253  16.353  15.569  1.00  0.00     0.185 C 
BRANCH  11  12
HETATM   12  C2  UNL     1      19.371  15.413  15.351  1.00  0.00     0.031 C 
HETATM   13  C1  UNL     1      19.200  14.097  15.235  1.00  0.00     0.012 C 
ENDBRANCH  11  12
BRANCH  11  14
HETATM   14  O1  UNL     1      17.388  15.584  16.493  1.00  0.00    -0.362 OA
ATOM     15  H1  UNL     1      17.174  14.821  15.969  1.00  0.00     0.213 HD
ENDBRANCH  11  14
BRANCH  11  16
HETATM   16  O3  UNL     1      18.575  17.419  16.333  1.00  0.00    -0.320 OA
BRANCH  16  17
HETATM   17  C24 UNL     1      19.645  17.541  17.101  1.00  0.00     0.169 C 
BRANCH  17  18
HETATM   18  C25 UNL     1      19.903  18.744  17.890  1.00  0.00     0.072 A 
HETATM   19  C26 UNL     1      20.491  19.910  17.417  1.00  0.00     0.120 A 
HETATM   20  N1  UNL     1      20.589  20.794  18.411  1.00  0.00    -0.360 N 
HETATM   21  C27 UNL     1      20.074  20.202  19.500  1.00  0.00     0.182 A 
ATOM     22  H1  UNL     1      20.979  21.734  18.354  1.00  0.00     0.166 HD
HETATM   23  N2  UNL     1      19.660  18.968  19.192  1.00  0.00    -0.345 N 
HETATM   24  C28 UNL     1      19.054  18.032  20.152  1.00  0.00     0.157 C 
ENDBRANCH  17  18
ENDBRANCH  16  17
ENDBRANCH  11  16
ENDBRANCH  10  11
ENDBRANCH   9  10
ENDBRANCH   1   9
BRANCH   8  25
HETATM   25  C13 UNL     1      15.951  19.667   9.930  1.00  0.00     0.033 C 
BRANCH  25  26
HETATM   26  C14 UNL     1      15.259  20.910  10.487  1.00  0.00     0.011 C 
BRANCH  26  27
HETATM   27  C15 UNL     1      15.340  22.064   9.543  1.00  0.00    -0.048 C 
HETATM   28  C16 UNL     1      14.737  23.327  10.129  1.00  0.00     0.015 C 
HETATM   29  C17 UNL     1      14.642  21.740   8.261  1.00  0.00     0.015 C 
BRANCH  27  30
HETATM   30  C18 UNL     1      16.798  22.379   9.295  1.00  0.00     0.008 C 
BRANCH  30  31
HETATM   31  C19 UNL     1      17.027  23.699   8.634  1.00  0.00     0.001 C 
BRANCH  31  32
HETATM   32  C20 UNL     1      18.288  23.726   7.810  1.00  0.00     0.004 C 
BRANCH  32  33
HETATM   33  C21 UNL     1      18.299  24.832   6.779  1.00  0.00    -0.023 C 
HETATM   34  C22 UNL     1      19.563  25.641   6.973  1.00  0.00     0.009 C 
HETATM   35  C23 UNL     1      18.280  24.309   5.376  1.00  0.00     0.009 C 
ENDBRANCH  32  33
ENDBRANCH  31  32
ENDBRANCH  30  31
ENDBRANCH  27  30
ENDBRANCH  26  27
ENDBRANCH  25  26
ENDBRANCH   8  25
TORSDOF 15
ENDMDL
