MODEL 1
REMARK VINA RESULT: -8.022578970      0.000      0.000
REMARK  16 active torsions:
REMARK  status: ('A' for Active; 'I' for Inactive)
REMARK    1  A    between atoms: C2_2  and  C3_3 
REMARK    2  A    between atoms: C3_3  and  C5_5 
REMARK    3  A    between atoms: C5_5  and  O2_7 
REMARK    4  A    between atoms: O2_7  and  C6_8 
REMARK    5  A    between atoms: C6_8  and  C8_10 
REMARK    6  A    between atoms: C6_8  and  C25_30 
REMARK    7  A    between atoms: C8_10  and  O3_13 
REMARK    8  A    between atoms: O3_13  and  C11_14 
REMARK    9  A    between atoms: C11_14  and  C12_15 
REMARK   10  A    between atoms: C13_16  and  C15_18 
REMARK   11  A    between atoms: C15_18  and  C16_19 
REMARK   12  A    between atoms: C16_19  and  C17_20 
REMARK   13  A    between atoms: C18_21  and  C20_23 
REMARK   14  A    between atoms: C20_23  and  C21_24 
REMARK   15  A    between atoms: C21_24  and  C22_25 
REMARK   16  A    between atoms: C23_26  and  O4_28 
ROOT
HETATM    1  O3  UNL     1      14.747  20.958  10.961  1.00  0.00    -0.374 OA
ENDROOT
BRANCH   1   2
HETATM    2  C8  UNL     1      13.954  21.349   9.901  1.00  0.00     0.088 C 
HETATM    3  C9  UNL     1      14.532  20.704   8.658  1.00  0.00     0.049 C 
HETATM    4  C10 UNL     1      12.545  20.755  10.122  1.00  0.00     0.049 C 
BRANCH   2   5
HETATM    5  C6  UNL     1      13.819  22.851   9.795  1.00  0.00     0.130 C 
HETATM    6  C7  UNL     1      13.031  23.087   8.513  1.00  0.00     0.053 C 
BRANCH   5   7
HETATM    7  O2  UNL     1      14.982  23.489   9.895  1.00  0.00    -0.304 OA
BRANCH   7   8
HETATM    8  C5  UNL     1      15.872  24.145   9.160  1.00  0.00     0.263 C 
HETATM    9  O1  UNL     1      15.803  25.395   9.205  1.00  0.00    -0.265 OA
BRANCH   8  10
HETATM   10  C3  UNL     1      16.924  23.541   8.302  1.00  0.00     0.081 C 
HETATM   11  C4  UNL     1      17.788  24.617   7.662  1.00  0.00     0.020 C 
BRANCH  10  12
HETATM   12  C2  UNL     1      17.845  22.610   9.022  1.00  0.00     0.010 C 
HETATM   13  C1  UNL     1      18.185  21.393   8.206  1.00  0.00     0.006 C 
ENDBRANCH  10  12
ENDBRANCH   8  10
ENDBRANCH   7   8
ENDBRANCH   5   7
BRANCH   5  14
HETATM   14  C25 UNL     1      12.887  23.370  10.917  1.00  0.00     0.113 A 
HETATM   15  C26 UNL     1      11.492  23.823  10.519  1.00  0.00     0.051 C 
HETATM   16  C27 UNL     1      13.548  24.460  11.792  1.00  0.00     0.209 A 
HETATM   17  O5  UNL     1      13.241  23.205  12.234  1.00  0.00    -0.372 OA
ENDBRANCH   5  14
ENDBRANCH   2   5
ENDBRANCH   1   2
BRANCH   1  18
HETATM   18  C11 UNL     1      15.757  20.108  10.641  1.00  0.00     0.196 C 
BRANCH  18  19
HETATM   19  C12 UNL     1      15.883  18.854  11.377  1.00  0.00     0.001 C 
HETATM   20  C13 UNL     1      15.371  17.672  11.175  1.00  0.00    -0.085 C 
HETATM   21  C14 UNL     1      14.469  17.262  10.086  1.00  0.00     0.043 C 
BRANCH  20  22
HETATM   22  C15 UNL     1      15.728  16.524  12.133  1.00  0.00     0.037 C 
BRANCH  22  23
HETATM   23  C16 UNL     1      14.696  16.534  13.235  1.00  0.00     0.031 C 
BRANCH  23  24
HETATM   24  C17 UNL     1      14.034  15.246  13.419  1.00  0.00    -0.024 C 
HETATM   25  C18 UNL     1      13.474  14.900  14.590  1.00  0.00    -0.087 C 
HETATM   26  C19 UNL     1      13.547  15.888  15.716  1.00  0.00     0.043 C 
BRANCH  25  27
HETATM   27  C20 UNL     1      12.811  13.603  14.688  1.00  0.00     0.037 C 
BRANCH  27  28
HETATM   28  C21 UNL     1      11.622  13.562  15.603  1.00  0.00     0.034 C 
BRANCH  28  29
HETATM   29  C22 UNL     1      10.350  13.774  14.904  1.00  0.00     0.005 C 
HETATM   30  C23 UNL     1       9.200  13.637  15.567  1.00  0.00     0.035 C 
HETATM   31  C24 UNL     1       9.195  13.280  17.001  1.00  0.00     0.075 C 
BRANCH  30  32
HETATM   32  O4  UNL     1       7.983  13.838  14.893  1.00  0.00    -0.366 OA
ATOM     33  H4  UNL     1       7.316  14.390  15.284  1.00  0.00     0.217 HD
ENDBRANCH  30  32
ENDBRANCH  28  29
ENDBRANCH  27  28
ENDBRANCH  25  27
ENDBRANCH  23  24
ENDBRANCH  22  23
ENDBRANCH  20  22
ENDBRANCH  18  19
ENDBRANCH   1  18
TORSDOF 16
ENDMDL
MODEL 2
REMARK VINA RESULT: -7.976198371      1.033      1.627
REMARK  16 active torsions:
REMARK  status: ('A' for Active; 'I' for Inactive)
REMARK    1  A    between atoms: C2_2  and  C3_3 
REMARK    2  A    between atoms: C3_3  and  C5_5 
REMARK    3  A    between atoms: C5_5  and  O2_7 
REMARK    4  A    between atoms: O2_7  and  C6_8 
REMARK    5  A    between atoms: C6_8  and  C8_10 
REMARK    6  A    between atoms: C6_8  and  C25_30 
REMARK    7  A    between atoms: C8_10  and  O3_13 
REMARK    8  A    between atoms: O3_13  and  C11_14 
REMARK    9  A    between atoms: C11_14  and  C12_15 
REMARK   10  A    between atoms: C13_16  and  C15_18 
REMARK   11  A    between atoms: C15_18  and  C16_19 
REMARK   12  A    between atoms: C16_19  and  C17_20 
REMARK   13  A    between atoms: C18_21  and  C20_23 
REMARK   14  A    between atoms: C20_23  and  C21_24 
REMARK   15  A    between atoms: C21_24  and  C22_25 
REMARK   16  A    between atoms: C23_26  and  O4_28 
ROOT
HETATM    1  O3  UNL     1      13.043  20.447  10.259  1.00  0.00    -0.374 OA
ENDROOT
BRANCH   1   2
HETATM    2  C8  UNL     1      14.177  21.156   9.916  1.00  0.00     0.088 C 
HETATM    3  C9  UNL     1      15.243  20.798  10.932  1.00  0.00     0.049 C 
HETATM    4  C10 UNL     1      14.654  20.645   8.539  1.00  0.00     0.049 C 
BRANCH   2   5
HETATM    5  C6  UNL     1      13.926  22.643   9.804  1.00  0.00     0.130 C 
HETATM    6  C7  UNL     1      13.148  22.815   8.506  1.00  0.00     0.053 C 
BRANCH   5   7
HETATM    7  O2  UNL     1      15.032  23.372   9.927  1.00  0.00    -0.304 OA
BRANCH   7   8
HETATM    8  C5  UNL     1      15.903  24.065   9.204  1.00  0.00     0.263 C 
HETATM    9  O1  UNL     1      15.786  25.311   9.254  1.00  0.00    -0.265 OA
BRANCH   8  10
HETATM   10  C3  UNL     1      16.986  23.506   8.353  1.00  0.00     0.081 C 
HETATM   11  C4  UNL     1      17.804  24.618   7.714  1.00  0.00     0.020 C 
BRANCH  10  12
HETATM   12  C2  UNL     1      17.944  22.619   9.081  1.00  0.00     0.010 C 
HETATM   13  C1  UNL     1      18.177  21.317   8.366  1.00  0.00     0.006 C 
ENDBRANCH  10  12
ENDBRANCH   8  10
ENDBRANCH   7   8
ENDBRANCH   5   7
BRANCH   5  14
HETATM   14  C25 UNL     1      12.932  23.087  10.906  1.00  0.00     0.113 A 
HETATM   15  C26 UNL     1      11.480  23.284  10.504  1.00  0.00     0.051 C 
HETATM   16  C27 UNL     1      13.419  24.326  11.691  1.00  0.00     0.209 A 
HETATM   17  O5  UNL     1      13.319  23.073  12.224  1.00  0.00    -0.372 OA
ENDBRANCH   5  14
ENDBRANCH   2   5
ENDBRANCH   1   2
BRANCH   1  18
HETATM   18  C11 UNL     1      12.827  19.321   9.532  1.00  0.00     0.196 C 
BRANCH  18  19
HETATM   19  C12 UNL     1      12.492  18.084  10.232  1.00  0.00     0.001 C 
HETATM   20  C13 UNL     1      13.231  17.094  10.649  1.00  0.00    -0.085 C 
HETATM   21  C14 UNL     1      14.691  16.948  10.515  1.00  0.00     0.043 C 
BRANCH  20  22
HETATM   22  C15 UNL     1      12.570  15.925  11.397  1.00  0.00     0.037 C 
BRANCH  22  23
HETATM   23  C16 UNL     1      13.445  15.613  12.587  1.00  0.00     0.031 C 
BRANCH  23  24
HETATM   24  C17 UNL     1      12.831  14.680  13.528  1.00  0.00    -0.024 C 
HETATM   25  C18 UNL     1      12.916  14.858  14.856  1.00  0.00    -0.087 C 
HETATM   26  C19 UNL     1      13.667  16.058  15.353  1.00  0.00     0.043 C 
BRANCH  25  27
HETATM   27  C20 UNL     1      12.257  13.893  15.731  1.00  0.00     0.037 C 
BRANCH  27  28
HETATM   28  C21 UNL     1      11.287  12.973  15.049  1.00  0.00     0.034 C 
BRANCH  28  29
HETATM   29  C22 UNL     1       9.887  13.359  15.254  1.00  0.00     0.005 C 
HETATM   30  C23 UNL     1       9.040  13.347  14.222  1.00  0.00     0.035 C 
HETATM   31  C24 UNL     1       9.498  12.944  12.876  1.00  0.00     0.075 C 
BRANCH  30  32
HETATM   32  O4  UNL     1       7.700  13.721  14.421  1.00  0.00    -0.366 OA
ATOM     33  H4  UNL     1       7.039  13.444  13.796  1.00  0.00     0.217 HD
ENDBRANCH  30  32
ENDBRANCH  28  29
ENDBRANCH  27  28
ENDBRANCH  25  27
ENDBRANCH  23  24
ENDBRANCH  22  23
ENDBRANCH  20  22
ENDBRANCH  18  19
ENDBRANCH   1  18
TORSDOF 16
ENDMDL
MODEL 3
REMARK VINA RESULT: -7.911545791      1.799      2.644
REMARK  16 active torsions:
REMARK  status: ('A' for Active; 'I' for Inactive)
REMARK    1  A    between atoms: C2_2  and  C3_3 
REMARK    2  A    between atoms: C3_3  and  C5_5 
REMARK    3  A    between atoms: C5_5  and  O2_7 
REMARK    4  A    between atoms: O2_7  and  C6_8 
REMARK    5  A    between atoms: C6_8  and  C8_10 
REMARK    6  A    between atoms: C6_8  and  C25_30 
REMARK    7  A    between atoms: C8_10  and  O3_13 
REMARK    8  A    between atoms: O3_13  and  C11_14 
REMARK    9  A    between atoms: C11_14  and  C12_15 
REMARK   10  A    between atoms: C13_16  and  C15_18 
REMARK   11  A    between atoms: C15_18  and  C16_19 
REMARK   12  A    between atoms: C16_19  and  C17_20 
REMARK   13  A    between atoms: C18_21  and  C20_23 
REMARK   14  A    between atoms: C20_23  and  C21_24 
REMARK   15  A    between atoms: C21_24  and  C22_25 
REMARK   16  A    between atoms: C23_26  and  O4_28 
ROOT
HETATM    1  O3  UNL     1      13.779  21.634  10.660  1.00  0.00    -0.374 OA
ENDROOT
BRANCH   1   2
HETATM    2  C8  UNL     1      12.922  22.715  10.600  1.00  0.00     0.088 C 
HETATM    3  C9  UNL     1      11.700  22.263   9.826  1.00  0.00     0.049 C 
HETATM    4  C10 UNL     1      12.469  23.038  12.041  1.00  0.00     0.049 C 
BRANCH   2   5
HETATM    5  C6  UNL     1      13.578  23.950  10.025  1.00  0.00     0.130 C 
HETATM    6  C7  UNL     1      12.884  24.181   8.690  1.00  0.00     0.053 C 
BRANCH   5   7
HETATM    7  O2  UNL     1      14.906  23.870   9.992  1.00  0.00    -0.304 OA
BRANCH   7   8
HETATM    8  C5  UNL     1      15.917  23.765   9.137  1.00  0.00     0.263 C 
HETATM    9  O1  UNL     1      16.521  24.830   8.873  1.00  0.00    -0.265 OA
BRANCH   8  10
HETATM   10  C3  UNL     1      16.388  22.520   8.476  1.00  0.00     0.081 C 
HETATM   11  C4  UNL     1      17.352  22.839   7.343  1.00  0.00     0.020 C 
BRANCH  10  12
HETATM   12  C2  UNL     1      17.085  21.565   9.390  1.00  0.00     0.010 C 
HETATM   13  C1  UNL     1      17.674  20.393   8.655  1.00  0.00     0.006 C 
ENDBRANCH  10  12
ENDBRANCH   8  10
ENDBRANCH   7   8
ENDBRANCH   5   7
BRANCH   5  14
HETATM   14  C25 UNL     1      13.192  25.187  10.875  1.00  0.00     0.113 A 
HETATM   15  C26 UNL     1      11.781  25.730  10.723  1.00  0.00     0.051 C 
HETATM   16  C27 UNL     1      14.205  26.347  10.741  1.00  0.00     0.209 A 
HETATM   17  O5  UNL     1      14.025  25.615  11.880  1.00  0.00    -0.372 OA
ENDBRANCH   5  14
ENDBRANCH   2   5
ENDBRANCH   1   2
BRANCH   1  18
HETATM   18  C11 UNL     1      13.412  20.566   9.906  1.00  0.00     0.196 C 
BRANCH  18  19
HETATM   19  C12 UNL     1      14.239  19.363   9.938  1.00  0.00     0.001 C 
HETATM   20  C13 UNL     1      13.930  18.096   9.937  1.00  0.00    -0.085 C 
HETATM   21  C14 UNL     1      12.582  17.503   9.906  1.00  0.00     0.043 C 
BRANCH  20  22
HETATM   22  C15 UNL     1      15.055  17.049   9.943  1.00  0.00     0.037 C 
BRANCH  22  23
HETATM   23  C16 UNL     1      15.926  17.347  11.140  1.00  0.00     0.031 C 
BRANCH  23  24
HETATM   24  C17 UNL     1      15.437  16.743  12.376  1.00  0.00    -0.024 C 
HETATM   25  C18 UNL     1      16.247  16.052  13.194  1.00  0.00    -0.087 C 
HETATM   26  C19 UNL     1      17.688  15.918  12.798  1.00  0.00     0.043 C 
BRANCH  25  27
HETATM   27  C20 UNL     1      15.687  15.498  14.424  1.00  0.00     0.037 C 
BRANCH  27  28
HETATM   28  C21 UNL     1      14.190  15.527  14.512  1.00  0.00     0.034 C 
BRANCH  28  29
HETATM   29  C22 UNL     1      13.607  14.224  14.849  1.00  0.00     0.005 C 
HETATM   30  C23 UNL     1      12.647  13.710  14.079  1.00  0.00     0.035 C 
HETATM   31  C24 UNL     1      12.167  14.438  12.885  1.00  0.00     0.075 C 
BRANCH  30  32
HETATM   32  O4  UNL     1      12.089  12.462  14.406  1.00  0.00    -0.366 OA
ATOM     33  H4  UNL     1      12.037  11.783  13.743  1.00  0.00     0.217 HD
ENDBRANCH  30  32
ENDBRANCH  28  29
ENDBRANCH  27  28
ENDBRANCH  25  27
ENDBRANCH  23  24
ENDBRANCH  22  23
ENDBRANCH  20  22
ENDBRANCH  18  19
ENDBRANCH   1  18
TORSDOF 16
ENDMDL
MODEL 4
REMARK VINA RESULT: -7.886336972      2.335      4.548
REMARK  16 active torsions:
REMARK  status: ('A' for Active; 'I' for Inactive)
REMARK    1  A    between atoms: C2_2  and  C3_3 
REMARK    2  A    between atoms: C3_3  and  C5_5 
REMARK    3  A    between atoms: C5_5  and  O2_7 
REMARK    4  A    between atoms: O2_7  and  C6_8 
REMARK    5  A    between atoms: C6_8  and  C8_10 
REMARK    6  A    between atoms: C6_8  and  C25_30 
REMARK    7  A    between atoms: C8_10  and  O3_13 
REMARK    8  A    between atoms: O3_13  and  C11_14 
REMARK    9  A    between atoms: C11_14  and  C12_15 
REMARK   10  A    between atoms: C13_16  and  C15_18 
REMARK   11  A    between atoms: C15_18  and  C16_19 
REMARK   12  A    between atoms: C16_19  and  C17_20 
REMARK   13  A    between atoms: C18_21  and  C20_23 
REMARK   14  A    between atoms: C20_23  and  C21_24 
REMARK   15  A    between atoms: C21_24  and  C22_25 
REMARK   16  A    between atoms: C23_26  and  O4_28 
ROOT
HETATM    1  O3  UNL     1      13.031  20.285   9.544  1.00  0.00    -0.374 OA
ENDROOT
BRANCH   1   2
HETATM    2  C8  UNL     1      13.374  21.620   9.637  1.00  0.00     0.088 C 
HETATM    3  C9  UNL     1      14.428  21.727  10.720  1.00  0.00     0.049 C 
HETATM    4  C10 UNL     1      14.033  22.031   8.301  1.00  0.00     0.049 C 
BRANCH   2   5
HETATM    5  C6  UNL     1      12.178  22.516   9.867  1.00  0.00     0.130 C 
HETATM    6  C7  UNL     1      12.290  22.960  11.318  1.00  0.00     0.053 C 
BRANCH   5   7
HETATM    7  O2  UNL     1      11.026  21.953   9.512  1.00  0.00    -0.304 OA
BRANCH   7   8
HETATM    8  C5  UNL     1       9.983  21.312  10.026  1.00  0.00     0.263 C 
HETATM    9  O1  UNL     1       9.835  20.125   9.655  1.00  0.00    -0.265 OA
BRANCH   8  10
HETATM   10  C3  UNL     1       8.991  21.866  10.985  1.00  0.00     0.081 C 
HETATM   11  C4  UNL     1       8.125  22.925  10.319  1.00  0.00     0.020 C 
BRANCH  10  12
HETATM   12  C2  UNL     1       8.068  20.848  11.571  1.00  0.00     0.010 C 
HETATM   13  C1  UNL     1       6.877  21.473  12.244  1.00  0.00     0.006 C 
ENDBRANCH  10  12
ENDBRANCH   8  10
ENDBRANCH   7   8
ENDBRANCH   5   7
BRANCH   5  14
HETATM   14  C25 UNL     1      12.344  23.824   9.054  1.00  0.00     0.113 A 
HETATM   15  C26 UNL     1      13.171  24.937   9.676  1.00  0.00     0.051 C 
HETATM   16  C27 UNL     1      10.998  24.400   8.560  1.00  0.00     0.209 A 
HETATM   17  O5  UNL     1      11.950  23.869   7.739  1.00  0.00    -0.372 OA
ENDBRANCH   5  14
ENDBRANCH   2   5
ENDBRANCH   1   2
BRANCH   1  18
HETATM   18  C11 UNL     1      14.075  19.419   9.587  1.00  0.00     0.196 C 
BRANCH  18  19
HETATM   19  C12 UNL     1      13.820  18.023   9.933  1.00  0.00     0.001 C 
HETATM   20  C13 UNL     1      14.396  17.220  10.783  1.00  0.00    -0.085 C 
HETATM   21  C14 UNL     1      15.530  17.520  11.673  1.00  0.00     0.043 C 
BRANCH  20  22
HETATM   22  C15 UNL     1      13.863  15.786  10.942  1.00  0.00     0.037 C 
BRANCH  22  23
HETATM   23  C16 UNL     1      12.731  15.847  11.939  1.00  0.00     0.031 C 
BRANCH  23  24
HETATM   24  C17 UNL     1      12.558  14.608  12.693  1.00  0.00    -0.024 C 
HETATM   25  C18 UNL     1      12.833  14.536  14.006  1.00  0.00    -0.087 C 
HETATM   26  C19 UNL     1      13.328  15.779  14.684  1.00  0.00     0.043 C 
BRANCH  25  27
HETATM   27  C20 UNL     1      12.613  13.267  14.694  1.00  0.00     0.037 C 
BRANCH  27  28
HETATM   28  C21 UNL     1      11.403  13.224  15.580  1.00  0.00     0.034 C 
BRANCH  28  29
HETATM   29  C22 UNL     1      10.160  13.547  14.871  1.00  0.00     0.005 C 
HETATM   30  C23 UNL     1       9.011  13.613  15.547  1.00  0.00     0.035 C 
HETATM   31  C24 UNL     1       8.979  13.370  17.004  1.00  0.00     0.075 C 
BRANCH  30  32
HETATM   32  O4  UNL     1       7.822  13.920  14.864  1.00  0.00    -0.366 OA
ATOM     33  H4  UNL     1       7.342  14.709  15.089  1.00  0.00     0.217 HD
ENDBRANCH  30  32
ENDBRANCH  28  29
ENDBRANCH  27  28
ENDBRANCH  25  27
ENDBRANCH  23  24
ENDBRANCH  22  23
ENDBRANCH  20  22
ENDBRANCH  18  19
ENDBRANCH   1  18
TORSDOF 16
ENDMDL
MODEL 5
REMARK VINA RESULT: -7.854742638      1.126      1.410
REMARK  16 active torsions:
REMARK  status: ('A' for Active; 'I' for Inactive)
REMARK    1  A    between atoms: C2_2  and  C3_3 
REMARK    2  A    between atoms: C3_3  and  C5_5 
REMARK    3  A    between atoms: C5_5  and  O2_7 
REMARK    4  A    between atoms: O2_7  and  C6_8 
REMARK    5  A    between atoms: C6_8  and  C8_10 
REMARK    6  A    between atoms: C6_8  and  C25_30 
REMARK    7  A    between atoms: C8_10  and  O3_13 
REMARK    8  A    between atoms: O3_13  and  C11_14 
REMARK    9  A    between atoms: C11_14  and  C12_15 
REMARK   10  A    between atoms: C13_16  and  C15_18 
REMARK   11  A    between atoms: C15_18  and  C16_19 
REMARK   12  A    between atoms: C16_19  and  C17_20 
REMARK   13  A    between atoms: C18_21  and  C20_23 
REMARK   14  A    between atoms: C20_23  and  C21_24 
REMARK   15  A    between atoms: C21_24  and  C22_25 
REMARK   16  A    between atoms: C23_26  and  O4_28 
ROOT
HETATM    1  O3  UNL     1      14.205  21.437  10.672  1.00  0.00    -0.374 OA
ENDROOT
BRANCH   1   2
HETATM    2  C8  UNL     1      13.241  22.420  10.565  1.00  0.00     0.088 C 
HETATM    3  C9  UNL     1      12.059  21.799   9.849  1.00  0.00     0.049 C 
HETATM    4  C10 UNL     1      12.781  22.787  11.994  1.00  0.00     0.049 C 
BRANCH   2   5
HETATM    5  C6  UNL     1      13.758  23.676   9.901  1.00  0.00     0.130 C 
HETATM    6  C7  UNL     1      13.023  23.749   8.570  1.00  0.00     0.053 C 
BRANCH   5   7
HETATM    7  O2  UNL     1      15.086  23.729   9.843  1.00  0.00    -0.304 OA
BRANCH   7   8
HETATM    8  C5  UNL     1      16.087  23.712   8.971  1.00  0.00     0.263 C 
HETATM    9  O1  UNL     1      16.618  24.820   8.728  1.00  0.00    -0.265 OA
BRANCH   8  10
HETATM   10  C3  UNL     1      16.626  22.518   8.268  1.00  0.00     0.081 C 
HETATM   11  C4  UNL     1      17.572  22.928   7.149  1.00  0.00     0.020 C 
BRANCH  10  12
HETATM   12  C2  UNL     1      17.373  21.571   9.150  1.00  0.00     0.010 C 
HETATM   13  C1  UNL     1      18.000  20.442   8.379  1.00  0.00     0.006 C 
ENDBRANCH  10  12
ENDBRANCH   8  10
ENDBRANCH   7   8
ENDBRANCH   5   7
BRANCH   5  14
HETATM   14  C25 UNL     1      13.261  24.919  10.680  1.00  0.00     0.113 A 
HETATM   15  C26 UNL     1      11.836  25.381  10.430  1.00  0.00     0.051 C 
HETATM   16  C27 UNL     1      14.219  26.126  10.561  1.00  0.00     0.209 A 
HETATM   17  O5  UNL     1      14.011  25.425  11.714  1.00  0.00    -0.372 OA
ENDBRANCH   5  14
ENDBRANCH   2   5
ENDBRANCH   1   2
BRANCH   1  18
HETATM   18  C11 UNL     1      13.996  20.340   9.900  1.00  0.00     0.196 C 
BRANCH  18  19
HETATM   19  C12 UNL     1      14.505  19.049  10.356  1.00  0.00     0.001 C 
HETATM   20  C13 UNL     1      14.000  17.848  10.300  1.00  0.00    -0.085 C 
HETATM   21  C14 UNL     1      12.702  17.447   9.732  1.00  0.00     0.043 C 
BRANCH  20  22
HETATM   22  C15 UNL     1      14.814  16.666  10.851  1.00  0.00     0.037 C 
BRANCH  22  23
HETATM   23  C16 UNL     1      14.526  16.587  12.332  1.00  0.00     0.031 C 
BRANCH  23  24
HETATM   24  C17 UNL     1      13.917  15.323  12.736  1.00  0.00    -0.024 C 
HETATM   25  C18 UNL     1      13.759  14.997  14.030  1.00  0.00    -0.087 C 
HETATM   26  C19 UNL     1      14.230  15.981  15.060  1.00  0.00     0.043 C 
BRANCH  25  27
HETATM   27  C20 UNL     1      13.120  13.724  14.354  1.00  0.00     0.037 C 
BRANCH  27  28
HETATM   28  C21 UNL     1      12.085  13.789  15.438  1.00  0.00     0.034 C 
BRANCH  28  29
HETATM   29  C22 UNL     1      10.731  14.026  14.927  1.00  0.00     0.005 C 
HETATM   30  C23 UNL     1       9.676  13.631  15.642  1.00  0.00     0.035 C 
HETATM   31  C24 UNL     1       9.858  12.961  16.947  1.00  0.00     0.075 C 
BRANCH  30  32
HETATM   32  O4  UNL     1       8.380  13.858  15.149  1.00  0.00    -0.366 OA
ATOM     33  H4  UNL     1       7.739  14.294  15.697  1.00  0.00     0.217 HD
ENDBRANCH  30  32
ENDBRANCH  28  29
ENDBRANCH  27  28
ENDBRANCH  25  27
ENDBRANCH  23  24
ENDBRANCH  22  23
ENDBRANCH  20  22
ENDBRANCH  18  19
ENDBRANCH   1  18
TORSDOF 16
ENDMDL
