MODEL 1
REMARK VINA RESULT: -7.722112975      0.000      0.000
REMARK  3 active torsions:
REMARK  status: ('A' for Active; 'I' for Inactive)
REMARK    1  A    between atoms: C4_5  and  N2_6 
REMARK    2  A    between atoms: N2_6  and  C5_8 
REMARK    3  A    between atoms: C18_30  and  N5_31 
ROOT
HETATM    1  N1  UNL     1      10.123 -13.504  22.045  1.00  0.00    -0.191 NA
HETATM    2  C1  UNL     1       9.952 -14.633  22.275  1.00  0.00     0.102 C 
HETATM    3  C2  UNL     1       9.767 -16.006  22.564  1.00  0.00     0.075 C 
HETATM    4  C3  UNL     1      10.723 -16.620  23.389  1.00  0.00     0.073 C 
HETATM    5  C4  UNL     1      10.635 -17.822  24.074  1.00  0.00     0.107 C 
HETATM    6  N4  UNL     1       9.631 -18.724  23.933  1.00  0.00    -0.341 N 
ATOM      7  H4  UNL     1       9.463 -19.346  24.723  1.00  0.00     0.167 HD
HETATM    8  C9  UNL     1       8.836 -18.884  22.864  1.00  0.00     0.065 A 
HETATM    9  C10 UNL     1       8.352 -17.937  21.978  1.00  0.00     0.095 A 
HETATM   10  C11 UNL     1       7.507 -18.274  20.947  1.00  0.00     0.303 A 
HETATM   11  O3  UNL     1       7.101 -17.378  20.180  1.00  0.00    -0.259 OA
HETATM   12  O4  UNL     1       7.162 -19.541  20.817  1.00  0.00    -0.274 OA
HETATM   13  C12 UNL     1       7.593 -20.488  21.629  1.00  0.00     0.092 A 
HETATM   14  C13 UNL     1       7.176 -21.793  21.410  1.00  0.00     0.041 A 
HETATM   15  C14 UNL     1       7.633 -22.774  22.260  1.00  0.00     0.045 A 
HETATM   16  C15 UNL     1       8.484 -22.470  23.303  1.00  0.00     0.117 A 
HETATM   17  F1  UNL     1       8.925 -23.448  24.131  1.00  0.00    -0.206 F 
HETATM   18  C16 UNL     1       8.910 -21.175  23.538  1.00  0.00     0.059 A 
HETATM   19  C17 UNL     1       8.457 -20.189  22.695  1.00  0.00     0.029 A 
HETATM   20  C18 UNL     1       8.640 -16.577  21.982  1.00  0.00     0.065 C 
ENDROOT
BRANCH  20  21
HETATM   21  N5  UNL     1       7.785 -15.818  21.394  1.00  0.00    -0.397 N 
ATOM     22  H52 UNL     1       7.494 -14.989  21.910  1.00  0.00     0.156 HD
ATOM     23  H51 UNL     1       7.447 -16.075  20.466  1.00  0.00     0.156 HD
ENDBRANCH  20  21
BRANCH   5  24
HETATM   24  N2  UNL     1      11.559 -18.076  24.883  1.00  0.00    -0.338 N 
ATOM     25  H2  UNL     1      11.362 -17.838  25.855  1.00  0.00     0.167 HD
BRANCH  24  26
HETATM   26  C5  UNL     1      12.815 -18.635  24.649  1.00  0.00     0.107 A 
HETATM   27  C6  UNL     1      13.284 -19.024  23.476  1.00  0.00     0.109 A 
HETATM   28  C7  UNL     1      14.647 -19.559  23.652  1.00  0.00     0.250 A 
HETATM   29  O1  UNL     1      15.409 -20.018  22.788  1.00  0.00    -0.268 OA
HETATM   30  N3  UNL     1      14.954 -19.454  25.057  1.00  0.00    -0.289 N 
HETATM   31  C8  UNL     1      13.813 -18.877  25.687  1.00  0.00     0.275 A 
ATOM     32  H3  UNL     1      15.822 -19.739  25.512  1.00  0.00     0.172 HD
HETATM   33  O2  UNL     1      13.762 -18.650  26.924  1.00  0.00    -0.266 OA
ENDBRANCH  24  26
ENDBRANCH   5  24
TORSDOF 3
ENDMDL
MODEL 2
REMARK VINA RESULT: -5.941870353      5.002      7.354
REMARK  3 active torsions:
REMARK  status: ('A' for Active; 'I' for Inactive)
REMARK    1  A    between atoms: C4_5  and  N2_6 
REMARK    2  A    between atoms: N2_6  and  C5_8 
REMARK    3  A    between atoms: C18_30  and  N5_31 
ROOT
HETATM    1  N1  UNL     1       8.585 -26.246  19.583  1.00  0.00    -0.191 NA
HETATM    2  C1  UNL     1       8.656 -25.098  19.764  1.00  0.00     0.102 C 
HETATM    3  C2  UNL     1       8.757 -23.701  19.966  1.00  0.00     0.075 C 
HETATM    4  C3  UNL     1       9.350 -22.949  18.940  1.00  0.00     0.073 C 
HETATM    5  C4  UNL     1       9.301 -21.580  18.726  1.00  0.00     0.107 C 
HETATM    6  N4  UNL     1       8.780 -20.677  19.596  1.00  0.00    -0.341 N 
ATOM      7  H4  UNL     1       8.450 -19.799  19.197  1.00  0.00     0.167 HD
HETATM    8  C9  UNL     1       8.654 -20.818  20.924  1.00  0.00     0.065 A 
HETATM    9  C10 UNL     1       8.390 -21.955  21.667  1.00  0.00     0.095 A 
HETATM   10  C11 UNL     1       8.255 -21.913  23.035  1.00  0.00     0.303 A 
HETATM   11  O3  UNL     1       8.016 -22.969  23.652  1.00  0.00    -0.259 OA
HETATM   12  O4  UNL     1       8.387 -20.745  23.635  1.00  0.00    -0.274 OA
HETATM   13  C12 UNL     1       8.640 -19.628  22.979  1.00  0.00     0.092 A 
HETATM   14  C13 UNL     1       8.763 -18.448  23.699  1.00  0.00     0.041 A 
HETATM   15  C14 UNL     1       9.031 -17.288  23.008  1.00  0.00     0.045 A 
HETATM   16  C15 UNL     1       9.174 -17.297  21.635  1.00  0.00     0.117 A 
HETATM   17  F1  UNL     1       9.439 -16.145  20.970  1.00  0.00    -0.206 F 
HETATM   18  C16 UNL     1       9.055 -18.463  20.900  1.00  0.00     0.059 A 
HETATM   19  C17 UNL     1       8.786 -19.624  21.583  1.00  0.00     0.029 A 
HETATM   20  C18 UNL     1       8.244 -23.248  21.177  1.00  0.00     0.065 C 
ENDROOT
BRANCH  20  21
HETATM   21  N5  UNL     1       7.584 -24.062  21.922  1.00  0.00    -0.397 N 
ATOM     22  H52 UNL     1       7.121 -24.832  21.441  1.00  0.00     0.156 HD
ATOM     23  H51 UNL     1       7.554 -23.901  22.929  1.00  0.00     0.156 HD
ENDBRANCH  20  21
BRANCH   5  24
HETATM   24  N2  UNL     1       9.772 -21.163  17.641  1.00  0.00    -0.338 N 
ATOM     25  H2  UNL     1       9.199 -20.476  17.153  1.00  0.00     0.167 HD
BRANCH  24  26
HETATM   26  C5  UNL     1      10.966 -21.502  17.005  1.00  0.00     0.107 A 
HETATM   27  C6  UNL     1      11.737 -22.535  17.300  1.00  0.00     0.109 A 
HETATM   28  C7  UNL     1      12.903 -22.543  16.398  1.00  0.00     0.250 A 
HETATM   29  O1  UNL     1      13.843 -23.352  16.366  1.00  0.00    -0.268 OA
HETATM   30  N3  UNL     1      12.759 -21.405  15.525  1.00  0.00    -0.289 N 
HETATM   31  C8  UNL     1      11.549 -20.749  15.899  1.00  0.00     0.275 A 
ATOM     32  H3  UNL     1      13.400 -21.122  14.783  1.00  0.00     0.172 HD
HETATM   33  O2  UNL     1      11.135 -19.710  15.321  1.00  0.00    -0.266 OA
ENDBRANCH  24  26
ENDBRANCH   5  24
TORSDOF 3
ENDMDL
MODEL 3
REMARK VINA RESULT: -5.795422216      2.819      5.318
REMARK  3 active torsions:
REMARK  status: ('A' for Active; 'I' for Inactive)
REMARK    1  A    between atoms: C4_5  and  N2_6 
REMARK    2  A    between atoms: N2_6  and  C5_8 
REMARK    3  A    between atoms: C18_30  and  N5_31 
ROOT
HETATM    1  N1  UNL     1       8.165 -22.043  23.150  1.00  0.00    -0.191 NA
HETATM    2  C1  UNL     1       8.501 -20.936  23.019  1.00  0.00     0.102 C 
HETATM    3  C2  UNL     1       8.931 -19.595  22.870  1.00  0.00     0.075 C 
HETATM    4  C3  UNL     1      10.305 -19.346  23.009  1.00  0.00     0.073 C 
HETATM    5  C4  UNL     1      11.030 -18.231  22.618  1.00  0.00     0.107 C 
HETATM    6  N4  UNL     1      10.487 -17.075  22.158  1.00  0.00    -0.341 N 
ATOM      7  H4  UNL     1      11.079 -16.501  21.558  1.00  0.00     0.167 HD
HETATM    8  C9  UNL     1       9.254 -16.608  22.408  1.00  0.00     0.065 A 
HETATM    9  C10 UNL     1       8.071 -17.302  22.589  1.00  0.00     0.095 A 
HETATM   10  C11 UNL     1       6.876 -16.656  22.801  1.00  0.00     0.303 A 
HETATM   11  O3  UNL     1       5.841 -17.333  22.957  1.00  0.00    -0.259 OA
HETATM   12  O4  UNL     1       6.882 -15.337  22.831  1.00  0.00    -0.274 OA
HETATM   13  C12 UNL     1       7.979 -14.622  22.667  1.00  0.00     0.092 A 
HETATM   14  C13 UNL     1       7.884 -13.238  22.716  1.00  0.00     0.041 A 
HETATM   15  C14 UNL     1       9.034 -12.500  22.548  1.00  0.00     0.045 A 
HETATM   16  C15 UNL     1      10.249 -13.118  22.334  1.00  0.00     0.117 A 
HETATM   17  F1  UNL     1      11.372 -12.377  22.170  1.00  0.00    -0.206 F 
HETATM   18  C16 UNL     1      10.363 -14.496  22.281  1.00  0.00     0.059 A 
HETATM   19  C17 UNL     1       9.220 -15.239  22.448  1.00  0.00     0.029 A 
HETATM   20  C18 UNL     1       7.915 -18.684  22.599  1.00  0.00     0.065 C 
ENDROOT
BRANCH  20  21
HETATM   21  N5  UNL     1       6.734 -19.120  22.339  1.00  0.00    -0.397 N 
ATOM     22  H52 UNL     1       6.183 -19.424  23.141  1.00  0.00     0.156 HD
ATOM     23  H51 UNL     1       6.414 -19.144  21.370  1.00  0.00     0.156 HD
ENDBRANCH  20  21
BRANCH   5  24
HETATM   24  N2  UNL     1      12.278 -18.315  22.698  1.00  0.00    -0.338 N 
ATOM     25  H2  UNL     1      12.786 -18.078  21.846  1.00  0.00     0.167 HD
BRANCH  24  26
HETATM   26  C5  UNL     1      13.075 -18.686  23.781  1.00  0.00     0.107 A 
HETATM   27  C6  UNL     1      12.873 -18.349  25.044  1.00  0.00     0.109 A 
HETATM   28  C7  UNL     1      13.935 -18.940  25.879  1.00  0.00     0.250 A 
HETATM   29  O1  UNL     1      14.086 -18.849  27.107  1.00  0.00    -0.268 OA
HETATM   30  N3  UNL     1      14.803 -19.671  24.989  1.00  0.00    -0.289 N 
HETATM   31  C8  UNL     1      14.270 -19.517  23.675  1.00  0.00     0.275 A 
ATOM     32  H3  UNL     1      15.637 -20.197  25.250  1.00  0.00     0.172 HD
HETATM   33  O2  UNL     1      14.803 -20.040  22.662  1.00  0.00    -0.266 OA
ENDBRANCH  24  26
ENDBRANCH   5  24
TORSDOF 3
ENDMDL
MODEL 4
REMARK VINA RESULT: -5.659738233      0.877      1.299
REMARK  3 active torsions:
REMARK  status: ('A' for Active; 'I' for Inactive)
REMARK    1  A    between atoms: C4_5  and  N2_6 
REMARK    2  A    between atoms: N2_6  and  C5_8 
REMARK    3  A    between atoms: C18_30  and  N5_31 
ROOT
HETATM    1  N1  UNL     1       9.759 -13.449  21.851  1.00  0.00    -0.191 NA
HETATM    2  C1  UNL     1       9.638 -14.574  22.130  1.00  0.00     0.102 C 
HETATM    3  C2  UNL     1       9.514 -15.939  22.480  1.00  0.00     0.075 C 
HETATM    4  C3  UNL     1      10.466 -16.460  23.371  1.00  0.00     0.073 C 
HETATM    5  C4  UNL     1      10.413 -17.631  24.111  1.00  0.00     0.107 C 
HETATM    6  N4  UNL     1       9.465 -18.593  23.976  1.00  0.00    -0.341 N 
ATOM      7  H4  UNL     1       9.298 -19.185  24.789  1.00  0.00     0.167 HD
HETATM    8  C9  UNL     1       8.725 -18.847  22.886  1.00  0.00     0.065 A 
HETATM    9  C10 UNL     1       8.230 -17.972  21.936  1.00  0.00     0.095 A 
HETATM   10  C11 UNL     1       7.448 -18.403  20.890  1.00  0.00     0.303 A 
HETATM   11  O3  UNL     1       7.028 -17.569  20.064  1.00  0.00    -0.259 OA
HETATM   12  O4  UNL     1       7.177 -19.693  20.810  1.00  0.00    -0.274 OA
HETATM   13  C12 UNL     1       7.623 -20.574  21.685  1.00  0.00     0.092 A 
HETATM   14  C13 UNL     1       7.285 -21.909  21.515  1.00  0.00     0.041 A 
HETATM   15  C14 UNL     1       7.758 -22.822  22.430  1.00  0.00     0.045 A 
HETATM   16  C15 UNL     1       8.546 -22.422  23.490  1.00  0.00     0.117 A 
HETATM   17  F1  UNL     1       9.004 -23.334  24.382  1.00  0.00    -0.206 F 
HETATM   18  C16 UNL     1       8.893 -21.095  23.676  1.00  0.00     0.059 A 
HETATM   19  C17 UNL     1       8.424 -20.178  22.767  1.00  0.00     0.029 A 
HETATM   20  C18 UNL     1       8.445 -16.599  21.883  1.00  0.00     0.065 C 
ENDROOT
BRANCH  20  21
HETATM   21  N5  UNL     1       7.576 -15.917  21.224  1.00  0.00    -0.397 N 
ATOM     22  H52 UNL     1       7.863 -15.606  20.297  1.00  0.00     0.156 HD
ATOM     23  H51 UNL     1       6.669 -15.724  21.649  1.00  0.00     0.156 HD
ENDBRANCH  20  21
BRANCH   5  24
HETATM   24  N2  UNL     1      11.314 -17.795  24.968  1.00  0.00    -0.338 N 
ATOM     25  H2  UNL     1      11.091 -17.456  25.904  1.00  0.00     0.167 HD
BRANCH  24  26
HETATM   26  C5  UNL     1      12.576 -18.372  24.829  1.00  0.00     0.107 A 
HETATM   27  C6  UNL     1      13.528 -18.385  25.747  1.00  0.00     0.109 A 
HETATM   28  C7  UNL     1      14.707 -19.091  25.212  1.00  0.00     0.250 A 
HETATM   29  O1  UNL     1      15.792 -19.306  25.773  1.00  0.00    -0.268 OA
HETATM   30  N3  UNL     1      14.370 -19.505  23.873  1.00  0.00    -0.289 N 
HETATM   31  C8  UNL     1      13.038 -19.058  23.627  1.00  0.00     0.275 A 
ATOM     32  H3  UNL     1      14.969 -20.018  23.226  1.00  0.00     0.172 HD
HETATM   33  O2  UNL     1      12.444 -19.264  22.536  1.00  0.00    -0.266 OA
ENDBRANCH  24  26
ENDBRANCH   5  24
TORSDOF 3
ENDMDL
MODEL 5
REMARK VINA RESULT: -4.730353951      1.062      1.633
REMARK  3 active torsions:
REMARK  status: ('A' for Active; 'I' for Inactive)
REMARK    1  A    between atoms: C4_5  and  N2_6 
REMARK    2  A    between atoms: N2_6  and  C5_8 
REMARK    3  A    between atoms: C18_30  and  N5_31 
ROOT
HETATM    1  N1  UNL     1      10.581 -14.017  22.920  1.00  0.00    -0.191 NA
HETATM    2  C1  UNL     1      10.333 -15.153  22.865  1.00  0.00     0.102 C 
HETATM    3  C2  UNL     1      10.053 -16.539  22.804  1.00  0.00     0.075 C 
HETATM    4  C3  UNL     1      10.993 -17.406  23.384  1.00  0.00     0.073 C 
HETATM    5  C4  UNL     1      10.843 -18.737  23.743  1.00  0.00     0.107 C 
HETATM    6  N4  UNL     1       9.766 -19.505  23.440  1.00  0.00    -0.341 N 
ATOM      7  H4  UNL     1       9.585 -20.298  24.054  1.00  0.00     0.167 HD
HETATM    8  C9  UNL     1       8.914 -19.331  22.417  1.00  0.00     0.065 A 
HETATM    9  C10 UNL     1       8.467 -18.158  21.835  1.00  0.00     0.095 A 
HETATM   10  C11 UNL     1       7.553 -18.161  20.808  1.00  0.00     0.303 A 
HETATM   11  O3  UNL     1       7.186 -17.074  20.322  1.00  0.00    -0.259 OA
HETATM   12  O4  UNL     1       7.105 -19.327  20.380  1.00  0.00    -0.274 OA
HETATM   13  C12 UNL     1       7.496 -20.477  20.895  1.00  0.00     0.092 A 
HETATM   14  C13 UNL     1       6.969 -21.651  20.377  1.00  0.00     0.041 A 
HETATM   15  C14 UNL     1       7.385 -22.847  20.918  1.00  0.00     0.045 A 
HETATM   16  C15 UNL     1       8.302 -22.878  21.949  1.00  0.00     0.117 A 
HETATM   17  F1  UNL     1       8.702 -24.064  22.470  1.00  0.00    -0.206 F 
HETATM   18  C16 UNL     1       8.839 -21.718  22.479  1.00  0.00     0.059 A 
HETATM   19  C17 UNL     1       8.427 -20.521  21.945  1.00  0.00     0.029 A 
HETATM   20  C18 UNL     1       8.861 -16.867  22.168  1.00  0.00     0.065 C 
ENDROOT
BRANCH  20  21
HETATM   21  N5  UNL     1       8.042 -15.928  21.848  1.00  0.00    -0.397 N 
ATOM     22  H52 UNL     1       7.676 -15.373  22.620  1.00  0.00     0.156 HD
ATOM     23  H51 UNL     1       7.804 -15.789  20.865  1.00  0.00     0.156 HD
ENDBRANCH  20  21
BRANCH   5  24
HETATM   24  N2  UNL     1      11.778 -19.250  24.401  1.00  0.00    -0.338 N 
ATOM     25  H2  UNL     1      11.537 -20.100  24.910  1.00  0.00     0.167 HD
BRANCH  24  26
HETATM   26  C5  UNL     1      13.101 -18.830  24.540  1.00  0.00     0.107 A 
HETATM   27  C6  UNL     1      13.560 -18.007  25.468  1.00  0.00     0.109 A 
HETATM   28  C7  UNL     1      15.008 -17.814  25.271  1.00  0.00     0.250 A 
HETATM   29  O1  UNL     1      15.787 -17.116  25.938  1.00  0.00    -0.268 OA
HETATM   30  N3  UNL     1      15.380 -18.606  24.125  1.00  0.00    -0.289 N 
HETATM   31  C8  UNL     1      14.191 -19.244  23.662  1.00  0.00     0.275 A 
ATOM     32  H3  UNL     1      16.313 -18.692  23.722  1.00  0.00     0.172 HD
HETATM   33  O2  UNL     1      14.178 -20.013  22.666  1.00  0.00    -0.266 OA
ENDBRANCH  24  26
ENDBRANCH   5  24
TORSDOF 3
ENDMDL
