MODEL 1
REMARK VINA RESULT: 0.857953610      0.000      0.000
REMARK  1 active torsions:
REMARK  status: ('A' for Active; 'I' for Inactive)
REMARK    1  A    between atoms: C13_22  and  N5_23 
ROOT
HETATM    1  N5  UNL     1       8.481 -22.120  20.878  1.00  0.00    -0.375 N 
HETATM    2  C14 UNL     1       7.715 -23.041  21.693  1.00  0.00     0.143 C 
HETATM    3  C15 UNL     1       8.226 -24.459  21.514  1.00  0.00     0.154 C 
HETATM    4  N6  UNL     1       8.450 -24.745  20.112  1.00  0.00    -0.317 N 
HETATM    5  C16 UNL     1       8.936 -25.992  19.744  1.00  0.00     0.179 C 
HETATM    6  N7  UNL     1       9.329 -27.021  19.426  1.00  0.00    -0.172 NA
HETATM    7  C17 UNL     1       8.159 -23.719  19.116  1.00  0.00     0.154 C 
HETATM    8  C18 UNL     1       8.911 -22.474  19.537  1.00  0.00     0.143 C 
ENDROOT
BRANCH   1   9
HETATM    9  C13 UNL     1       8.840 -20.835  21.363  1.00  0.00     0.070 A 
HETATM   10  C12 UNL     1      10.120 -20.388  21.184  1.00  0.00     0.035 A 
HETATM   11  C11 UNL     1      10.441 -19.150  21.658  1.00  0.00     0.032 A 
HETATM   12  C10 UNL     1       9.515 -18.304  22.324  1.00  0.00     0.041 A 
HETATM   13  N1  UNL     1      10.010 -17.041  22.754  1.00  0.00    -0.383 N 
HETATM   14  C9  UNL     1       8.228 -18.761  22.500  1.00  0.00     0.035 A 
HETATM   15  C1  UNL     1      11.279 -17.057  23.499  1.00  0.00     0.149 C 
HETATM   16  C2  UNL     1       9.413 -15.738  22.519  1.00  0.00     0.150 C 
HETATM   17  C3  UNL     1       9.648 -14.750  23.603  1.00  0.00     0.252 C 
HETATM   18  N2  UNL     1       8.537 -14.391  24.412  1.00  0.00    -0.072 N 
HETATM   19  C4  UNL     1       7.536 -13.707  23.628  1.00  0.00     0.251 C 
ATOM     20  H22 UNL     1       8.148 -15.197  24.901  1.00  0.00     0.277 HD
ATOM     21  H21 UNL     1       8.821 -13.843  25.224  1.00  0.00     0.277 HD
HETATM   22  C5  UNL     1       6.124 -14.040  24.070  1.00  0.00     0.141 C 
HETATM   23  N3  UNL     1       6.026 -15.291  24.738  1.00  0.00    -0.418 N 
HETATM   24  C6  UNL     1       5.163 -16.261  24.115  1.00  0.00     0.141 C 
ATOM     25  H3  UNL     1       6.533 -15.488  25.600  1.00  0.00     0.153 HD
HETATM   26  C7  UNL     1       5.385 -16.465  22.667  1.00  0.00     0.251 C 
HETATM   27  N4  UNL     1       6.070 -17.680  22.305  1.00  0.00    -0.070 N 
HETATM   28  C8  UNL     1       7.132 -18.036  23.192  1.00  0.00     0.276 C 
ATOM     29  H42 UNL     1       5.409 -18.450  22.212  1.00  0.00     0.277 HD
ATOM     30  H41 UNL     1       6.409 -17.627  21.344  1.00  0.00     0.277 HD
HETATM   31  C19 UNL     1       7.919 -20.027  22.011  1.00  0.00     0.153 A 
HETATM   32  F1  UNL     1       6.641 -20.482  22.192  1.00  0.00    -0.203 F 
ENDBRANCH   1   9
TORSDOF 1
ENDMDL
MODEL 2
REMARK VINA RESULT: 2.489980966      1.992      8.228
REMARK  1 active torsions:
REMARK  status: ('A' for Active; 'I' for Inactive)
REMARK    1  A    between atoms: C13_22  and  N5_23 
ROOT
HETATM    1  N5  UNL     1       8.606 -16.008  22.656  1.00  0.00    -0.375 N 
HETATM    2  C14 UNL     1       7.410 -15.454  23.258  1.00  0.00     0.143 C 
HETATM    3  C15 UNL     1       7.312 -13.966  22.971  1.00  0.00     0.154 C 
HETATM    4  N6  UNL     1       8.593 -13.323  23.178  1.00  0.00    -0.317 N 
HETATM    5  C16 UNL     1       8.712 -11.960  22.950  1.00  0.00     0.179 C 
HETATM    6  N7  UNL     1       8.821 -10.832  22.773  1.00  0.00    -0.172 NA
HETATM    7  C17 UNL     1       9.732 -14.121  23.624  1.00  0.00     0.154 C 
HETATM    8  C18 UNL     1       9.861 -15.278  22.656  1.00  0.00     0.143 C 
ENDROOT
BRANCH   1   9
HETATM    9  C13 UNL     1       8.593 -17.287  22.040  1.00  0.00     0.070 A 
HETATM   10  C12 UNL     1       9.100 -17.426  20.778  1.00  0.00     0.035 A 
HETATM   11  C11 UNL     1       9.077 -18.665  20.209  1.00  0.00     0.032 A 
HETATM   12  C10 UNL     1       8.556 -19.815  20.859  1.00  0.00     0.041 A 
HETATM   13  N1  UNL     1       8.610 -21.033  20.127  1.00  0.00    -0.383 N 
HETATM   14  C9  UNL     1       8.046 -19.667  22.130  1.00  0.00     0.035 A 
HETATM   15  C1  UNL     1       8.108 -20.987  18.745  1.00  0.00     0.149 C 
HETATM   16  C2  UNL     1       9.125 -22.312  20.586  1.00  0.00     0.150 C 
HETATM   17  C3  UNL     1       8.439 -23.495  20.006  1.00  0.00     0.252 C 
HETATM   18  N2  UNL     1       7.607 -24.257  20.870  1.00  0.00    -0.072 N 
HETATM   19  C4  UNL     1       8.389 -24.875  21.914  1.00  0.00     0.251 C 
ATOM     20  H22 UNL     1       6.844 -23.698  21.250  1.00  0.00     0.277 HD
ATOM     21  H21 UNL     1       7.054 -24.942  20.356  1.00  0.00     0.277 HD
HETATM   22  C5  UNL     1       7.647 -24.939  23.235  1.00  0.00     0.141 C 
HETATM   23  N3  UNL     1       6.628 -23.955  23.354  1.00  0.00    -0.418 N 
HETATM   24  C6  UNL     1       6.784 -23.029  24.445  1.00  0.00     0.141 C 
ATOM     25  H3  UNL     1       5.840 -23.909  22.709  1.00  0.00     0.153 HD
HETATM   26  C7  UNL     1       8.120 -22.405  24.556  1.00  0.00     0.251 C 
HETATM   27  N4  UNL     1       8.207 -21.032  24.123  1.00  0.00    -0.070 N 
HETATM   28  C8  UNL     1       7.438 -20.740  22.956  1.00  0.00     0.276 C 
ATOM     29  H42 UNL     1       7.958 -20.401  24.884  1.00  0.00     0.277 HD
ATOM     30  H41 UNL     1       9.181 -20.761  23.987  1.00  0.00     0.277 HD
HETATM   31  C19 UNL     1       8.078 -18.395  22.695  1.00  0.00     0.153 A 
HETATM   32  F1  UNL     1       7.566 -18.249  23.956  1.00  0.00    -0.203 F 
ENDBRANCH   1   9
TORSDOF 1
ENDMDL
MODEL 3
REMARK VINA RESULT: 3.421796736      2.489      4.631
REMARK  1 active torsions:
REMARK  status: ('A' for Active; 'I' for Inactive)
REMARK    1  A    between atoms: C13_22  and  N5_23 
ROOT
HETATM    1  N5  UNL     1       7.958 -18.884  21.346  1.00  0.00    -0.375 N 
HETATM    2  C14 UNL     1       7.157 -19.404  20.257  1.00  0.00     0.143 C 
HETATM    3  C15 UNL     1       6.998 -20.909  20.386  1.00  0.00     0.154 C 
HETATM    4  N6  UNL     1       8.266 -21.527  20.713  1.00  0.00    -0.317 N 
HETATM    5  C16 UNL     1       8.324 -22.902  20.889  1.00  0.00     0.179 C 
HETATM    6  N7  UNL     1       8.386 -24.039  21.029  1.00  0.00    -0.172 NA
HETATM    7  C17 UNL     1       9.457 -20.693  20.848  1.00  0.00     0.154 C 
HETATM    8  C18 UNL     1       9.117 -19.604  21.843  1.00  0.00     0.143 C 
ENDROOT
BRANCH   1   9
HETATM    9  C13 UNL     1       7.637 -17.651  21.970  1.00  0.00     0.070 A 
HETATM   10  C12 UNL     1       6.694 -17.628  22.961  1.00  0.00     0.035 A 
HETATM   11  C11 UNL     1       6.404 -16.431  23.545  1.00  0.00     0.032 A 
HETATM   12  C10 UNL     1       7.031 -15.210  23.179  1.00  0.00     0.041 A 
HETATM   13  N1  UNL     1       6.615 -14.049  23.889  1.00  0.00    -0.383 N 
HETATM   14  C9  UNL     1       7.978 -15.241  22.180  1.00  0.00     0.035 A 
HETATM   15  C1  UNL     1       5.164 -13.837  24.002  1.00  0.00     0.149 C 
HETATM   16  C2  UNL     1       7.465 -13.063  24.534  1.00  0.00     0.150 C 
HETATM   17  C3  UNL     1       6.916 -11.683  24.534  1.00  0.00     0.252 C 
HETATM   18  N2  UNL     1       7.550 -10.728  23.696  1.00  0.00    -0.072 N 
HETATM   19  C4  UNL     1       8.904 -10.485  24.135  1.00  0.00     0.251 C 
ATOM     20  H22 UNL     1       7.514 -11.002  22.715  1.00  0.00     0.277 HD
ATOM     21  H21 UNL     1       7.013  -9.863  23.633  1.00  0.00     0.277 HD
HETATM   22  C5  UNL     1       9.854 -10.238  22.979  1.00  0.00     0.141 C 
HETATM   23  N3  UNL     1       9.406 -10.804  21.755  1.00  0.00    -0.418 N 
HETATM   24  C6  UNL     1      10.281 -11.786  21.168  1.00  0.00     0.141 C 
ATOM     25  H3  UNL     1       8.524 -10.533  21.321  1.00  0.00     0.153 HD
HETATM   26  C7  UNL     1      10.744 -12.847  22.089  1.00  0.00     0.251 C 
HETATM   27  N4  UNL     1      10.117 -14.135  21.925  1.00  0.00    -0.070 N 
HETATM   28  C8  UNL     1       8.719 -14.070  21.644  1.00  0.00     0.276 C 
ATOM     29  H42 UNL     1      10.600 -14.680  21.211  1.00  0.00     0.277 HD
ATOM     30  H41 UNL     1      10.292 -14.724  22.739  1.00  0.00     0.277 HD
HETATM   31  C19 UNL     1       8.261 -16.471  21.595  1.00  0.00     0.153 A 
HETATM   32  F1  UNL     1       9.199 -16.499  20.599  1.00  0.00    -0.203 F 
ENDBRANCH   1   9
TORSDOF 1
ENDMDL
MODEL 4
REMARK VINA RESULT: 3.568999429      2.554      4.754
REMARK  1 active torsions:
REMARK  status: ('A' for Active; 'I' for Inactive)
REMARK    1  A    between atoms: C13_22  and  N5_23 
ROOT
HETATM    1  N5  UNL     1       7.846 -18.896  21.567  1.00  0.00    -0.375 N 
HETATM    2  C14 UNL     1       8.827 -19.775  22.168  1.00  0.00     0.143 C 
HETATM    3  C15 UNL     1       9.670 -20.441  21.096  1.00  0.00     0.154 C 
HETATM    4  N6  UNL     1       8.834 -20.920  20.015  1.00  0.00    -0.317 N 
HETATM    5  C16 UNL     1       9.423 -21.547  18.927  1.00  0.00     0.179 C 
HETATM    6  N7  UNL     1       9.899 -22.074  18.026  1.00  0.00    -0.172 NA
HETATM    7  C17 UNL     1       7.387 -20.735  20.093  1.00  0.00     0.154 C 
HETATM    8  C18 UNL     1       7.147 -19.263  20.348  1.00  0.00     0.143 C 
ENDROOT
BRANCH   1   9
HETATM    9  C13 UNL     1       7.532 -17.640  22.148  1.00  0.00     0.070 A 
HETATM   10  C12 UNL     1       6.569 -17.573  23.117  1.00  0.00     0.035 A 
HETATM   11  C11 UNL     1       6.286 -16.355  23.660  1.00  0.00     0.032 A 
HETATM   12  C10 UNL     1       6.939 -15.155  23.272  1.00  0.00     0.041 A 
HETATM   13  N1  UNL     1       6.527 -13.968  23.939  1.00  0.00    -0.383 N 
HETATM   14  C9  UNL     1       7.907 -15.230  22.295  1.00  0.00     0.035 A 
HETATM   15  C1  UNL     1       5.078 -13.731  24.015  1.00  0.00     0.149 C 
HETATM   16  C2  UNL     1       7.379 -12.977  24.573  1.00  0.00     0.150 C 
HETATM   17  C3  UNL     1       6.852 -11.589  24.522  1.00  0.00     0.252 C 
HETATM   18  N2  UNL     1       7.519 -10.668  23.670  1.00  0.00    -0.072 N 
HETATM   19  C4  UNL     1       8.867 -10.434  24.131  1.00  0.00     0.251 C 
ATOM     20  H22 UNL     1       7.499 -10.970  22.697  1.00  0.00     0.277 HD
ATOM     21  H21 UNL     1       6.997  -9.798  23.571  1.00  0.00     0.277 HD
HETATM   22  C5  UNL     1       9.845 -10.236  22.989  1.00  0.00     0.141 C 
HETATM   23  N3  UNL     1       9.414 -10.830  21.773  1.00  0.00    -0.418 N 
HETATM   24  C6  UNL     1      10.285 -11.842  21.234  1.00  0.00     0.141 C 
ATOM     25  H3  UNL     1       8.546 -10.558  21.312  1.00  0.00     0.153 HD
HETATM   26  C7  UNL     1      10.712 -12.883  22.194  1.00  0.00     0.251 C 
HETATM   27  N4  UNL     1      10.068 -14.165  22.054  1.00  0.00    -0.070 N 
HETATM   28  C8  UNL     1       8.677 -14.086  21.742  1.00  0.00     0.276 C 
ATOM     29  H42 UNL     1      10.557 -14.738  21.367  1.00  0.00     0.277 HD
ATOM     30  H41 UNL     1      10.217 -14.733  22.888  1.00  0.00     0.277 HD
HETATM   31  C19 UNL     1       8.182 -16.481  21.752  1.00  0.00     0.153 A 
HETATM   32  F1  UNL     1       9.140 -16.552  20.777  1.00  0.00    -0.203 F 
ENDBRANCH   1   9
TORSDOF 1
ENDMDL
MODEL 5
REMARK VINA RESULT: 3.665528321      3.585      6.126
REMARK  1 active torsions:
REMARK  status: ('A' for Active; 'I' for Inactive)
REMARK    1  A    between atoms: C13_22  and  N5_23 
ROOT
HETATM    1  N5  UNL     1       8.174 -17.307  22.126  1.00  0.00    -0.375 N 
HETATM    2  C14 UNL     1       8.858 -18.333  22.886  1.00  0.00     0.143 C 
HETATM    3  C15 UNL     1       9.493 -19.350  21.954  1.00  0.00     0.154 C 
HETATM    4  N6  UNL     1       8.569 -19.722  20.903  1.00  0.00    -0.317 N 
HETATM    5  C16 UNL     1       8.972 -20.633  19.937  1.00  0.00     0.179 C 
HETATM    6  N7  UNL     1       9.291 -21.391  19.138  1.00  0.00    -0.172 NA
HETATM    7  C17 UNL     1       7.233 -19.133  20.881  1.00  0.00     0.154 C 
HETATM    8  C18 UNL     1       7.417 -17.631  20.930  1.00  0.00     0.143 C 
ENDROOT
BRANCH   1   9
HETATM    9  C13 UNL     1       8.220 -15.945  22.522  1.00  0.00     0.070 A 
HETATM   10  C12 UNL     1       7.532 -15.550  23.636  1.00  0.00     0.035 A 
HETATM   11  C11 UNL     1       7.593 -14.236  23.996  1.00  0.00     0.032 A 
HETATM   12  C10 UNL     1       8.334 -13.261  23.276  1.00  0.00     0.041 A 
HETATM   13  N1  UNL     1       8.295 -11.934  23.788  1.00  0.00    -0.383 N 
HETATM   14  C9  UNL     1       9.023 -13.667  22.156  1.00  0.00     0.035 A 
HETATM   15  C1  UNL     1       6.963 -11.396  24.107  1.00  0.00     0.149 C 
HETATM   16  C2  UNL     1       9.426 -11.060  24.050  1.00  0.00     0.150 C 
HETATM   17  C3  UNL     1       9.144  -9.615  23.856  1.00  0.00     0.252 C 
HETATM   18  N2  UNL     1       9.744  -8.977  22.737  1.00  0.00    -0.072 N 
HETATM   19  C4  UNL     1      11.181  -8.963  22.869  1.00  0.00     0.251 C 
ATOM     20  H22 UNL     1       9.449  -9.401  21.857  1.00  0.00     0.277 HD
ATOM     21  H21 UNL     1       9.368  -8.041  22.589  1.00  0.00     0.277 HD
HETATM   22  C5  UNL     1      11.889  -9.130  21.539  1.00  0.00     0.141 C 
HETATM   23  N3  UNL     1      11.095  -9.786  20.560  1.00  0.00    -0.418 N 
HETATM   24  C6  UNL     1      11.633 -11.020  20.049  1.00  0.00     0.141 C 
ATOM     25  H3  UNL     1      10.203  -9.408  20.240  1.00  0.00     0.153 HD
HETATM   26  C7  UNL     1      12.086 -11.982  21.076  1.00  0.00     0.251 C 
HETATM   27  N4  UNL     1      11.220 -13.112  21.300  1.00  0.00    -0.070 N 
HETATM   28  C8  UNL     1       9.828 -12.794  21.263  1.00  0.00     0.276 C 
ATOM     29  H42 UNL     1      11.433 -13.863  20.643  1.00  0.00     0.277 HD
ATOM     30  H41 UNL     1      11.457 -13.577  22.176  1.00  0.00     0.277 HD
HETATM   31  C19 UNL     1       8.949 -15.011  21.803  1.00  0.00     0.153 A 
HETATM   32  F1  UNL     1       9.631 -15.412  20.685  1.00  0.00    -0.203 F 
ENDBRANCH   1   9
TORSDOF 1
ENDMDL
