MODEL 1
REMARK VINA RESULT: -2.428837906      0.000      0.000
REMARK  1 active torsions:
REMARK  status: ('A' for Active; 'I' for Inactive)
REMARK    1  A    between atoms: C10_18  and  C11_19 
REMARK       I    between atoms: C11_19  and  N3_21 
ROOT
HETATM    1  N1  UNL     1      12.253 -16.974  24.233  1.00  0.00    -0.386 N 
ATOM      2  H11 UNL     1      12.484 -17.571  25.027  1.00  0.00     0.157 HD
ATOM      3  H12 UNL     1      12.871 -16.166  24.305  1.00  0.00     0.157 HD
HETATM    4  C1  UNL     1      11.389 -17.179  23.339  1.00  0.00     0.119 C 
HETATM    5  N2  UNL     1      11.069 -16.353  22.239  1.00  0.00    -0.250 N 
ATOM      6  H2  UNL     1      11.526 -15.462  22.041  1.00  0.00     0.196 HD
HETATM    7  O1  UNL     1      10.083 -16.887  21.479  1.00  0.00    -0.236 OA
HETATM    8  C2  UNL     1       9.483 -17.873  22.253  1.00  0.00     0.230 C 
HETATM    9  O2  UNL     1       8.461 -17.275  22.967  1.00  0.00    -0.314 OA
HETATM   10  C3  UNL     1       7.585 -16.543  22.183  1.00  0.00     0.167 C 
HETATM   11  C4  UNL     1       6.192 -16.881  22.671  1.00  0.00     0.068 C 
HETATM   12  C5  UNL     1       5.812 -16.162  23.910  1.00  0.00     0.005 C 
HETATM   13  C6  UNL     1       6.961 -15.644  24.738  1.00  0.00     0.000 C 
HETATM   14  C7  UNL     1       7.933 -14.832  23.913  1.00  0.00     0.005 C 
HETATM   15  C8  UNL     1       7.727 -15.046  22.432  1.00  0.00     0.068 C 
HETATM   16  O3  UNL     1       7.785 -16.858  20.865  1.00  0.00    -0.354 OA
HETATM   17  C9  UNL     1       7.735 -18.226  20.630  1.00  0.00     0.191 C 
HETATM   18  C10 UNL     1       8.882 -18.902  21.367  1.00  0.00     0.168 C 
HETATM   19  C16 UNL     1      10.492 -18.352  23.234  1.00  0.00     0.216 C 
HETATM   20 CL1  UNL     1      11.457 -19.719  22.691  1.00  0.00    -0.111 Cl
ENDROOT
BRANCH  18  21
HETATM   21  C11 UNL     1       8.355 -20.080  22.060  1.00  0.00     0.231 C 
HETATM   22  O4  UNL     1       8.014 -19.959  23.264  1.00  0.00    -0.273 OA
HETATM   23  N3  UNL     1       8.204 -21.356  21.464  1.00  0.00    -0.348 N 
HETATM   24  C12 UNL     1       7.675 -22.498  22.186  1.00  0.00     0.153 C 
HETATM   25  C15 UNL     1       8.573 -21.612  20.069  1.00  0.00     0.153 C 
HETATM   26  C13 UNL     1       7.046 -23.434  21.170  1.00  0.00     0.252 C 
HETATM   27  N4  UNL     1       8.045 -23.993  20.271  1.00  0.00    -0.072 N 
HETATM   28  C14 UNL     1       9.094 -23.049  20.035  1.00  0.00     0.252 C 
ATOM     29  H42 UNL     1       8.407 -24.883  20.615  1.00  0.00     0.277 HD
ATOM     30  H41 UNL     1       7.629 -24.324  19.401  1.00  0.00     0.277 HD
ENDBRANCH  18  21
TORSDOF 1
ENDMDL
MODEL 2
REMARK VINA RESULT: -1.718114059      2.924      4.361
REMARK  1 active torsions:
REMARK  status: ('A' for Active; 'I' for Inactive)
REMARK    1  A    between atoms: C10_18  and  C11_19 
REMARK       I    between atoms: C11_19  and  N3_21 
ROOT
HETATM    1  N1  UNL     1       4.554 -14.446  24.052  1.00  0.00    -0.386 N 
ATOM      2  H11 UNL     1       3.836 -14.614  23.347  1.00  0.00     0.157 HD
ATOM      3  H12 UNL     1       4.124 -13.832  24.744  1.00  0.00     0.157 HD
HETATM    4  C1  UNL     1       5.731 -14.895  24.078  1.00  0.00     0.119 C 
HETATM    5  N2  UNL     1       6.725 -14.662  25.054  1.00  0.00    -0.250 N 
ATOM      6  H2  UNL     1       6.590 -14.079  25.880  1.00  0.00     0.196 HD
HETATM    7  O1  UNL     1       7.880 -15.306  24.759  1.00  0.00    -0.236 OA
HETATM    8  C2  UNL     1       7.797 -15.665  23.419  1.00  0.00     0.230 C 
HETATM    9  O2  UNL     1       8.316 -14.621  22.676  1.00  0.00    -0.314 OA
HETATM   10  C3  UNL     1       9.574 -14.214  23.088  1.00  0.00     0.167 C 
HETATM   11  C4  UNL     1      10.390 -14.012  21.829  1.00  0.00     0.068 C 
HETATM   12  C5  UNL     1      10.109 -12.727  21.144  1.00  0.00     0.005 C 
HETATM   13  C6  UNL     1       8.780 -12.094  21.475  1.00  0.00     0.000 C 
HETATM   14  C7  UNL     1       8.564 -11.976  22.966  1.00  0.00     0.005 C 
HETATM   15  C8  UNL     1       9.531 -12.839  23.743  1.00  0.00     0.068 C 
HETATM   16  O3  UNL     1      10.104 -15.158  23.928  1.00  0.00    -0.354 OA
HETATM   17  C9  UNL     1      10.083 -16.433  23.377  1.00  0.00     0.191 C 
HETATM   18  C10 UNL     1       8.638 -16.865  23.174  1.00  0.00     0.168 C 
HETATM   19  C16 UNL     1       6.356 -15.786  23.074  1.00  0.00     0.216 C 
HETATM   20 CL1  UNL     1       5.678 -17.395  23.287  1.00  0.00    -0.111 Cl
ENDROOT
BRANCH  18  21
HETATM   21  C11 UNL     1       8.512 -17.441  21.833  1.00  0.00     0.231 C 
HETATM   22  O4  UNL     1       8.390 -16.658  20.858  1.00  0.00    -0.273 OA
HETATM   23  N3  UNL     1       8.518 -18.831  21.557  1.00  0.00    -0.348 N 
HETATM   24  C12 UNL     1       8.393 -19.361  20.212  1.00  0.00     0.153 C 
HETATM   25  C15 UNL     1       8.651 -19.834  22.618  1.00  0.00     0.153 C 
HETATM   26  C13 UNL     1       9.074 -20.717  20.187  1.00  0.00     0.252 C 
HETATM   27  N4  UNL     1       8.378 -21.678  21.031  1.00  0.00    -0.072 N 
HETATM   28  C14 UNL     1       7.805 -21.026  22.169  1.00  0.00     0.252 C 
ATOM     29  H42 UNL     1       7.682 -22.207  20.506  1.00  0.00     0.277 HD
ATOM     30  H41 UNL     1       8.984 -22.452  21.303  1.00  0.00     0.277 HD
ENDBRANCH  18  21
TORSDOF 1
ENDMDL
MODEL 3
REMARK VINA RESULT: -1.488463108      1.256      1.459
REMARK  1 active torsions:
REMARK  status: ('A' for Active; 'I' for Inactive)
REMARK    1  A    between atoms: C10_18  and  C11_19 
REMARK       I    between atoms: C11_19  and  N3_21 
ROOT
HETATM    1  N1  UNL     1      12.439 -16.892  23.848  1.00  0.00    -0.386 N 
ATOM      2  H11 UNL     1      12.727 -17.133  24.797  1.00  0.00     0.157 HD
ATOM      3  H12 UNL     1      13.076 -16.155  23.544  1.00  0.00     0.157 HD
HETATM    4  C1  UNL     1      11.496 -17.391  23.177  1.00  0.00     0.119 C 
HETATM    5  N2  UNL     1      11.098 -17.057  21.864  1.00  0.00    -0.250 N 
ATOM      6  H2  UNL     1      11.552 -16.345  21.292  1.00  0.00     0.196 HD
HETATM    7  O1  UNL     1      10.039 -17.797  21.456  1.00  0.00    -0.236 OA
HETATM    8  C2  UNL     1       9.490 -18.360  22.603  1.00  0.00     0.230 C 
HETATM    9  O2  UNL     1       8.546 -17.474  23.088  1.00  0.00    -0.314 OA
HETATM   10  C3  UNL     1       7.619 -17.072  22.141  1.00  0.00     0.167 C 
HETATM   11  C4  UNL     1       6.268 -17.113  22.822  1.00  0.00     0.068 C 
HETATM   12  C5  UNL     1       6.010 -15.940  23.692  1.00  0.00     0.005 C 
HETATM   13  C6  UNL     1       7.237 -15.195  24.156  1.00  0.00     0.000 C 
HETATM   14  C7  UNL     1       8.149 -14.832  23.006  1.00  0.00     0.005 C 
HETATM   15  C8  UNL     1       7.811 -15.609  21.756  1.00  0.00     0.068 C 
HETATM   16  O3  UNL     1       7.697 -17.896  21.050  1.00  0.00    -0.354 OA
HETATM   17  C9  UNL     1       7.601 -19.240  21.389  1.00  0.00     0.191 C 
HETATM   18  C10 UNL     1       8.795 -19.624  22.251  1.00  0.00     0.168 C 
HETATM   19  C16 UNL     1      10.572 -18.459  23.618  1.00  0.00     0.216 C 
HETATM   20 CL1  UNL     1      11.459 -19.978  23.602  1.00  0.00    -0.111 Cl
ENDROOT
BRANCH  18  21
HETATM   21  C11 UNL     1       8.308 -20.398  23.396  1.00  0.00     0.231 C 
HETATM   22  O4  UNL     1       8.261 -19.834  24.518  1.00  0.00    -0.273 OA
HETATM   23  N3  UNL     1       7.885 -21.748  23.325  1.00  0.00    -0.348 N 
HETATM   24  C12 UNL     1       7.408 -22.479  24.484  1.00  0.00     0.153 C 
HETATM   25  C15 UNL     1       7.902 -22.504  22.070  1.00  0.00     0.153 C 
HETATM   26  C13 UNL     1       6.466 -23.562  23.989  1.00  0.00     0.252 C 
HETATM   27  N4  UNL     1       7.170 -24.554  23.190  1.00  0.00    -0.072 N 
HETATM   28  C14 UNL     1       8.238 -23.944  22.458  1.00  0.00     0.252 C 
ATOM     29  H42 UNL     1       7.498 -25.335  23.758  1.00  0.00     0.277 HD
ATOM     30  H41 UNL     1       6.535 -25.067  22.578  1.00  0.00     0.277 HD
ENDBRANCH  18  21
TORSDOF 1
ENDMDL
MODEL 4
REMARK VINA RESULT: 0.191392641      2.113      6.409
REMARK  1 active torsions:
REMARK  status: ('A' for Active; 'I' for Inactive)
REMARK    1  A    between atoms: C10_18  and  C11_19 
REMARK       I    between atoms: C11_19  and  N3_21 
ROOT
HETATM    1  N1  UNL     1       8.313 -23.736  24.350  1.00  0.00    -0.386 N 
ATOM      2  H11 UNL     1       9.151 -23.773  24.930  1.00  0.00     0.157 HD
ATOM      3  H12 UNL     1       7.846 -24.634  24.481  1.00  0.00     0.157 HD
HETATM    4  C1  UNL     1       7.921 -22.787  23.619  1.00  0.00     0.119 C 
HETATM    5  N2  UNL     1       6.760 -22.736  22.816  1.00  0.00    -0.250 N 
ATOM      6  H2  UNL     1       6.084 -23.496  22.738  1.00  0.00     0.196 HD
HETATM    7  O1  UNL     1       6.655 -21.556  22.160  1.00  0.00    -0.236 OA
HETATM    8  C2  UNL     1       7.909 -20.960  22.221  1.00  0.00     0.230 C 
HETATM    9  O2  UNL     1       8.624 -21.385  21.118  1.00  0.00    -0.314 OA
HETATM   10  C3  UNL     1       7.958 -21.206  19.917  1.00  0.00     0.167 C 
HETATM   11  C4  UNL     1       8.976 -20.653  18.942  1.00  0.00     0.068 C 
HETATM   12  C5  UNL     1       9.877 -21.689  18.382  1.00  0.00     0.005 C 
HETATM   13  C6  UNL     1       9.993 -22.956  19.192  1.00  0.00     0.000 C 
HETATM   14  C7  UNL     1       8.639 -23.537  19.532  1.00  0.00     0.005 C 
HETATM   15  C8  UNL     1       7.528 -22.537  19.311  1.00  0.00     0.068 C 
HETATM   16  O3  UNL     1       6.889 -20.371  20.110  1.00  0.00    -0.354 OA
HETATM   17  C9  UNL     1       7.249 -19.181  20.732  1.00  0.00     0.191 C 
HETATM   18  C10 UNL     1       7.762 -19.484  22.132  1.00  0.00     0.168 C 
HETATM   19  C16 UNL     1       8.598 -21.485  23.429  1.00  0.00     0.216 C 
HETATM   20 CL1  UNL     1       8.353 -20.534  24.889  1.00  0.00    -0.111 Cl
ENDROOT
BRANCH  18  21
HETATM   21  C11 UNL     1       8.998 -18.729  22.345  1.00  0.00     0.231 C 
HETATM   22  O4  UNL     1      10.093 -19.303  22.115  1.00  0.00    -0.273 OA
HETATM   23  N3  UNL     1       9.047 -17.387  22.796  1.00  0.00    -0.348 N 
HETATM   24  C12 UNL     1      10.295 -16.673  22.992  1.00  0.00     0.153 C 
HETATM   25  C15 UNL     1       7.833 -16.624  23.098  1.00  0.00     0.153 C 
HETATM   26  C13 UNL     1      10.010 -15.192  22.819  1.00  0.00     0.252 C 
HETATM   27  N4  UNL     1       9.129 -14.694  23.865  1.00  0.00    -0.072 N 
HETATM   28  C14 UNL     1       8.200 -15.706  24.265  1.00  0.00     0.252 C 
ATOM     29  H42 UNL     1       9.654 -14.327  24.659  1.00  0.00     0.277 HD
ATOM     30  H41 UNL     1       8.656 -13.835  23.585  1.00  0.00     0.277 HD
ENDBRANCH  18  21
TORSDOF 1
ENDMDL
MODEL 5
REMARK VINA RESULT: 0.217105757      3.876      7.219
REMARK  1 active torsions:
REMARK  status: ('A' for Active; 'I' for Inactive)
REMARK    1  A    between atoms: C10_18  and  C11_19 
REMARK       I    between atoms: C11_19  and  N3_21 
ROOT
HETATM    1  N1  UNL     1       6.522 -15.080  25.992  1.00  0.00    -0.386 N 
ATOM      2  H11 UNL     1       7.032 -14.612  26.741  1.00  0.00     0.157 HD
ATOM      3  H12 UNL     1       5.732 -15.543  26.442  1.00  0.00     0.157 HD
HETATM    4  C1  UNL     1       6.797 -15.093  24.762  1.00  0.00     0.119 C 
HETATM    5  N2  UNL     1       6.090 -15.741  23.724  1.00  0.00    -0.250 N 
ATOM      6  H2  UNL     1       5.243 -16.292  23.866  1.00  0.00     0.196 HD
HETATM    7  O1  UNL     1       6.674 -15.543  22.518  1.00  0.00    -0.236 OA
HETATM    8  C2  UNL     1       7.961 -15.083  22.777  1.00  0.00     0.230 C 
HETATM    9  O2  UNL     1       8.784 -16.189  22.873  1.00  0.00    -0.314 OA
HETATM   10  C3  UNL     1       8.686 -17.054  21.796  1.00  0.00     0.167 C 
HETATM   11  C4  UNL     1      10.102 -17.449  21.436  1.00  0.00     0.068 C 
HETATM   12  C5  UNL     1      10.668 -18.491  22.326  1.00  0.00     0.005 C 
HETATM   13  C6  UNL     1      10.006 -18.620  23.676  1.00  0.00     0.000 C 
HETATM   14  C7  UNL     1       8.506 -18.756  23.561  1.00  0.00     0.005 C 
HETATM   15  C8  UNL     1       8.010 -18.362  22.189  1.00  0.00     0.068 C 
HETATM   16  O3  UNL     1       8.024 -16.431  20.772  1.00  0.00    -0.354 OA
HETATM   17  C9  UNL     1       8.580 -15.199  20.449  1.00  0.00     0.191 C 
HETATM   18  C10 UNL     1       8.432 -14.258  21.635  1.00  0.00     0.168 C 
HETATM   19  C16 UNL     1       7.943 -14.422  24.109  1.00  0.00     0.216 C 
HETATM   20 CL1  UNL     1       7.605 -12.697  24.071  1.00  0.00    -0.111 Cl
ENDROOT
BRANCH  18  21
HETATM   21  C11 UNL     1       9.712 -13.582  21.852  1.00  0.00     0.231 C 
HETATM   22  O4  UNL     1      10.573 -14.153  22.568  1.00  0.00    -0.273 OA
HETATM   23  N3  UNL     1      10.051 -12.319  21.307  1.00  0.00    -0.348 N 
HETATM   24  C12 UNL     1      11.334 -11.684  21.544  1.00  0.00     0.153 C 
HETATM   25  C15 UNL     1       9.123 -11.562  20.462  1.00  0.00     0.153 C 
HETATM   26  C13 UNL     1      11.618 -10.766  20.369  1.00  0.00     0.252 C 
HETATM   27  N4  UNL     1      10.665  -9.667  20.310  1.00  0.00    -0.072 N 
HETATM   28  C14 UNL     1       9.381 -10.089  20.779  1.00  0.00     0.252 C 
ATOM     29  H42 UNL     1      11.002  -8.847  20.814  1.00  0.00     0.277 HD
ATOM     30  H41 UNL     1      10.613  -9.261  19.376  1.00  0.00     0.277 HD
ENDBRANCH  18  21
TORSDOF 1
ENDMDL
