MODEL 1
REMARK VINA RESULT: -7.244429029      0.000      0.000
REMARK  6 active torsions:
REMARK  status: ('A' for Active; 'I' for Inactive)
REMARK    1  A    between atoms: C2_2  and  C4_4 
REMARK    2  A    between atoms: C5_6  and  C7_8 
REMARK    3  A    between atoms: C16_20  and  C17_21 
REMARK    4  A    between atoms: C17_21  and  O5_22 
REMARK    5  A    between atoms: O5_22  and  C18_23 
REMARK    6  A    between atoms: C22_28  and  O7_29 
ROOT
HETATM    1  C7  UNL     1       9.453  -3.047  26.595  1.00  0.00     0.070 C 
HETATM    2  C8  UNL     1       9.644  -4.527  26.372  1.00  0.00     0.028 C 
HETATM    3  C9  UNL     1      10.687  -2.266  26.274  1.00  0.00     0.207 C 
HETATM    4  O2  UNL     1      10.718  -1.233  25.533  1.00  0.00    -0.288 OA
HETATM    5  C10 UNL     1      11.939  -2.725  26.856  1.00  0.00     0.206 C 
HETATM    6  O3  UNL     1      13.021  -2.703  26.256  1.00  0.00    -0.288 OA
HETATM    7  C11 UNL     1      11.841  -3.230  28.245  1.00  0.00     0.048 C 
HETATM    8  C12 UNL     1      12.724  -2.268  29.073  1.00  0.00     0.026 C 
HETATM    9  C13 UNL     1      12.589  -4.553  28.344  1.00  0.00     0.026 C 
HETATM   10  C14 UNL     1      10.516  -3.235  28.813  1.00  0.00     0.151 C 
HETATM   11  O4  UNL     1      10.259  -2.098  29.619  1.00  0.00    -0.383 OA
HETATM   12  C15 UNL     1       9.667  -1.432  28.529  1.00  0.00     0.183 C 
HETATM   13  C16 UNL     1       9.283  -2.831  28.039  1.00  0.00     0.048 C 
ENDROOT
BRANCH   1  14
HETATM   14  C5  UNL     1       8.418  -2.580  25.633  1.00  0.00     0.079 C 
HETATM   15  O1  UNL     1       8.901  -2.611  24.314  1.00  0.00    -0.367 OA
HETATM   16  C4  UNL     1       7.857  -2.305  23.484  1.00  0.00     0.179 C 
HETATM   17  C22 UNL     1       6.705  -3.030  24.110  1.00  0.00     0.158 C 
HETATM   18  C20 UNL     1       7.125  -3.233  25.582  1.00  0.00     0.049 C 
HETATM   19  C21 UNL     1       6.778  -4.585  25.921  1.00  0.00     0.016 C 
HETATM   20  C6  UNL     1       8.096  -1.067  25.783  1.00  0.00     0.048 C 
BRANCH  16  21
HETATM   21  C2  UNL     1       8.050  -2.751  22.098  1.00  0.00    -0.062 C 
HETATM   22  C1  UNL     1       8.300  -1.957  21.068  1.00  0.00     0.016 C 
HETATM   23  C3  UNL     1       7.960  -4.206  21.801  1.00  0.00     0.045 C 
ENDBRANCH  16  21
BRANCH  17  24
HETATM   24  O7  UNL     1       5.491  -2.431  23.961  1.00  0.00    -0.392 OA
ATOM     25  H7  UNL     1       5.098  -2.105  24.762  1.00  0.00     0.210 HD
ENDBRANCH  17  24
ENDBRANCH   1  14
BRANCH  13  26
HETATM   26  C17 UNL     1       8.138  -3.277  28.860  1.00  0.00     0.194 C 
BRANCH  26  27
HETATM   27  O5  UNL     1       6.940  -2.533  28.742  1.00  0.00    -0.321 OA
BRANCH  27  28
HETATM   28  C18 UNL     1       5.761  -2.915  29.332  1.00  0.00     0.254 C 
HETATM   29  C19 UNL     1       4.585  -3.329  28.532  1.00  0.00     0.126 C 
HETATM   30  O6  UNL     1       5.645  -2.925  30.586  1.00  0.00    -0.266 OA
ENDBRANCH  27  28
ENDBRANCH  26  27
ENDBRANCH  13  26
TORSDOF 6
ENDMDL
MODEL 2
REMARK VINA RESULT: -7.223207514      1.402      2.203
REMARK  6 active torsions:
REMARK  status: ('A' for Active; 'I' for Inactive)
REMARK    1  A    between atoms: C2_2  and  C4_4 
REMARK    2  A    between atoms: C5_6  and  C7_8 
REMARK    3  A    between atoms: C16_20  and  C17_21 
REMARK    4  A    between atoms: C17_21  and  O5_22 
REMARK    5  A    between atoms: O5_22  and  C18_23 
REMARK    6  A    between atoms: C22_28  and  O7_29 
ROOT
HETATM    1  C7  UNL     1       8.957  -3.252  26.290  1.00  0.00     0.070 C 
HETATM    2  C8  UNL     1       8.665  -4.694  26.625  1.00  0.00     0.028 C 
HETATM    3  C9  UNL     1      10.417  -3.012  26.067  1.00  0.00     0.207 C 
HETATM    4  O2  UNL     1      10.905  -2.403  25.064  1.00  0.00    -0.288 OA
HETATM    5  C10 UNL     1      11.338  -3.511  27.077  1.00  0.00     0.206 C 
HETATM    6  O3  UNL     1      12.438  -4.010  26.811  1.00  0.00    -0.288 OA
HETATM    7  C11 UNL     1      10.871  -3.381  28.476  1.00  0.00     0.048 C 
HETATM    8  C12 UNL     1      11.895  -2.436  29.144  1.00  0.00     0.026 C 
HETATM    9  C13 UNL     1      11.101  -4.702  29.199  1.00  0.00     0.026 C 
HETATM   10  C14 UNL     1       9.554  -2.818  28.643  1.00  0.00     0.151 C 
HETATM   11  O4  UNL     1       9.583  -1.430  28.932  1.00  0.00    -0.383 OA
HETATM   12  C15 UNL     1       9.420  -1.121  27.568  1.00  0.00     0.183 C 
HETATM   13  C16 UNL     1       8.660  -2.448  27.483  1.00  0.00     0.048 C 
ENDROOT
BRANCH   1  14
HETATM   14  C5  UNL     1       8.296  -2.953  24.991  1.00  0.00     0.079 C 
HETATM   15  O1  UNL     1       6.919  -3.225  25.049  1.00  0.00    -0.367 OA
HETATM   16  C4  UNL     1       6.362  -2.798  23.875  1.00  0.00     0.179 C 
HETATM   17  C22 UNL     1       7.084  -1.512  23.608  1.00  0.00     0.158 C 
HETATM   18  C20 UNL     1       8.399  -1.630  24.410  1.00  0.00     0.049 C 
HETATM   19  C21 UNL     1       8.593  -0.365  25.063  1.00  0.00     0.016 C 
HETATM   20  C6  UNL     1       8.731  -3.923  23.857  1.00  0.00     0.048 C 
BRANCH  16  21
HETATM   21  C2  UNL     1       4.915  -2.564  23.953  1.00  0.00    -0.062 C 
HETATM   22  C1  UNL     1       4.103  -2.444  22.914  1.00  0.00     0.016 C 
HETATM   23  C3  UNL     1       4.285  -2.448  25.296  1.00  0.00     0.045 C 
ENDBRANCH  16  21
BRANCH  17  24
HETATM   24  O7  UNL     1       7.265  -1.208  22.294  1.00  0.00    -0.392 OA
ATOM     25  H7  UNL     1       7.477  -1.945  21.732  1.00  0.00     0.210 HD
ENDBRANCH  17  24
ENDBRANCH   1  14
BRANCH  13  26
HETATM   26  C17 UNL     1       7.324  -2.219  28.072  1.00  0.00     0.194 C 
BRANCH  26  27
HETATM   27  O5  UNL     1       6.979  -3.009  29.195  1.00  0.00    -0.321 OA
BRANCH  27  28
HETATM   28  C18 UNL     1       5.694  -3.115  29.667  1.00  0.00     0.254 C 
HETATM   29  C19 UNL     1       4.575  -3.550  28.798  1.00  0.00     0.126 C 
HETATM   30  O6  UNL     1       5.427  -2.843  30.867  1.00  0.00    -0.266 OA
ENDBRANCH  27  28
ENDBRANCH  26  27
ENDBRANCH  13  26
TORSDOF 6
ENDMDL
MODEL 3
REMARK VINA RESULT: -7.139084579      1.674      5.471
REMARK  6 active torsions:
REMARK  status: ('A' for Active; 'I' for Inactive)
REMARK    1  A    between atoms: C2_2  and  C4_4 
REMARK    2  A    between atoms: C5_6  and  C7_8 
REMARK    3  A    between atoms: C16_20  and  C17_21 
REMARK    4  A    between atoms: C17_21  and  O5_22 
REMARK    5  A    between atoms: O5_22  and  C18_23 
REMARK    6  A    between atoms: C22_28  and  O7_29 
ROOT
HETATM    1  C7  UNL     1      10.255  -2.474  26.813  1.00  0.00     0.070 C 
HETATM    2  C8  UNL     1       9.666  -1.270  27.506  1.00  0.00     0.028 C 
HETATM    3  C9  UNL     1      11.214  -2.088  25.731  1.00  0.00     0.207 C 
HETATM    4  O2  UNL     1      12.385  -2.565  25.597  1.00  0.00    -0.288 OA
HETATM    5  C10 UNL     1      10.767  -1.096  24.766  1.00  0.00     0.206 C 
HETATM    6  O3  UNL     1      11.501  -0.213  24.303  1.00  0.00    -0.288 OA
HETATM    7  C11 UNL     1       9.348  -1.206  24.357  1.00  0.00     0.048 C 
HETATM    8  C12 UNL     1       9.400  -1.503  22.842  1.00  0.00     0.026 C 
HETATM    9  C13 UNL     1       8.707   0.174  24.415  1.00  0.00     0.026 C 
HETATM   10  C14 UNL     1       8.596  -2.254  25.002  1.00  0.00     0.151 C 
HETATM   11  O4  UNL     1       8.511  -3.432  24.218  1.00  0.00    -0.383 OA
HETATM   12  C15 UNL     1       9.626  -3.979  24.881  1.00  0.00     0.183 C 
HETATM   13  C16 UNL     1       9.170  -3.142  26.080  1.00  0.00     0.048 C 
ENDROOT
BRANCH   1  14
HETATM   14  C5  UNL     1      11.060  -3.219  27.819  1.00  0.00     0.079 C 
HETATM   15  O1  UNL     1      11.994  -4.065  27.196  1.00  0.00    -0.367 OA
HETATM   16  C4  UNL     1      12.781  -4.605  28.175  1.00  0.00     0.179 C 
HETATM   17  C22 UNL     1      12.991  -3.454  29.111  1.00  0.00     0.158 C 
HETATM   18  C20 UNL     1      11.811  -2.500  28.828  1.00  0.00     0.049 C 
HETATM   19  C21 UNL     1      12.362  -1.174  28.775  1.00  0.00     0.016 C 
HETATM   20  C6  UNL     1      10.218  -4.259  28.611  1.00  0.00     0.048 C 
BRANCH  16  21
HETATM   21  C2  UNL     1      14.071  -5.111  27.689  1.00  0.00    -0.062 C 
HETATM   22  C1  UNL     1      14.471  -6.371  27.755  1.00  0.00     0.016 C 
HETATM   23  C3  UNL     1      15.024  -4.150  27.071  1.00  0.00     0.045 C 
ENDBRANCH  16  21
BRANCH  17  24
HETATM   24  O7  UNL     1      13.127  -3.789  30.424  1.00  0.00    -0.392 OA
ATOM     25  H7  UNL     1      12.875  -3.114  31.043  1.00  0.00     0.210 HD
ENDBRANCH  17  24
ENDBRANCH   1  14
BRANCH  13  26
HETATM   26  C17 UNL     1       8.012  -3.838  26.678  1.00  0.00     0.194 C 
BRANCH  26  27
HETATM   27  O5  UNL     1       6.903  -3.035  27.039  1.00  0.00    -0.321 OA
BRANCH  27  28
HETATM   28  C18 UNL     1       6.368  -3.025  28.303  1.00  0.00     0.254 C 
HETATM   29  C19 UNL     1       4.914  -3.198  28.537  1.00  0.00     0.126 C 
HETATM   30  O6  UNL     1       7.105  -2.868  29.311  1.00  0.00    -0.266 OA
ENDBRANCH  27  28
ENDBRANCH  26  27
ENDBRANCH  13  26
TORSDOF 6
ENDMDL
MODEL 4
REMARK VINA RESULT: -7.132175459      1.370      1.798
REMARK  6 active torsions:
REMARK  status: ('A' for Active; 'I' for Inactive)
REMARK    1  A    between atoms: C2_2  and  C4_4 
REMARK    2  A    between atoms: C5_6  and  C7_8 
REMARK    3  A    between atoms: C16_20  and  C17_21 
REMARK    4  A    between atoms: C17_21  and  O5_22 
REMARK    5  A    between atoms: O5_22  and  C18_23 
REMARK    6  A    between atoms: C22_28  and  O7_29 
ROOT
HETATM    1  C7  UNL     1       9.046  -3.368  26.228  1.00  0.00     0.070 C 
HETATM    2  C8  UNL     1       8.922  -4.774  26.760  1.00  0.00     0.028 C 
HETATM    3  C9  UNL     1      10.470  -2.980  25.986  1.00  0.00     0.207 C 
HETATM    4  O2  UNL     1      10.906  -2.460  24.911  1.00  0.00    -0.288 OA
HETATM    5  C10 UNL     1      11.419  -3.217  27.062  1.00  0.00     0.206 C 
HETATM    6  O3  UNL     1      12.579  -3.608  26.879  1.00  0.00    -0.288 OA
HETATM    7  C11 UNL     1      10.904  -2.955  28.426  1.00  0.00     0.048 C 
HETATM    8  C12 UNL     1      11.789  -1.807  28.963  1.00  0.00     0.026 C 
HETATM    9  C13 UNL     1      11.276  -4.124  29.329  1.00  0.00     0.026 C 
HETATM   10  C14 UNL     1       9.525  -2.541  28.502  1.00  0.00     0.151 C 
HETATM   11  O4  UNL     1       9.377  -1.134  28.593  1.00  0.00    -0.383 OA
HETATM   12  C15 UNL     1       9.212  -1.039  27.199  1.00  0.00     0.183 C 
HETATM   13  C16 UNL     1       8.622  -2.449  27.294  1.00  0.00     0.048 C 
ENDROOT
BRANCH   1  14
HETATM   14  C5  UNL     1       8.386  -3.335  24.895  1.00  0.00     0.079 C 
HETATM   15  O1  UNL     1       8.598  -2.103  24.254  1.00  0.00    -0.367 OA
HETATM   16  C4  UNL     1       8.084  -2.199  22.990  1.00  0.00     0.179 C 
HETATM   17  C22 UNL     1       8.472  -3.586  22.574  1.00  0.00     0.158 C 
HETATM   18  C20 UNL     1       8.702  -4.340  23.901  1.00  0.00     0.049 C 
HETATM   19  C21 UNL     1       9.910  -5.101  23.733  1.00  0.00     0.016 C 
HETATM   20  C6  UNL     1       6.834  -3.343  24.991  1.00  0.00     0.048 C 
BRANCH  16  21
HETATM   21  C2  UNL     1       8.630  -1.212  22.049  1.00  0.00    -0.062 C 
HETATM   22  C1  UNL     1       8.521  -1.272  20.731  1.00  0.00     0.016 C 
HETATM   23  C3  UNL     1       9.369  -0.042  22.596  1.00  0.00     0.045 C 
ENDBRANCH  16  21
BRANCH  17  24
HETATM   24  O7  UNL     1       7.601  -4.205  21.730  1.00  0.00    -0.392 OA
ATOM     25  H7  UNL     1       7.698  -5.148  21.668  1.00  0.00     0.210 HD
ENDBRANCH  17  24
ENDBRANCH   1  14
BRANCH  13  26
HETATM   26  C17 UNL     1       7.254  -2.309  27.834  1.00  0.00     0.194 C 
BRANCH  26  27
HETATM   27  O5  UNL     1       6.986  -2.952  29.067  1.00  0.00    -0.321 OA
BRANCH  27  28
HETATM   28  C18 UNL     1       5.717  -3.114  29.565  1.00  0.00     0.254 C 
HETATM   29  C19 UNL     1       4.587  -3.533  28.704  1.00  0.00     0.126 C 
HETATM   30  O6  UNL     1       5.476  -2.907  30.783  1.00  0.00    -0.266 OA
ENDBRANCH  27  28
ENDBRANCH  26  27
ENDBRANCH  13  26
TORSDOF 6
ENDMDL
MODEL 5
REMARK VINA RESULT: -7.125177426      1.418      5.234
REMARK  6 active torsions:
REMARK  status: ('A' for Active; 'I' for Inactive)
REMARK    1  A    between atoms: C2_2  and  C4_4 
REMARK    2  A    between atoms: C5_6  and  C7_8 
REMARK    3  A    between atoms: C16_20  and  C17_21 
REMARK    4  A    between atoms: C17_21  and  O5_22 
REMARK    5  A    between atoms: O5_22  and  C18_23 
REMARK    6  A    between atoms: C22_28  and  O7_29 
ROOT
HETATM    1  C7  UNL     1       8.815  -2.357  25.915  1.00  0.00     0.070 C 
HETATM    2  C8  UNL     1       8.759  -0.948  25.379  1.00  0.00     0.028 C 
HETATM    3  C9  UNL     1       9.215  -3.343  24.865  1.00  0.00     0.207 C 
HETATM    4  O2  UNL     1      10.128  -4.218  25.003  1.00  0.00    -0.288 OA
HETATM    5  C10 UNL     1       8.504  -3.294  23.597  1.00  0.00     0.206 C 
HETATM    6  O3  UNL     1       9.049  -3.471  22.500  1.00  0.00    -0.288 OA
HETATM    7  C11 UNL     1       7.053  -3.016  23.697  1.00  0.00     0.048 C 
HETATM    8  C12 UNL     1       6.372  -4.281  23.127  1.00  0.00     0.026 C 
HETATM    9  C13 UNL     1       6.684  -1.941  22.683  1.00  0.00     0.026 C 
HETATM   10  C14 UNL     1       6.554  -2.791  25.031  1.00  0.00     0.151 C 
HETATM   11  O4  UNL     1       5.978  -3.953  25.605  1.00  0.00    -0.383 OA
HETATM   12  C15 UNL     1       7.195  -4.272  26.235  1.00  0.00     0.183 C 
HETATM   13  C16 UNL     1       7.442  -2.761  26.253  1.00  0.00     0.048 C 
ENDROOT
BRANCH   1  14
HETATM   14  C5  UNL     1       9.890  -2.402  26.943  1.00  0.00     0.079 C 
HETATM   15  O1  UNL     1      11.162  -2.377  26.346  1.00  0.00    -0.367 OA
HETATM   16  C4  UNL     1      12.088  -2.281  27.349  1.00  0.00     0.179 C 
HETATM   17  C22 UNL     1      11.449  -1.320  28.306  1.00  0.00     0.158 C 
HETATM   18  C20 UNL     1       9.940  -1.400  27.988  1.00  0.00     0.049 C 
HETATM   19  C21 UNL     1       9.456  -0.047  27.972  1.00  0.00     0.016 C 
HETATM   20  C6  UNL     1       9.952  -3.763  27.690  1.00  0.00     0.048 C 
BRANCH  16  21
HETATM   21  C2  UNL     1      13.392  -1.770  26.907  1.00  0.00    -0.062 C 
HETATM   22  C1  UNL     1      14.522  -1.868  27.590  1.00  0.00     0.016 C 
HETATM   23  C3  UNL     1      13.477  -1.083  25.590  1.00  0.00     0.045 C 
ENDBRANCH  16  21
BRANCH  17  24
HETATM   24  O7  UNL     1      11.748  -1.523  29.619  1.00  0.00    -0.392 OA
ATOM     25  H7  UNL     1      11.659  -0.759  30.177  1.00  0.00     0.210 HD
ENDBRANCH  17  24
ENDBRANCH   1  14
BRANCH  13  26
HETATM   26  C17 UNL     1       6.607  -2.198  27.334  1.00  0.00     0.194 C 
BRANCH  26  27
HETATM   27  O5  UNL     1       6.752  -2.776  28.618  1.00  0.00    -0.321 OA
BRANCH  27  28
HETATM   28  C18 UNL     1       5.683  -3.136  29.401  1.00  0.00     0.254 C 
HETATM   29  C19 UNL     1       4.435  -3.681  28.816  1.00  0.00     0.126 C 
HETATM   30  O6  UNL     1       5.735  -3.012  30.652  1.00  0.00    -0.266 OA
ENDBRANCH  27  28
ENDBRANCH  26  27
ENDBRANCH  13  26
TORSDOF 6
ENDMDL
