MODEL 1
REMARK VINA RESULT: -7.335702204      0.000      0.000
REMARK  4 active torsions:
REMARK  status: ('A' for Active; 'I' for Inactive)
REMARK    1  A    between atoms: C3_3  and  C4_4 
REMARK    2  A    between atoms: C5_5  and  O1_6 
REMARK    3  A    between atoms: C13_17  and  O4_19 
REMARK    4  A    between atoms: O4_19  and  C15_20 
ROOT
HETATM    1  C4  UNL     1      11.858  -1.873  27.396  1.00  0.00     0.049 C 
HETATM    2  C5  UNL     1      11.149  -2.009  28.665  1.00  0.00     0.163 C 
HETATM    3  C6  UNL     1       9.683  -2.013  28.743  1.00  0.00     0.231 C 
HETATM    4  O2  UNL     1       9.212  -0.685  28.613  1.00  0.00    -0.306 OA
HETATM    5  C7  UNL     1       9.766   0.305  27.828  1.00  0.00     0.260 C 
HETATM    6  O3  UNL     1       9.312   1.465  28.181  1.00  0.00    -0.265 OA
HETATM    7  C8  UNL     1      10.720   0.283  26.730  1.00  0.00     0.121 C 
HETATM    8  C9  UNL     1      11.279  -1.027  26.294  1.00  0.00    -0.019 C 
HETATM    9  C10 UNL     1      12.601  -0.567  25.565  1.00  0.00     0.017 C 
HETATM   10  C11 UNL     1      10.588  -1.759  25.238  1.00  0.00     0.035 C 
HETATM   11  C12 UNL     1       9.485  -0.816  24.697  1.00  0.00     0.077 C 
HETATM   12  C13 UNL     1       8.611  -1.745  23.868  1.00  0.00     0.171 C 
HETATM   13  C14 UNL     1       8.967  -1.722  22.410  1.00  0.00     0.079 C 
HETATM   14  O6  UNL     1       8.721  -2.933  24.488  1.00  0.00    -0.343 OA
HETATM   15  C17 UNL     1       9.855  -2.987  25.313  1.00  0.00     0.075 C 
HETATM   16  C18 UNL     1      10.697  -4.086  24.608  1.00  0.00     0.047 C 
HETATM   17  C19 UNL     1       9.431  -3.636  26.569  1.00  0.00     0.089 C 
HETATM   18  C20 UNL     1       8.212  -4.546  26.276  1.00  0.00     0.021 C 
HETATM   19  C21 UNL     1       9.032  -2.787  27.663  1.00  0.00     0.165 C 
HETATM   20  O7  UNL     1       7.805  -2.620  27.785  1.00  0.00    -0.295 OA
ENDROOT
BRANCH  12  21
HETATM   21  O4  UNL     1       7.235  -1.341  23.950  1.00  0.00    -0.284 OA
BRANCH  21  22
HETATM   22  C15 UNL     1       6.252  -2.312  24.089  1.00  0.00     0.257 C 
HETATM   23  C16 UNL     1       5.405  -2.399  25.320  1.00  0.00     0.126 C 
HETATM   24  O5  UNL     1       6.070  -3.134  23.167  1.00  0.00    -0.266 OA
ENDBRANCH  21  22
ENDBRANCH  12  21
BRANCH   1  25
HETATM   25  C3  UNL     1      13.269  -1.458  27.736  1.00  0.00    -0.023 C 
HETATM   26  C2  UNL     1      14.273  -2.292  27.568  1.00  0.00    -0.034 C 
HETATM   27  C1  UNL     1      14.158  -3.678  27.046  1.00  0.00     0.036 C 
ENDBRANCH   1  25
BRANCH   2  28
HETATM   28  O1  UNL     1      11.740  -3.034  29.448  1.00  0.00    -0.392 OA
ATOM     29  H1  UNL     1      12.645  -2.818  29.639  1.00  0.00     0.210 HD
ENDBRANCH   2  28
TORSDOF 4
ENDMDL
MODEL 2
REMARK VINA RESULT: -7.064324130      4.559      7.139
REMARK  4 active torsions:
REMARK  status: ('A' for Active; 'I' for Inactive)
REMARK    1  A    between atoms: C3_3  and  C4_4 
REMARK    2  A    between atoms: C5_5  and  O1_6 
REMARK    3  A    between atoms: C13_17  and  O4_19 
REMARK    4  A    between atoms: O4_19  and  C15_20 
ROOT
HETATM    1  C4  UNL     1       7.216  -0.674  19.675  1.00  0.00     0.049 C 
HETATM    2  C5  UNL     1       8.609  -0.578  20.101  1.00  0.00     0.163 C 
HETATM    3  C6  UNL     1       9.050  -1.006  21.434  1.00  0.00     0.231 C 
HETATM    4  O2  UNL     1       8.684  -0.019  22.380  1.00  0.00    -0.306 OA
HETATM    5  C7  UNL     1       7.545   0.760  22.348  1.00  0.00     0.260 C 
HETATM    6  O3  UNL     1       7.670   1.771  23.148  1.00  0.00    -0.265 OA
HETATM    7  C8  UNL     1       6.293   0.658  21.614  1.00  0.00     0.121 C 
HETATM    8  C9  UNL     1       6.106  -0.482  20.674  1.00  0.00    -0.019 C 
HETATM    9  C10 UNL     1       4.973   0.083  19.732  1.00  0.00     0.017 C 
HETATM   10  C11 UNL     1       5.498  -1.707  21.180  1.00  0.00     0.035 C 
HETATM   11  C12 UNL     1       5.014  -1.397  22.618  1.00  0.00     0.077 C 
HETATM   12  C13 UNL     1       4.716  -2.775  23.188  1.00  0.00     0.171 C 
HETATM   13  C14 UNL     1       3.267  -3.146  23.071  1.00  0.00     0.079 C 
HETATM   14  O6  UNL     1       5.589  -3.583  22.560  1.00  0.00    -0.343 OA
HETATM   15  C17 UNL     1       6.087  -2.997  21.385  1.00  0.00     0.075 C 
HETATM   16  C18 UNL     1       5.522  -3.954  20.300  1.00  0.00     0.047 C 
HETATM   17  C19 UNL     1       7.536  -3.271  21.360  1.00  0.00     0.089 C 
HETATM   18  C20 UNL     1       7.818  -4.555  22.180  1.00  0.00     0.021 C 
HETATM   19  C21 UNL     1       8.421  -2.265  21.892  1.00  0.00     0.165 C 
HETATM   20  O7  UNL     1       8.795  -2.453  23.063  1.00  0.00    -0.295 OA
ENDROOT
BRANCH  12  21
HETATM   21  O4  UNL     1       5.026  -2.814  24.590  1.00  0.00    -0.284 OA
BRANCH  21  22
HETATM   22  C15 UNL     1       5.581  -3.967  25.130  1.00  0.00     0.257 C 
HETATM   23  C16 UNL     1       6.979  -3.988  25.663  1.00  0.00     0.126 C 
HETATM   24  O5  UNL     1       4.899  -5.012  25.170  1.00  0.00    -0.266 OA
ENDBRANCH  21  22
ENDBRANCH  12  21
BRANCH   1  25
HETATM   25  C3  UNL     1       7.066   0.246  18.488  1.00  0.00    -0.023 C 
HETATM   26  C2  UNL     1       6.864  -0.241  17.283  1.00  0.00    -0.034 C 
HETATM   27  C1  UNL     1       6.761  -1.684  16.948  1.00  0.00     0.036 C 
ENDBRANCH   1  25
BRANCH   2  28
HETATM   28  O1  UNL     1       9.469  -1.035  19.069  1.00  0.00    -0.392 OA
ATOM     29  H1  UNL     1       9.343  -1.965  18.927  1.00  0.00     0.210 HD
ENDBRANCH   2  28
TORSDOF 4
ENDMDL
MODEL 3
REMARK VINA RESULT: -7.062265957      1.945      3.117
REMARK  4 active torsions:
REMARK  status: ('A' for Active; 'I' for Inactive)
REMARK    1  A    between atoms: C3_3  and  C4_4 
REMARK    2  A    between atoms: C5_5  and  O1_6 
REMARK    3  A    between atoms: C13_17  and  O4_19 
REMARK    4  A    between atoms: O4_19  and  C15_20 
ROOT
HETATM    1  C4  UNL     1      10.496  -1.472  25.856  1.00  0.00     0.049 C 
HETATM    2  C5  UNL     1      11.013  -2.689  26.472  1.00  0.00     0.163 C 
HETATM    3  C6  UNL     1      10.229  -3.929  26.531  1.00  0.00     0.231 C 
HETATM    4  O2  UNL     1       9.259  -3.812  27.554  1.00  0.00    -0.306 OA
HETATM    5  C7  UNL     1       8.588  -2.663  27.916  1.00  0.00     0.260 C 
HETATM    6  O3  UNL     1       8.033  -2.812  29.076  1.00  0.00    -0.265 OA
HETATM    7  C8  UNL     1       8.399  -1.376  27.263  1.00  0.00     0.121 C 
HETATM    8  C9  UNL     1       9.027  -1.152  25.931  1.00  0.00    -0.019 C 
HETATM    9  C10 UNL     1       9.076   0.425  25.880  1.00  0.00     0.017 C 
HETATM   10  C11 UNL     1       8.253  -1.471  24.737  1.00  0.00     0.035 C 
HETATM   11  C12 UNL     1       6.820  -1.809  25.218  1.00  0.00     0.077 C 
HETATM   12  C13 UNL     1       6.185  -2.449  23.992  1.00  0.00     0.171 C 
HETATM   13  C14 UNL     1       5.389  -1.471  23.178  1.00  0.00     0.079 C 
HETATM   14  O6  UNL     1       7.216  -3.044  23.365  1.00  0.00    -0.343 OA
HETATM   15  C17 UNL     1       8.450  -2.516  23.777  1.00  0.00     0.075 C 
HETATM   16  C18 UNL     1       8.960  -1.864  22.463  1.00  0.00     0.047 C 
HETATM   17  C19 UNL     1       9.358  -3.664  23.962  1.00  0.00     0.089 C 
HETATM   18  C20 UNL     1       8.881  -4.831  23.062  1.00  0.00     0.021 C 
HETATM   19  C21 UNL     1       9.481  -4.218  25.288  1.00  0.00     0.165 C 
HETATM   20  O7  UNL     1       8.785  -5.225  25.508  1.00  0.00    -0.295 OA
ENDROOT
BRANCH  12  21
HETATM   21  O4  UNL     1       5.267  -3.481  24.387  1.00  0.00    -0.284 OA
BRANCH  21  22
HETATM   22  C15 UNL     1       4.997  -3.667  25.736  1.00  0.00     0.257 C 
HETATM   23  C16 UNL     1       3.878  -2.943  26.419  1.00  0.00     0.126 C 
HETATM   24  O5  UNL     1       5.705  -4.454  26.398  1.00  0.00    -0.266 OA
ENDBRANCH  21  22
ENDBRANCH  12  21
BRANCH   1  25
HETATM   25  C3  UNL     1      11.343  -0.335  26.374  1.00  0.00    -0.023 C 
HETATM   26  C2  UNL     1      12.131   0.339  25.563  1.00  0.00    -0.034 C 
HETATM   27  C1  UNL     1      12.282   0.085  24.108  1.00  0.00     0.036 C 
ENDBRANCH   1  25
BRANCH   2  28
HETATM   28  O1  UNL     1      12.355  -2.910  26.068  1.00  0.00    -0.392 OA
ATOM     29  H1  UNL     1      12.801  -3.461  26.700  1.00  0.00     0.210 HD
ENDBRANCH   2  28
TORSDOF 4
ENDMDL
MODEL 4
REMARK VINA RESULT: -6.977476483      2.010      3.353
REMARK  4 active torsions:
REMARK  status: ('A' for Active; 'I' for Inactive)
REMARK    1  A    between atoms: C3_3  and  C4_4 
REMARK    2  A    between atoms: C5_5  and  O1_6 
REMARK    3  A    between atoms: C13_17  and  O4_19 
REMARK    4  A    between atoms: O4_19  and  C15_20 
ROOT
HETATM    1  C4  UNL     1      11.122   0.074  25.746  1.00  0.00     0.049 C 
HETATM    2  C5  UNL     1      12.215  -0.709  26.314  1.00  0.00     0.163 C 
HETATM    3  C6  UNL     1      12.057  -2.123  26.676  1.00  0.00     0.231 C 
HETATM    4  O2  UNL     1      11.349  -2.208  27.899  1.00  0.00    -0.306 OA
HETATM    5  C7  UNL     1      10.340  -1.367  28.319  1.00  0.00     0.260 C 
HETATM    6  O3  UNL     1      10.139  -1.505  29.590  1.00  0.00    -0.265 OA
HETATM    7  C8  UNL     1       9.502  -0.400  27.627  1.00  0.00     0.121 C 
HETATM    8  C9  UNL     1       9.701  -0.197  26.165  1.00  0.00    -0.019 C 
HETATM    9  C10 UNL     1       9.069   1.235  25.967  1.00  0.00     0.017 C 
HETATM   10  C11 UNL     1       8.917  -1.007  25.239  1.00  0.00     0.035 C 
HETATM   11  C12 UNL     1       7.887  -1.783  26.095  1.00  0.00     0.077 C 
HETATM   12  C13 UNL     1       7.356  -2.833  25.131  1.00  0.00     0.171 C 
HETATM   13  C14 UNL     1       6.079  -2.411  24.465  1.00  0.00     0.079 C 
HETATM   14  O6  UNL     1       8.397  -3.082  24.317  1.00  0.00    -0.343 OA
HETATM   15  C17 UNL     1       9.346  -2.048  24.354  1.00  0.00     0.075 C 
HETATM   16  C18 UNL     1       9.265  -1.503  22.902  1.00  0.00     0.047 C 
HETATM   17  C19 UNL     1      10.671  -2.696  24.401  1.00  0.00     0.089 C 
HETATM   18  C20 UNL     1      10.566  -4.101  23.755  1.00  0.00     0.021 C 
HETATM   19  C21 UNL     1      11.274  -2.904  25.694  1.00  0.00     0.165 C 
HETATM   20  O7  UNL     1      11.127  -4.044  26.171  1.00  0.00    -0.295 OA
ENDROOT
BRANCH  12  21
HETATM   21  O4  UNL     1       7.057  -4.050  25.833  1.00  0.00    -0.284 OA
BRANCH  21  22
HETATM   22  C15 UNL     1       5.739  -4.332  26.167  1.00  0.00     0.257 C 
HETATM   23  C16 UNL     1       5.084  -3.715  27.363  1.00  0.00     0.126 C 
HETATM   24  O5  UNL     1       5.084  -5.121  25.455  1.00  0.00    -0.266 OA
ENDBRANCH  21  22
ENDBRANCH  12  21
BRANCH   1  25
HETATM   25  C3  UNL     1      11.492   1.525  25.932  1.00  0.00    -0.023 C 
HETATM   26  C2  UNL     1      11.651   2.316  24.892  1.00  0.00    -0.034 C 
HETATM   27  C1  UNL     1      11.494   1.908  23.473  1.00  0.00     0.036 C 
ENDBRANCH   1  25
BRANCH   2  28
HETATM   28  O1  UNL     1      13.416  -0.459  25.602  1.00  0.00    -0.392 OA
ATOM     29  H1  UNL     1      13.457  -1.005  24.827  1.00  0.00     0.210 HD
ENDBRANCH   2  28
TORSDOF 4
ENDMDL
MODEL 5
REMARK VINA RESULT: -6.976904820      1.838      5.353
REMARK  4 active torsions:
REMARK  status: ('A' for Active; 'I' for Inactive)
REMARK    1  A    between atoms: C3_3  and  C4_4 
REMARK    2  A    between atoms: C5_5  and  O1_6 
REMARK    3  A    between atoms: C13_17  and  O4_19 
REMARK    4  A    between atoms: O4_19  and  C15_20 
ROOT
HETATM    1  C4  UNL     1       7.868  -3.341  26.187  1.00  0.00     0.049 C 
HETATM    2  C5  UNL     1       7.367  -2.918  27.491  1.00  0.00     0.163 C 
HETATM    3  C6  UNL     1       8.168  -2.096  28.406  1.00  0.00     0.231 C 
HETATM    4  O2  UNL     1       9.136  -2.916  29.034  1.00  0.00    -0.306 OA
HETATM    5  C7  UNL     1       9.791  -3.988  28.465  1.00  0.00     0.260 C 
HETATM    6  O3  UNL     1      10.347  -4.713  29.382  1.00  0.00    -0.265 OA
HETATM    7  C8  UNL     1       9.963  -4.430  27.089  1.00  0.00     0.121 C 
HETATM    8  C9  UNL     1       9.333  -3.634  25.999  1.00  0.00    -0.019 C 
HETATM    9  C10 UNL     1       9.262  -4.705  24.842  1.00  0.00     0.017 C 
HETATM   10  C11 UNL     1      10.112  -2.568  25.379  1.00  0.00     0.035 C 
HETATM   11  C12 UNL     1      11.549  -2.686  25.945  1.00  0.00     0.077 C 
HETATM   12  C13 UNL     1      12.193  -1.371  25.532  1.00  0.00     0.171 C 
HETATM   13  C14 UNL     1      12.976  -1.488  24.258  1.00  0.00     0.079 C 
HETATM   14  O6  UNL     1      11.171  -0.497  25.524  1.00  0.00    -0.343 OA
HETATM   15  C17 UNL     1       9.929  -1.149  25.449  1.00  0.00     0.075 C 
HETATM   16  C18 UNL     1       9.412  -0.668  24.066  1.00  0.00     0.047 C 
HETATM   17  C19 UNL     1       9.037  -0.465  26.404  1.00  0.00     0.089 C 
HETATM   18  C20 UNL     1       9.531   0.991  26.597  1.00  0.00     0.021 C 
HETATM   19  C21 UNL     1       8.921  -1.016  27.731  1.00  0.00     0.165 C 
HETATM   20  O7  UNL     1       9.630  -0.473  28.596  1.00  0.00    -0.295 OA
ENDROOT
BRANCH  12  21
HETATM   21  O4  UNL     1      13.125  -0.936  26.535  1.00  0.00    -0.284 OA
BRANCH  21  22
HETATM   22  C15 UNL     1      13.507  -1.822  27.534  1.00  0.00     0.257 C 
HETATM   23  C16 UNL     1      12.841  -1.825  28.875  1.00  0.00     0.126 C 
HETATM   24  O5  UNL     1      14.428  -2.634  27.311  1.00  0.00    -0.266 OA
ENDBRANCH  21  22
ENDBRANCH  12  21
BRANCH   1  25
HETATM   25  C3  UNL     1       7.005  -4.500  25.750  1.00  0.00    -0.023 C 
HETATM   26  C2  UNL     1       6.154  -4.366  24.756  1.00  0.00    -0.034 C 
HETATM   27  C1  UNL     1       5.940  -3.123  23.972  1.00  0.00     0.036 C 
ENDBRANCH   1  25
BRANCH   2  28
HETATM   28  O1  UNL     1       6.029  -2.462  27.376  1.00  0.00    -0.392 OA
ATOM     29  H1  UNL     1       5.946  -1.593  27.750  1.00  0.00     0.210 HD
ENDBRANCH   2  28
TORSDOF 4
ENDMDL
