MODEL 1
REMARK VINA RESULT: -7.709748084      0.000      0.000
REMARK  6 active torsions:
REMARK  status: ('A' for Active; 'I' for Inactive)
REMARK    1  A    between atoms: C2_2  and  O2_4 
REMARK    2  A    between atoms: O2_4  and  C3_5 
REMARK    3  A    between atoms: C10_12  and  C12_14 
REMARK    4  A    between atoms: C12_14  and  O3_15 
REMARK    5  A    between atoms: C14_19  and  O5_20 
REMARK    6  A    between atoms: O5_20  and  C15_21 
ROOT
HETATM    1  C3  UNL     1       5.668  -2.891  29.450  1.00  0.00     0.270 C 
HETATM    2  C4  UNL     1       7.099  -3.335  29.120  1.00  0.00     0.067 C 
HETATM    3  C5  UNL     1       7.266  -3.256  27.652  1.00  0.00     0.005 C 
HETATM    4  C6  UNL     1       6.032  -2.767  26.963  1.00  0.00     0.019 C 
HETATM    5  C7  UNL     1       6.221  -3.007  25.470  1.00  0.00     0.008 C 
HETATM    6  C8  UNL     1       7.404  -2.160  25.039  1.00  0.00     0.007 C 
HETATM    7  C9  UNL     1       8.622  -2.674  25.741  1.00  0.00     0.012 C 
HETATM    8  C10 UNL     1       9.853  -2.097  25.137  1.00  0.00     0.045 C 
HETATM    9  C11 UNL     1      10.365  -3.063  24.058  1.00  0.00     0.026 C 
HETATM   10  C13 UNL     1      10.912  -2.026  26.167  1.00  0.00     0.167 C 
HETATM   11  O4  UNL     1      11.714  -1.132  26.158  1.00  0.00    -0.294 OA
HETATM   12  C14 UNL     1      10.915  -3.129  27.198  1.00  0.00     0.203 C 
HETATM   13  C17 UNL     1       9.663  -3.001  27.994  1.00  0.00     0.050 C 
HETATM   14  C18 UNL     1       8.493  -2.461  27.219  1.00  0.00    -0.032 C 
HETATM   15  C19 UNL     1       8.297  -1.027  27.600  1.00  0.00     0.016 C 
HETATM   16  C20 UNL     1       4.861  -3.600  27.398  1.00  0.00     0.125 C 
HETATM   17  C21 UNL     1       3.611  -2.938  26.809  1.00  0.00     0.040 C 
HETATM   18  O7  UNL     1       4.772  -3.716  28.760  1.00  0.00    -0.355 OA
ENDROOT
BRANCH   1  19
HETATM   19  O2  UNL     1       5.387  -3.062  30.827  1.00  0.00    -0.290 OA
BRANCH  19  20
HETATM   20  C2  UNL     1       4.828  -2.051  31.598  1.00  0.00     0.257 C 
HETATM   21  C1  UNL     1       3.725  -1.220  31.089  1.00  0.00     0.126 C 
HETATM   22  O1  UNL     1       5.268  -1.821  32.776  1.00  0.00    -0.266 OA
ENDBRANCH  19  20
ENDBRANCH   1  19
BRANCH   8  23
HETATM   23  C12 UNL     1       9.645  -0.773  24.454  1.00  0.00     0.181 C 
BRANCH  23  24
HETATM   24  O3  UNL     1      10.546  -0.737  23.366  1.00  0.00    -0.400 OA
ATOM     25  H3  UNL     1      10.259  -0.029  22.802  1.00  0.00     0.209 HD
ENDBRANCH  23  24
ENDBRANCH   8  23
BRANCH  12  26
HETATM   26  O5  UNL     1      12.095  -2.995  27.925  1.00  0.00    -0.309 OA
BRANCH  26  27
HETATM   27  C15 UNL     1      12.579  -4.012  28.718  1.00  0.00     0.255 C 
HETATM   28  C16 UNL     1      13.481  -5.015  28.136  1.00  0.00     0.126 C 
HETATM   29  O6  UNL     1      12.204  -4.008  29.918  1.00  0.00    -0.266 OA
ENDBRANCH  26  27
ENDBRANCH  12  26
TORSDOF 6
ENDMDL
MODEL 2
REMARK VINA RESULT: -7.622132207      3.377      5.090
REMARK  6 active torsions:
REMARK  status: ('A' for Active; 'I' for Inactive)
REMARK    1  A    between atoms: C2_2  and  O2_4 
REMARK    2  A    between atoms: O2_4  and  C3_5 
REMARK    3  A    between atoms: C10_12  and  C12_14 
REMARK    4  A    between atoms: C12_14  and  O3_15 
REMARK    5  A    between atoms: C14_19  and  O5_20 
REMARK    6  A    between atoms: O5_20  and  C15_21 
ROOT
HETATM    1  C3  UNL     1       4.550  -3.213  26.803  1.00  0.00     0.270 C 
HETATM    2  C4  UNL     1       5.371  -3.954  25.739  1.00  0.00     0.067 C 
HETATM    3  C5  UNL     1       4.749  -3.684  24.424  1.00  0.00     0.005 C 
HETATM    4  C6  UNL     1       3.559  -2.785  24.530  1.00  0.00     0.019 C 
HETATM    5  C7  UNL     1       2.843  -2.819  23.186  1.00  0.00     0.008 C 
HETATM    6  C8  UNL     1       3.810  -2.250  22.164  1.00  0.00     0.007 C 
HETATM    7  C9  UNL     1       4.987  -3.170  22.077  1.00  0.00     0.012 C 
HETATM    8  C10 UNL     1       5.817  -2.842  20.887  1.00  0.00     0.045 C 
HETATM    9  C11 UNL     1       5.355  -3.719  19.713  1.00  0.00     0.026 C 
HETATM   10  C13 UNL     1       7.222  -3.218  21.156  1.00  0.00     0.167 C 
HETATM   11  O4  UNL     1       8.126  -2.574  20.697  1.00  0.00    -0.294 OA
HETATM   12  C14 UNL     1       7.433  -4.436  22.023  1.00  0.00     0.203 C 
HETATM   13  C17 UNL     1       6.904  -4.119  23.378  1.00  0.00     0.050 C 
HETATM   14  C18 UNL     1       5.733  -3.175  23.377  1.00  0.00    -0.032 C 
HETATM   15  C19 UNL     1       6.220  -1.821  23.790  1.00  0.00     0.016 C 
HETATM   16  C20 UNL     1       2.608  -3.344  25.549  1.00  0.00     0.125 C 
HETATM   17  C21 UNL     1       1.510  -2.294  25.746  1.00  0.00     0.040 C 
HETATM   18  O7  UNL     1       3.224  -3.654  26.733  1.00  0.00    -0.355 OA
ENDROOT
BRANCH   1  19
HETATM   19  O2  UNL     1       5.006  -3.528  28.107  1.00  0.00    -0.290 OA
BRANCH  19  20
HETATM   20  C2  UNL     1       6.165  -2.976  28.637  1.00  0.00     0.257 C 
HETATM   21  C1  UNL     1       7.231  -2.452  27.768  1.00  0.00     0.126 C 
HETATM   22  O1  UNL     1       6.329  -2.914  29.902  1.00  0.00    -0.266 OA
ENDBRANCH  19  20
ENDBRANCH   1  19
BRANCH   8  23
HETATM   23  C12 UNL     1       5.697  -1.417  20.423  1.00  0.00     0.181 C 
BRANCH  23  24
HETATM   24  O3  UNL     1       5.981  -1.421  19.038  1.00  0.00    -0.400 OA
ATOM     25  H3  UNL     1       5.239  -1.012  18.609  1.00  0.00     0.209 HD
ENDBRANCH  23  24
ENDBRANCH   8  23
BRANCH  12  26
HETATM   26  O5  UNL     1       8.793  -4.734  21.972  1.00  0.00    -0.309 OA
BRANCH  26  27
HETATM   27  C15 UNL     1       9.452  -5.304  23.039  1.00  0.00     0.255 C 
HETATM   28  C16 UNL     1       9.899  -4.453  24.151  1.00  0.00     0.126 C 
HETATM   29  O6  UNL     1       9.627  -6.547  22.984  1.00  0.00    -0.266 OA
ENDBRANCH  26  27
ENDBRANCH  12  26
TORSDOF 6
ENDMDL
MODEL 3
REMARK VINA RESULT: -7.527254814      2.493      5.331
REMARK  6 active torsions:
REMARK  status: ('A' for Active; 'I' for Inactive)
REMARK    1  A    between atoms: C2_2  and  O2_4 
REMARK    2  A    between atoms: O2_4  and  C3_5 
REMARK    3  A    between atoms: C10_12  and  C12_14 
REMARK    4  A    between atoms: C12_14  and  O3_15 
REMARK    5  A    between atoms: C14_19  and  O5_20 
REMARK    6  A    between atoms: O5_20  and  C15_21 
ROOT
HETATM    1  C3  UNL     1       5.419  -3.319  24.224  1.00  0.00     0.270 C 
HETATM    2  C4  UNL     1       6.781  -2.627  24.374  1.00  0.00     0.067 C 
HETATM    3  C5  UNL     1       7.065  -2.507  25.821  1.00  0.00     0.005 C 
HETATM    4  C6  UNL     1       5.981  -3.095  26.667  1.00  0.00     0.019 C 
HETATM    5  C7  UNL     1       6.237  -2.656  28.103  1.00  0.00     0.008 C 
HETATM    6  C8  UNL     1       7.570  -3.257  28.510  1.00  0.00     0.007 C 
HETATM    7  C9  UNL     1       8.634  -2.650  27.651  1.00  0.00     0.012 C 
HETATM    8  C10 UNL     1       9.983  -2.958  28.197  1.00  0.00     0.045 C 
HETATM    9  C11 UNL     1      10.411  -1.806  29.119  1.00  0.00     0.026 C 
HETATM   10  C13 UNL     1      10.962  -2.986  27.088  1.00  0.00     0.167 C 
HETATM   11  O4  UNL     1      11.895  -3.741  27.116  1.00  0.00    -0.294 OA
HETATM   12  C14 UNL     1      10.710  -2.024  25.952  1.00  0.00     0.203 C 
HETATM   13  C17 UNL     1       9.441  -2.433  25.291  1.00  0.00     0.050 C 
HETATM   14  C18 UNL     1       8.433  -3.050  26.221  1.00  0.00    -0.032 C 
HETATM   15  C19 UNL     1       8.443  -4.532  26.010  1.00  0.00     0.016 C 
HETATM   16  C20 UNL     1       4.662  -2.507  26.256  1.00  0.00     0.125 C 
HETATM   17  C21 UNL     1       3.581  -3.277  27.022  1.00  0.00     0.040 C 
HETATM   18  O7  UNL     1       4.455  -2.565  24.903  1.00  0.00    -0.355 OA
ENDROOT
BRANCH   1  19
HETATM   19  O2  UNL     1       5.014  -3.355  22.867  1.00  0.00    -0.290 OA
BRANCH  19  20
HETATM   20  C2  UNL     1       5.925  -3.268  21.822  1.00  0.00     0.257 C 
HETATM   21  C1  UNL     1       6.837  -4.380  21.508  1.00  0.00     0.126 C 
HETATM   22  O1  UNL     1       5.989  -2.210  21.109  1.00  0.00    -0.266 OA
ENDBRANCH  19  20
ENDBRANCH   1  19
BRANCH   8  23
HETATM   23  C12 UNL     1      10.042  -4.209  29.029  1.00  0.00     0.181 C 
BRANCH  23  24
HETATM   24  O3  UNL     1      11.034  -3.990  30.012  1.00  0.00    -0.400 OA
ATOM     25  H3  UNL     1      10.574  -3.801  30.822  1.00  0.00     0.209 HD
ENDBRANCH  23  24
ENDBRANCH   8  23
BRANCH  12  26
HETATM   26  O5  UNL     1      11.840  -2.061  25.138  1.00  0.00    -0.309 OA
BRANCH  26  27
HETATM   27  C15 UNL     1      12.340  -0.926  24.538  1.00  0.00     0.255 C 
HETATM   28  C16 UNL     1      12.042   0.390  25.120  1.00  0.00     0.126 C 
HETATM   29  O6  UNL     1      13.036  -1.103  23.507  1.00  0.00    -0.266 OA
ENDBRANCH  26  27
ENDBRANCH  12  26
TORSDOF 6
ENDMDL
MODEL 4
REMARK VINA RESULT: -7.437922334      2.727      6.232
REMARK  6 active torsions:
REMARK  status: ('A' for Active; 'I' for Inactive)
REMARK    1  A    between atoms: C2_2  and  O2_4 
REMARK    2  A    between atoms: O2_4  and  C3_5 
REMARK    3  A    between atoms: C10_12  and  C12_14 
REMARK    4  A    between atoms: C12_14  and  O3_15 
REMARK    5  A    between atoms: C14_19  and  O5_20 
REMARK    6  A    between atoms: O5_20  and  C15_21 
ROOT
HETATM    1  C3  UNL     1       9.971  -2.068  28.064  1.00  0.00     0.270 C 
HETATM    2  C4  UNL     1       8.485  -2.023  27.682  1.00  0.00     0.067 C 
HETATM    3  C5  UNL     1       8.380  -1.348  26.370  1.00  0.00     0.005 C 
HETATM    4  C6  UNL     1       9.713  -0.945  25.827  1.00  0.00     0.019 C 
HETATM    5  C7  UNL     1       9.460  -0.017  24.645  1.00  0.00     0.008 C 
HETATM    6  C8  UNL     1       8.722  -0.834  23.601  1.00  0.00     0.007 C 
HETATM    7  C9  UNL     1       7.393  -1.220  24.170  1.00  0.00     0.012 C 
HETATM    8  C10 UNL     1       6.504  -1.751  23.102  1.00  0.00     0.045 C 
HETATM    9  C11 UNL     1       5.658  -0.593  22.551  1.00  0.00     0.026 C 
HETATM   10  C13 UNL     1       5.551  -2.714  23.696  1.00  0.00     0.167 C 
HETATM   11  O4  UNL     1       5.176  -3.668  23.071  1.00  0.00    -0.294 OA
HETATM   12  C14 UNL     1       5.094  -2.418  25.105  1.00  0.00     0.203 C 
HETATM   13  C17 UNL     1       6.283  -2.528  25.994  1.00  0.00     0.050 C 
HETATM   14  C18 UNL     1       7.580  -2.138  25.340  1.00  0.00    -0.032 C 
HETATM   15  C19 UNL     1       8.332  -3.388  25.002  1.00  0.00     0.016 C 
HETATM   16  C20 UNL     1      10.447  -0.145  26.865  1.00  0.00     0.125 C 
HETATM   17  C21 UNL     1      11.864   0.077  26.326  1.00  0.00     0.040 C 
HETATM   18  O7  UNL     1      10.466  -0.759  28.089  1.00  0.00    -0.355 OA
ENDROOT
BRANCH   1  19
HETATM   19  O2  UNL     1      10.144  -2.585  29.372  1.00  0.00    -0.290 OA
BRANCH  19  20
HETATM   20  C2  UNL     1      10.701  -3.836  29.603  1.00  0.00     0.257 C 
HETATM   21  C1  UNL     1      10.183  -5.041  28.935  1.00  0.00     0.126 C 
HETATM   22  O1  UNL     1      11.683  -3.964  30.410  1.00  0.00    -0.266 OA
ENDBRANCH  19  20
ENDBRANCH   1  19
BRANCH   8  23
HETATM   23  C12 UNL     1       7.234  -2.339  21.925  1.00  0.00     0.181 C 
BRANCH  23  24
HETATM   24  O3  UNL     1       6.379  -2.191  20.809  1.00  0.00    -0.400 OA
ATOM     25  H3  UNL     1       6.632  -2.861  20.185  1.00  0.00     0.209 HD
ENDBRANCH  23  24
ENDBRANCH   8  23
BRANCH  12  26
HETATM   26  O5  UNL     1       4.059  -3.306  25.386  1.00  0.00    -0.309 OA
BRANCH  26  27
HETATM   27  C15 UNL     1       2.988  -2.947  26.174  1.00  0.00     0.255 C 
HETATM   28  C16 UNL     1       1.799  -2.351  25.549  1.00  0.00     0.126 C 
HETATM   29  O6  UNL     1       3.108  -3.162  27.406  1.00  0.00    -0.266 OA
ENDBRANCH  26  27
ENDBRANCH  12  26
TORSDOF 6
ENDMDL
MODEL 5
REMARK VINA RESULT: -7.413136888      3.300      6.234
REMARK  6 active torsions:
REMARK  status: ('A' for Active; 'I' for Inactive)
REMARK    1  A    between atoms: C2_2  and  O2_4 
REMARK    2  A    between atoms: O2_4  and  C3_5 
REMARK    3  A    between atoms: C10_12  and  C12_14 
REMARK    4  A    between atoms: C12_14  and  O3_15 
REMARK    5  A    between atoms: C14_19  and  O5_20 
REMARK    6  A    between atoms: O5_20  and  C15_21 
ROOT
HETATM    1  C3  UNL     1       1.764  -3.167  24.172  1.00  0.00     0.270 C 
HETATM    2  C4  UNL     1       3.046  -2.374  23.883  1.00  0.00     0.067 C 
HETATM    3  C5  UNL     1       3.876  -2.404  25.107  1.00  0.00     0.005 C 
HETATM    4  C6  UNL     1       3.240  -3.188  26.210  1.00  0.00     0.019 C 
HETATM    5  C7  UNL     1       4.028  -2.904  27.482  1.00  0.00     0.008 C 
HETATM    6  C8  UNL     1       5.434  -3.423  27.247  1.00  0.00     0.007 C 
HETATM    7  C9  UNL     1       6.047  -2.620  26.143  1.00  0.00     0.012 C 
HETATM    8  C10 UNL     1       7.512  -2.864  26.071  1.00  0.00     0.045 C 
HETATM    9  C11 UNL     1       8.227  -1.798  26.915  1.00  0.00     0.026 C 
HETATM   10  C13 UNL     1       7.971  -2.667  24.679  1.00  0.00     0.167 C 
HETATM   11  O4  UNL     1       8.867  -3.330  24.231  1.00  0.00    -0.294 OA
HETATM   12  C14 UNL     1       7.253  -1.603  23.884  1.00  0.00     0.203 C 
HETATM   13  C17 UNL     1       5.842  -2.045  23.715  1.00  0.00     0.050 C 
HETATM   14  C18 UNL     1       5.310  -2.861  24.860  1.00  0.00    -0.032 C 
HETATM   15  C19 UNL     1       5.292  -4.300  24.445  1.00  0.00     0.016 C 
HETATM   16  C20 UNL     1       1.845  -2.680  26.434  1.00  0.00     0.125 C 
HETATM   17  C21 UNL     1       1.187  -3.635  27.436  1.00  0.00     0.040 C 
HETATM   18  O7  UNL     1       1.121  -2.593  25.274  1.00  0.00    -0.355 OA
ENDROOT
BRANCH   1  19
HETATM   19  O2  UNL     1       0.855  -3.076  23.089  1.00  0.00    -0.290 OA
BRANCH  19  20
HETATM   20  C2  UNL     1      -0.491  -3.386  23.226  1.00  0.00     0.257 C 
HETATM   21  C1  UNL     1      -0.934  -4.755  23.537  1.00  0.00     0.126 C 
HETATM   22  O1  UNL     1      -1.379  -2.479  23.083  1.00  0.00    -0.266 OA
ENDBRANCH  19  20
ENDBRANCH   1  19
BRANCH   8  23
HETATM   23  C12 UNL     1       7.944  -4.197  26.621  1.00  0.00     0.181 C 
BRANCH  23  24
HETATM   24  O3  UNL     1       9.272  -4.031  27.076  1.00  0.00    -0.400 OA
ATOM     25  H3  UNL     1       9.273  -4.270  27.996  1.00  0.00     0.209 HD
ENDBRANCH  23  24
ENDBRANCH   8  23
BRANCH  12  26
HETATM   26  O5  UNL     1       7.968  -1.435  22.701  1.00  0.00    -0.309 OA
BRANCH  26  27
HETATM   27  C15 UNL     1       8.677  -0.284  22.438  1.00  0.00     0.255 C 
HETATM   28  C16 UNL     1       8.495   0.890  23.302  1.00  0.00     0.126 C 
HETATM   29  O6  UNL     1       9.454  -0.323  21.451  1.00  0.00    -0.266 OA
ENDBRANCH  26  27
ENDBRANCH  12  26
TORSDOF 6
ENDMDL
