MODEL 1
REMARK VINA RESULT: -7.684325377      0.000      0.000
REMARK  6 active torsions:
REMARK  status: ('A' for Active; 'I' for Inactive)
REMARK    1  A    between atoms: C5_7  and  O3_8 
REMARK    2  A    between atoms: O3_8  and  C6_9 
REMARK    3  A    between atoms: C6_9  and  C7_11 
REMARK    4  A    between atoms: C16_20  and  O5_21 
REMARK    5  A    between atoms: O5_21  and  C17_22 
REMARK    6  A    between atoms: C19_25  and  O7_26 
ROOT
HETATM    1  C1  UNL     1       9.881   0.232  24.248  1.00  0.00     0.025 C 
HETATM    2  C2  UNL     1       9.411  -0.907  24.681  1.00  0.00     0.013 C 
HETATM    3  C3  UNL     1       9.602  -1.917  23.610  1.00  0.00     0.289 C 
HETATM    4  O1  UNL     1      10.137  -1.440  22.551  1.00  0.00    -0.260 OA
HETATM    5  O2  UNL     1       9.336  -3.270  23.482  1.00  0.00    -0.315 OA
HETATM    6  C4  UNL     1       8.296  -4.091  23.928  1.00  0.00     0.211 C 
HETATM    7  C5  UNL     1       7.829  -3.596  25.283  1.00  0.00     0.157 C 
HETATM    8  C11 UNL     1       9.069  -3.404  26.107  1.00  0.00     0.045 C 
HETATM    9  C12 UNL     1       9.111  -2.113  26.871  1.00  0.00    -0.024 C 
HETATM   10  C13 UNL     1       7.960  -2.184  27.892  1.00  0.00     0.017 C 
HETATM   11  C14 UNL     1       8.847  -0.912  26.018  1.00  0.00     0.035 C 
HETATM   12  C15 UNL     1       9.110   0.352  26.809  1.00  0.00     0.045 C 
HETATM   13  C16 UNL     1      10.533   0.340  27.260  1.00  0.00     0.162 C 
HETATM   14  C19 UNL     1      10.616  -0.743  28.348  1.00  0.00     0.156 C 
HETATM   15  C20 UNL     1      10.363  -2.062  27.670  1.00  0.00    -0.011 C 
HETATM   16  C21 UNL     1      11.594  -2.446  26.877  1.00  0.00     0.018 C 
HETATM   17  C22 UNL     1      10.282  -3.100  28.797  1.00  0.00     0.018 C 
ENDROOT
BRANCH   7  18
HETATM   18  O3  UNL     1       6.952  -4.581  25.814  1.00  0.00    -0.310 OA
BRANCH  18  19
HETATM   19  C6  UNL     1       5.590  -4.451  25.635  1.00  0.00     0.289 C 
HETATM   20  O4  UNL     1       4.941  -5.442  25.239  1.00  0.00    -0.260 OA
BRANCH  19  21
HETATM   21  C7  UNL     1       4.894  -3.210  25.891  1.00  0.00     0.009 C 
HETATM   22  C8  UNL     1       4.691  -2.300  24.702  1.00  0.00     0.054 C 
HETATM   23  C9  UNL     1       4.441  -2.844  27.072  1.00  0.00    -0.018 C 
HETATM   24  C10 UNL     1       4.585  -3.652  28.290  1.00  0.00     0.036 C 
ENDBRANCH  19  21
ENDBRANCH  18  19
ENDBRANCH   7  18
BRANCH  14  25
HETATM   25  O7  UNL     1      11.925  -0.744  28.826  1.00  0.00    -0.392 OA
ATOM     26  H7  UNL     1      11.908  -1.145  29.687  1.00  0.00     0.210 HD
ENDBRANCH  14  25
BRANCH  13  27
HETATM   27  O5  UNL     1      11.000   1.569  27.732  1.00  0.00    -0.314 OA
BRANCH  27  28
HETATM   28  C17 UNL     1      10.960   2.715  26.962  1.00  0.00     0.255 C 
HETATM   29  C18 UNL     1      10.069   3.842  27.332  1.00  0.00     0.126 C 
HETATM   30  O6  UNL     1      11.709   2.730  25.955  1.00  0.00    -0.266 OA
ENDBRANCH  27  28
ENDBRANCH  13  27
TORSDOF 6
ENDMDL
MODEL 2
REMARK VINA RESULT: -7.342173951      1.578      2.076
REMARK  6 active torsions:
REMARK  status: ('A' for Active; 'I' for Inactive)
REMARK    1  A    between atoms: C5_7  and  O3_8 
REMARK    2  A    between atoms: O3_8  and  C6_9 
REMARK    3  A    between atoms: C6_9  and  C7_11 
REMARK    4  A    between atoms: C16_20  and  O5_21 
REMARK    5  A    between atoms: O5_21  and  C17_22 
REMARK    6  A    between atoms: C19_25  and  O7_26 
ROOT
HETATM    1  C1  UNL     1       9.351   0.546  22.710  1.00  0.00     0.025 C 
HETATM    2  C2  UNL     1       9.145  -0.608  23.286  1.00  0.00     0.013 C 
HETATM    3  C3  UNL     1       8.893  -1.612  22.222  1.00  0.00     0.289 C 
HETATM    4  O1  UNL     1       8.914  -1.118  21.043  1.00  0.00    -0.260 OA
HETATM    5  O2  UNL     1       8.639  -2.973  22.201  1.00  0.00    -0.315 OA
HETATM    6  C4  UNL     1       7.911  -3.828  23.034  1.00  0.00     0.211 C 
HETATM    7  C5  UNL     1       8.049  -3.347  24.466  1.00  0.00     0.157 C 
HETATM    8  C11 UNL     1       9.516  -3.114  24.689  1.00  0.00     0.045 C 
HETATM    9  C12 UNL     1       9.839  -1.823  25.380  1.00  0.00    -0.024 C 
HETATM   10  C13 UNL     1       9.233  -1.931  26.792  1.00  0.00     0.017 C 
HETATM   11  C14 UNL     1       9.202  -0.631  24.736  1.00  0.00     0.035 C 
HETATM   12  C15 UNL     1       9.738   0.641  25.358  1.00  0.00     0.045 C 
HETATM   13  C16 UNL     1      11.217   0.676  25.163  1.00  0.00     0.162 C 
HETATM   14  C19 UNL     1      11.787  -0.404  26.098  1.00  0.00     0.156 C 
HETATM   15  C20 UNL     1      11.309  -1.730  25.573  1.00  0.00    -0.011 C 
HETATM   16  C21 UNL     1      12.098  -2.073  24.328  1.00  0.00     0.018 C 
HETATM   17  C22 UNL     1      11.746  -2.769  26.614  1.00  0.00     0.018 C 
ENDROOT
BRANCH   7  18
HETATM   18  O3  UNL     1       7.510  -4.361  25.306  1.00  0.00    -0.310 OA
BRANCH  18  19
HETATM   19  C6  UNL     1       6.172  -4.333  25.637  1.00  0.00     0.289 C 
HETATM   20  O4  UNL     1       5.466  -5.327  25.365  1.00  0.00    -0.260 OA
BRANCH  19  21
HETATM   21  C7  UNL     1       5.563  -3.194  26.289  1.00  0.00     0.009 C 
HETATM   22  C8  UNL     1       5.837  -3.045  27.767  1.00  0.00     0.054 C 
HETATM   23  C9  UNL     1       4.805  -2.307  25.678  1.00  0.00    -0.018 C 
HETATM   24  C10 UNL     1       4.477  -2.359  24.247  1.00  0.00     0.036 C 
ENDBRANCH  19  21
ENDBRANCH  18  19
ENDBRANCH   7  18
BRANCH  14  25
HETATM   25  O7  UNL     1      13.175  -0.361  25.975  1.00  0.00    -0.392 OA
ATOM     26  H7  UNL     1      13.394  -0.768  25.146  1.00  0.00     0.210 HD
ENDBRANCH  14  25
BRANCH  13  27
HETATM   27  O5  UNL     1      11.804   1.920  25.408  1.00  0.00    -0.314 OA
BRANCH  27  28
HETATM   28  C17 UNL     1      11.497   3.038  24.657  1.00  0.00     0.255 C 
HETATM   29  C18 UNL     1      10.764   4.176  25.263  1.00  0.00     0.126 C 
HETATM   30  O6  UNL     1      11.872   3.018  23.459  1.00  0.00    -0.266 OA
ENDBRANCH  27  28
ENDBRANCH  13  27
TORSDOF 6
ENDMDL
MODEL 3
REMARK VINA RESULT: -7.319899368      2.808      5.132
REMARK  6 active torsions:
REMARK  status: ('A' for Active; 'I' for Inactive)
REMARK    1  A    between atoms: C5_7  and  O3_8 
REMARK    2  A    between atoms: O3_8  and  C6_9 
REMARK    3  A    between atoms: C6_9  and  C7_11 
REMARK    4  A    between atoms: C16_20  and  O5_21 
REMARK    5  A    between atoms: O5_21  and  C17_22 
REMARK    6  A    between atoms: C19_25  and  O7_26 
ROOT
HETATM    1  C1  UNL     1      10.108  -3.514  25.141  1.00  0.00     0.025 C 
HETATM    2  C2  UNL     1       9.044  -3.481  24.386  1.00  0.00     0.013 C 
HETATM    3  C3  UNL     1       9.133  -4.605  23.420  1.00  0.00     0.289 C 
HETATM    4  O1  UNL     1      10.205  -5.293  23.540  1.00  0.00    -0.260 OA
HETATM    5  O2  UNL     1       8.324  -5.093  22.407  1.00  0.00    -0.315 OA
HETATM    6  C4  UNL     1       7.497  -4.482  21.460  1.00  0.00     0.211 C 
HETATM    7  C5  UNL     1       6.865  -3.252  22.084  1.00  0.00     0.157 C 
HETATM    8  C11 UNL     1       6.324  -3.691  23.414  1.00  0.00     0.045 C 
HETATM    9  C12 UNL     1       6.637  -2.759  24.547  1.00  0.00    -0.024 C 
HETATM   10  C13 UNL     1       5.902  -1.442  24.232  1.00  0.00     0.017 C 
HETATM   11  C14 UNL     1       8.091  -2.419  24.649  1.00  0.00     0.035 C 
HETATM   12  C15 UNL     1       8.353  -1.651  25.927  1.00  0.00     0.045 C 
HETATM   13  C16 UNL     1       7.938  -2.499  27.083  1.00  0.00     0.162 C 
HETATM   14  C19 UNL     1       6.401  -2.536  27.041  1.00  0.00     0.156 C 
HETATM   15  C20 UNL     1       6.018  -3.283  25.792  1.00  0.00    -0.011 C 
HETATM   16  C21 UNL     1       6.273  -4.759  26.010  1.00  0.00     0.018 C 
HETATM   17  C22 UNL     1       4.492  -3.158  25.686  1.00  0.00     0.018 C 
ENDROOT
BRANCH   7  18
HETATM   18  O3  UNL     1       5.855  -2.798  21.192  1.00  0.00    -0.310 OA
BRANCH  18  19
HETATM   19  C6  UNL     1       6.130  -1.767  20.317  1.00  0.00     0.289 C 
HETATM   20  O4  UNL     1       7.082  -1.897  19.520  1.00  0.00    -0.260 OA
BRANCH  19  21
HETATM   21  C7  UNL     1       5.353  -0.547  20.295  1.00  0.00     0.009 C 
HETATM   22  C8  UNL     1       4.043  -0.603  19.545  1.00  0.00     0.054 C 
HETATM   23  C9  UNL     1       5.719   0.576  20.878  1.00  0.00    -0.018 C 
HETATM   24  C10 UNL     1       6.971   0.737  21.631  1.00  0.00     0.036 C 
ENDBRANCH  19  21
ENDBRANCH  18  19
ENDBRANCH   7  18
BRANCH  14  25
HETATM   25  O7  UNL     1       5.979  -3.282  28.140  1.00  0.00    -0.392 OA
ATOM     26  H7  UNL     1       5.043  -3.410  28.049  1.00  0.00     0.210 HD
ENDBRANCH  14  25
BRANCH  13  27
HETATM   27  O5  UNL     1       8.399  -2.053  28.324  1.00  0.00    -0.314 OA
BRANCH  27  28
HETATM   28  C17 UNL     1       9.470  -2.646  28.965  1.00  0.00     0.255 C 
HETATM   29  C18 UNL     1       9.711  -4.104  28.840  1.00  0.00     0.126 C 
HETATM   30  O6  UNL     1      10.200  -1.882  29.641  1.00  0.00    -0.266 OA
ENDBRANCH  27  28
ENDBRANCH  13  27
TORSDOF 6
ENDMDL
MODEL 4
REMARK VINA RESULT: -7.318384155      2.589      4.379
REMARK  6 active torsions:
REMARK  status: ('A' for Active; 'I' for Inactive)
REMARK    1  A    between atoms: C5_7  and  O3_8 
REMARK    2  A    between atoms: O3_8  and  C6_9 
REMARK    3  A    between atoms: C6_9  and  C7_11 
REMARK    4  A    between atoms: C16_20  and  O5_21 
REMARK    5  A    between atoms: O5_21  and  C17_22 
REMARK    6  A    between atoms: C19_25  and  O7_26 
ROOT
HETATM    1  C1  UNL     1      10.484  -2.637  25.008  1.00  0.00     0.025 C 
HETATM    2  C2  UNL     1       9.370  -3.007  24.437  1.00  0.00     0.013 C 
HETATM    3  C3  UNL     1       9.650  -4.220  23.628  1.00  0.00     0.289 C 
HETATM    4  O1  UNL     1      10.876  -4.581  23.665  1.00  0.00    -0.260 OA
HETATM    5  O2  UNL     1       8.892  -5.064  22.835  1.00  0.00    -0.315 OA
HETATM    6  C4  UNL     1       7.821  -4.857  21.960  1.00  0.00     0.211 C 
HETATM    7  C5  UNL     1       6.952  -3.741  22.508  1.00  0.00     0.157 C 
HETATM    8  C11 UNL     1       6.717  -4.066  23.955  1.00  0.00     0.045 C 
HETATM    9  C12 UNL     1       6.894  -2.905  24.887  1.00  0.00    -0.024 C 
HETATM   10  C13 UNL     1       5.791  -1.893  24.522  1.00  0.00     0.017 C 
HETATM   11  C14 UNL     1       8.198  -2.193  24.707  1.00  0.00     0.035 C 
HETATM   12  C15 UNL     1       8.389  -1.175  25.811  1.00  0.00     0.045 C 
HETATM   13  C16 UNL     1       8.366  -1.889  27.122  1.00  0.00     0.162 C 
HETATM   14  C19 UNL     1       6.906  -2.324  27.334  1.00  0.00     0.156 C 
HETATM   15  C20 UNL     1       6.598  -3.346  26.275  1.00  0.00    -0.011 C 
HETATM   16  C21 UNL     1       7.276  -4.649  26.644  1.00  0.00     0.018 C 
HETATM   17  C22 UNL     1       5.096  -3.635  26.401  1.00  0.00     0.018 C 
ENDROOT
BRANCH   7  18
HETATM   18  O3  UNL     1       5.756  -3.719  21.738  1.00  0.00    -0.310 OA
BRANCH  18  19
HETATM   19  C6  UNL     1       5.650  -2.856  20.667  1.00  0.00     0.289 C 
HETATM   20  O4  UNL     1       6.238  -3.147  19.604  1.00  0.00    -0.260 OA
BRANCH  19  21
HETATM   21  C7  UNL     1       4.881  -1.633  20.736  1.00  0.00     0.009 C 
HETATM   22  C8  UNL     1       3.413  -1.747  20.399  1.00  0.00     0.054 C 
HETATM   23  C9  UNL     1       5.381  -0.461  21.067  1.00  0.00    -0.018 C 
HETATM   24  C10 UNL     1       6.792  -0.240  21.412  1.00  0.00     0.036 C 
ENDBRANCH  19  21
ENDBRANCH  18  19
ENDBRANCH   7  18
BRANCH  14  25
HETATM   25  O7  UNL     1       6.843  -2.951  28.577  1.00  0.00    -0.392 OA
ATOM     26  H7  UNL     1       5.975  -2.789  28.928  1.00  0.00     0.210 HD
ENDBRANCH  14  25
BRANCH  13  27
HETATM   27  O5  UNL     1       8.832  -1.134  28.201  1.00  0.00    -0.314 OA
BRANCH  27  28
HETATM   28  C17 UNL     1      10.114  -1.273  28.695  1.00  0.00     0.255 C 
HETATM   29  C18 UNL     1      11.252  -0.573  28.049  1.00  0.00     0.126 C 
HETATM   30  O6  UNL     1      10.241  -2.014  29.699  1.00  0.00    -0.266 OA
ENDBRANCH  27  28
ENDBRANCH  13  27
TORSDOF 6
ENDMDL
MODEL 5
REMARK VINA RESULT: -7.259198207      3.086      5.511
REMARK  6 active torsions:
REMARK  status: ('A' for Active; 'I' for Inactive)
REMARK    1  A    between atoms: C5_7  and  O3_8 
REMARK    2  A    between atoms: O3_8  and  C6_9 
REMARK    3  A    between atoms: C6_9  and  C7_11 
REMARK    4  A    between atoms: C16_20  and  O5_21 
REMARK    5  A    between atoms: O5_21  and  C17_22 
REMARK    6  A    between atoms: C19_25  and  O7_26 
ROOT
HETATM    1  C1  UNL     1       9.271  -3.336  24.780  1.00  0.00     0.025 C 
HETATM    2  C2  UNL     1       8.189  -3.363  24.051  1.00  0.00     0.013 C 
HETATM    3  C3  UNL     1       8.357  -4.417  23.018  1.00  0.00     0.289 C 
HETATM    4  O1  UNL     1       9.492  -5.004  23.074  1.00  0.00    -0.260 OA
HETATM    5  O2  UNL     1       7.571  -4.921  21.997  1.00  0.00    -0.315 OA
HETATM    6  C4  UNL     1       6.664  -4.340  21.106  1.00  0.00     0.211 C 
HETATM    7  C5  UNL     1       5.934  -3.215  21.816  1.00  0.00     0.157 C 
HETATM    8  C11 UNL     1       5.474  -3.779  23.129  1.00  0.00     0.045 C 
HETATM    9  C12 UNL     1       5.729  -2.887  24.308  1.00  0.00    -0.024 C 
HETATM   10  C13 UNL     1       4.864  -1.632  24.088  1.00  0.00     0.017 C 
HETATM   11  C14 UNL     1       7.146  -2.415  24.398  1.00  0.00     0.035 C 
HETATM   12  C15 UNL     1       7.370  -1.699  25.714  1.00  0.00     0.045 C 
HETATM   13  C16 UNL     1       7.069  -2.648  26.826  1.00  0.00     0.162 C 
HETATM   14  C19 UNL     1       5.542  -2.832  26.815  1.00  0.00     0.156 C 
HETATM   15  C20 UNL     1       5.198  -3.539  25.533  1.00  0.00    -0.011 C 
HETATM   16  C21 UNL     1       5.597  -4.994  25.657  1.00  0.00     0.018 C 
HETATM   17  C22 UNL     1       3.664  -3.557  25.468  1.00  0.00     0.018 C 
ENDROOT
BRANCH   7  18
HETATM   18  O3  UNL     1       4.861  -2.810  20.974  1.00  0.00    -0.310 OA
BRANCH  18  19
HETATM   19  C6  UNL     1       4.802  -1.508  20.523  1.00  0.00     0.289 C 
HETATM   20  O4  UNL     1       5.673  -0.700  20.909  1.00  0.00    -0.260 OA
BRANCH  19  21
HETATM   21  C7  UNL     1       3.768  -1.051  19.621  1.00  0.00     0.009 C 
HETATM   22  C8  UNL     1       4.207  -0.105  18.527  1.00  0.00     0.054 C 
HETATM   23  C9  UNL     1       2.504  -1.407  19.701  1.00  0.00    -0.018 C 
HETATM   24  C10 UNL     1       1.973  -2.319  20.724  1.00  0.00     0.036 C 
ENDBRANCH  19  21
ENDBRANCH  18  19
ENDBRANCH   7  18
BRANCH  14  25
HETATM   25  O7  UNL     1       5.224  -3.676  27.878  1.00  0.00    -0.392 OA
ATOM     26  H7  UNL     1       4.523  -3.260  28.365  1.00  0.00     0.210 HD
ENDBRANCH  14  25
BRANCH  13  27
HETATM   27  O5  UNL     1       7.520  -2.231  28.081  1.00  0.00    -0.314 OA
BRANCH  27  28
HETATM   28  C17 UNL     1       8.767  -2.577  28.564  1.00  0.00     0.255 C 
HETATM   29  C18 UNL     1       9.282  -3.960  28.402  1.00  0.00     0.126 C 
HETATM   30  O6  UNL     1       9.411  -1.664  29.135  1.00  0.00    -0.266 OA
ENDBRANCH  27  28
ENDBRANCH  13  27
TORSDOF 6
ENDMDL
