MODEL 1
REMARK VINA RESULT: -7.623941093      0.000      0.000
REMARK  6 active torsions:
REMARK  status: ('A' for Active; 'I' for Inactive)
REMARK    1  A    between atoms: O1_2  and  C2_3 
REMARK    2  A    between atoms: C4_5  and  O2_6 
REMARK    3  A    between atoms: C9_13  and  O4_14 
REMARK    4  A    between atoms: O4_14  and  C10_15 
REMARK    5  A    between atoms: C15_21  and  O6_22 
REMARK    6  A    between atoms: O6_22  and  C16_23 
ROOT
HETATM    1  C2  UNL     1       3.473  -3.780  25.455  1.00  0.00     0.127 C 
HETATM    2  C3  UNL     1       3.565  -3.263  26.869  1.00  0.00     0.064 C 
HETATM    3  C4  UNL     1       4.883  -3.434  27.530  1.00  0.00     0.126 C 
HETATM    4  C5  UNL     1       6.055  -3.024  26.624  1.00  0.00     0.031 C 
HETATM    5  C6  UNL     1       7.344  -3.190  27.324  1.00  0.00     0.011 C 
HETATM    6  C7  UNL     1       7.637  -2.223  28.417  1.00  0.00     0.087 C 
HETATM    7  C8  UNL     1       9.145  -2.249  28.477  1.00  0.00     0.157 C 
HETATM    8  O3  UNL     1       9.867  -1.704  29.292  1.00  0.00    -0.295 OA
HETATM    9  C9  UNL     1       9.657  -3.082  27.333  1.00  0.00     0.209 C 
HETATM   10  C12 UNL     1       8.481  -2.909  26.361  1.00  0.00    -0.004 C 
HETATM   11  C13 UNL     1       8.528  -1.512  25.860  1.00  0.00     0.019 C 
HETATM   12  C14 UNL     1       8.468  -3.955  25.308  1.00  0.00     0.046 C 
HETATM   13  C15 UNL     1       7.185  -3.893  24.541  1.00  0.00     0.141 C 
HETATM   14  C18 UNL     1       5.962  -3.876  25.407  1.00  0.00    -0.005 C 
HETATM   15  C19 UNL     1       5.796  -5.317  25.895  1.00  0.00     0.019 C 
HETATM   16  C20 UNL     1       4.739  -3.429  24.661  1.00  0.00     0.022 C 
HETATM   17  C21 UNL     1       4.657  -1.973  24.397  1.00  0.00     0.013 C 
ENDROOT
BRANCH   9  18
HETATM   18  O4  UNL     1       9.685  -4.411  27.760  1.00  0.00    -0.308 OA
BRANCH  18  19
HETATM   19  C10 UNL     1      10.588  -4.814  28.710  1.00  0.00     0.255 C 
HETATM   20  C11 UNL     1      12.051  -4.496  28.647  1.00  0.00     0.126 C 
HETATM   21  O5  UNL     1      10.165  -5.485  29.684  1.00  0.00    -0.266 OA
ENDBRANCH  18  19
ENDBRANCH   9  18
BRANCH  13  22
HETATM   22  O6  UNL     1       7.271  -2.873  23.597  1.00  0.00    -0.316 OA
BRANCH  22  23
HETATM   23  C16 UNL     1       7.724  -3.037  22.295  1.00  0.00     0.255 C 
HETATM   24  C17 UNL     1       7.222  -4.118  21.415  1.00  0.00     0.126 C 
HETATM   25  O7  UNL     1       8.592  -2.206  21.900  1.00  0.00    -0.266 OA
ENDBRANCH  22  23
ENDBRANCH  13  22
BRANCH   3  26
HETATM   26  O2  UNL     1       4.921  -2.514  28.606  1.00  0.00    -0.395 OA
ATOM     27  H2  UNL     1       5.703  -2.712  29.108  1.00  0.00     0.210 HD
ENDBRANCH   3  26
BRANCH   1  28
HETATM   28  O1  UNL     1       2.455  -3.045  24.841  1.00  0.00    -0.390 OA
HETATM   29  C1  UNL     1       1.509  -2.638  25.776  1.00  0.00     0.202 C 
ENDBRANCH   1  28
TORSDOF 6
ENDMDL
MODEL 2
REMARK VINA RESULT: -7.353606258      2.162      3.820
REMARK  6 active torsions:
REMARK  status: ('A' for Active; 'I' for Inactive)
REMARK    1  A    between atoms: O1_2  and  C2_3 
REMARK    2  A    between atoms: C4_5  and  O2_6 
REMARK    3  A    between atoms: C9_13  and  O4_14 
REMARK    4  A    between atoms: O4_14  and  C10_15 
REMARK    5  A    between atoms: C15_21  and  O6_22 
REMARK    6  A    between atoms: O6_22  and  C16_23 
ROOT
HETATM    1  C2  UNL     1       7.672  -3.725  21.704  1.00  0.00     0.127 C 
HETATM    2  C3  UNL     1       6.507  -4.027  22.611  1.00  0.00     0.064 C 
HETATM    3  C4  UNL     1       6.848  -4.274  24.035  1.00  0.00     0.126 C 
HETATM    4  C5  UNL     1       7.839  -3.240  24.591  1.00  0.00     0.031 C 
HETATM    5  C6  UNL     1       8.137  -3.509  26.012  1.00  0.00     0.011 C 
HETATM    6  C7  UNL     1       7.045  -3.232  26.985  1.00  0.00     0.087 C 
HETATM    7  C8  UNL     1       7.806  -3.006  28.270  1.00  0.00     0.157 C 
HETATM    8  O3  UNL     1       7.350  -2.851  29.388  1.00  0.00    -0.295 OA
HETATM    9  C9  UNL     1       9.279  -2.998  27.960  1.00  0.00     0.209 C 
HETATM   10  C12 UNL     1       9.216  -2.558  26.490  1.00  0.00    -0.004 C 
HETATM   11  C13 UNL     1       8.820  -1.127  26.477  1.00  0.00     0.019 C 
HETATM   12  C14 UNL     1      10.470  -2.871  25.760  1.00  0.00     0.046 C 
HETATM   13  C15 UNL     1      10.275  -2.651  24.293  1.00  0.00     0.141 C 
HETATM   14  C18 UNL     1       9.055  -3.320  23.737  1.00  0.00    -0.005 C 
HETATM   15  C19 UNL     1       9.420  -4.803  23.637  1.00  0.00     0.019 C 
HETATM   16  C20 UNL     1       8.670  -2.781  22.390  1.00  0.00     0.022 C 
HETATM   17  C21 UNL     1       8.019  -1.450  22.405  1.00  0.00     0.013 C 
ENDROOT
BRANCH   9  18
HETATM   18  O4  UNL     1       9.726  -4.319  28.006  1.00  0.00    -0.308 OA
BRANCH  18  19
HETATM   19  C10 UNL     1      10.534  -4.742  29.031  1.00  0.00     0.255 C 
HETATM   20  C11 UNL     1      11.892  -4.168  29.302  1.00  0.00     0.126 C 
HETATM   21  O5  UNL     1      10.113  -5.657  29.781  1.00  0.00    -0.266 OA
ENDBRANCH  18  19
ENDBRANCH   9  18
BRANCH  13  22
HETATM   22  O6  UNL     1      10.396  -1.291  24.019  1.00  0.00    -0.316 OA
BRANCH  22  23
HETATM   23  C16 UNL     1      11.584  -0.575  24.082  1.00  0.00     0.255 C 
HETATM   24  C17 UNL     1      11.668   0.760  24.718  1.00  0.00     0.126 C 
HETATM   25  O7  UNL     1      12.595  -1.131  23.563  1.00  0.00    -0.266 OA
ENDBRANCH  22  23
ENDBRANCH  13  22
BRANCH   3  26
HETATM   26  O2  UNL     1       5.660  -4.073  24.779  1.00  0.00    -0.395 OA
ATOM     27  H2  UNL     1       5.350  -4.933  25.038  1.00  0.00     0.210 HD
ENDBRANCH   3  26
BRANCH   1  28
HETATM   28  O1  UNL     1       7.153  -2.979  20.642  1.00  0.00    -0.390 OA
HETATM   29  C1  UNL     1       6.059  -3.626  20.075  1.00  0.00     0.202 C 
ENDBRANCH   1  28
TORSDOF 6
ENDMDL
MODEL 3
REMARK VINA RESULT: -7.197687178      2.003      5.805
REMARK  6 active torsions:
REMARK  status: ('A' for Active; 'I' for Inactive)
REMARK    1  A    between atoms: O1_2  and  C2_3 
REMARK    2  A    between atoms: C4_5  and  O2_6 
REMARK    3  A    between atoms: C9_13  and  O4_14 
REMARK    4  A    between atoms: O4_14  and  C10_15 
REMARK    5  A    between atoms: C15_21  and  O6_22 
REMARK    6  A    between atoms: O6_22  and  C16_23 
ROOT
HETATM    1  C2  UNL     1      10.679  -1.181  25.284  1.00  0.00     0.127 C 
HETATM    2  C3  UNL     1      10.218  -0.944  26.700  1.00  0.00     0.064 C 
HETATM    3  C4  UNL     1       8.761  -1.101  26.935  1.00  0.00     0.126 C 
HETATM    4  C5  UNL     1       8.192  -2.370  26.284  1.00  0.00     0.031 C 
HETATM    5  C6  UNL     1       6.746  -2.499  26.557  1.00  0.00     0.011 C 
HETATM    6  C7  UNL     1       6.362  -2.844  27.953  1.00  0.00     0.087 C 
HETATM    7  C8  UNL     1       5.005  -3.481  27.767  1.00  0.00     0.157 C 
HETATM    8  O3  UNL     1       4.224  -3.835  28.631  1.00  0.00    -0.295 OA
HETATM    9  C9  UNL     1       4.742  -3.627  26.293  1.00  0.00     0.209 C 
HETATM   10  C12 UNL     1       6.192  -3.684  25.790  1.00  0.00    -0.004 C 
HETATM   11  C13 UNL     1       6.748  -4.996  26.204  1.00  0.00     0.019 C 
HETATM   12  C14 UNL     1       6.292  -3.387  24.339  1.00  0.00     0.046 C 
HETATM   13  C15 UNL     1       7.726  -3.214  23.951  1.00  0.00     0.141 C 
HETATM   14  C18 UNL     1       8.481  -2.262  24.828  1.00  0.00    -0.005 C 
HETATM   15  C19 UNL     1       8.021  -0.867  24.395  1.00  0.00     0.019 C 
HETATM   16  C20 UNL     1       9.967  -2.397  24.673  1.00  0.00     0.022 C 
HETATM   17  C21 UNL     1      10.566  -3.584  25.329  1.00  0.00     0.013 C 
ENDROOT
BRANCH   9  18
HETATM   18  O4  UNL     1       4.167  -2.434  25.849  1.00  0.00    -0.308 OA
BRANCH  18  19
HETATM   19  C10 UNL     1       2.924  -2.438  25.269  1.00  0.00     0.255 C 
HETATM   20  C11 UNL     1       1.648  -2.371  26.051  1.00  0.00     0.126 C 
HETATM   21  O5  UNL     1       2.854  -2.498  24.017  1.00  0.00    -0.266 OA
ENDBRANCH  18  19
ENDBRANCH   9  18
BRANCH  13  22
HETATM   22  O6  UNL     1       8.304  -4.470  23.785  1.00  0.00    -0.316 OA
BRANCH  22  23
HETATM   23  C16 UNL     1       8.676  -5.014  22.563  1.00  0.00     0.255 C 
HETATM   24  C17 UNL     1       9.739  -6.038  22.446  1.00  0.00     0.126 C 
HETATM   25  O7  UNL     1       8.051  -4.583  21.550  1.00  0.00    -0.266 OA
ENDBRANCH  22  23
ENDBRANCH  13  22
BRANCH   3  26
HETATM   26  O2  UNL     1       8.593  -1.303  28.327  1.00  0.00    -0.395 OA
ATOM     27  H2  UNL     1       8.005  -2.043  28.427  1.00  0.00     0.210 HD
ENDBRANCH   3  26
BRANCH   1  28
HETATM   28  O1  UNL     1      12.020  -1.564  25.373  1.00  0.00    -0.390 OA
HETATM   29  C1  UNL     1      12.715  -0.726  26.240  1.00  0.00     0.202 C 
ENDBRANCH   1  28
TORSDOF 6
ENDMDL
MODEL 4
REMARK VINA RESULT: -6.991349065      0.980      1.066
REMARK  6 active torsions:
REMARK  status: ('A' for Active; 'I' for Inactive)
REMARK    1  A    between atoms: O1_2  and  C2_3 
REMARK    2  A    between atoms: C4_5  and  O2_6 
REMARK    3  A    between atoms: C9_13  and  O4_14 
REMARK    4  A    between atoms: O4_14  and  C10_15 
REMARK    5  A    between atoms: C15_21  and  O6_22 
REMARK    6  A    between atoms: O6_22  and  C16_23 
ROOT
HETATM    1  C2  UNL     1       3.776  -3.832  25.846  1.00  0.00     0.127 C 
HETATM    2  C3  UNL     1       4.089  -3.184  27.170  1.00  0.00     0.064 C 
HETATM    3  C4  UNL     1       5.518  -3.204  27.573  1.00  0.00     0.126 C 
HETATM    4  C5  UNL     1       6.459  -2.801  26.426  1.00  0.00     0.031 C 
HETATM    5  C6  UNL     1       7.867  -2.814  26.872  1.00  0.00     0.011 C 
HETATM    6  C7  UNL     1       8.277  -1.734  27.810  1.00  0.00     0.087 C 
HETATM    7  C8  UNL     1       9.767  -1.652  27.577  1.00  0.00     0.157 C 
HETATM    8  O3  UNL     1      10.582  -0.987  28.191  1.00  0.00    -0.295 OA
HETATM    9  C9  UNL     1      10.122  -2.549  26.422  1.00  0.00     0.209 C 
HETATM   10  C12 UNL     1       8.773  -2.545  25.687  1.00  0.00    -0.004 C 
HETATM   11  C13 UNL     1       8.607  -1.200  25.082  1.00  0.00     0.019 C 
HETATM   12  C14 UNL     1       8.650  -3.682  24.740  1.00  0.00     0.046 C 
HETATM   13  C15 UNL     1       7.245  -3.777  24.236  1.00  0.00     0.141 C 
HETATM   14  C18 UNL     1       6.210  -3.764  25.320  1.00  0.00    -0.005 C 
HETATM   15  C19 UNL     1       6.261  -5.163  25.940  1.00  0.00     0.019 C 
HETATM   16  C20 UNL     1       4.836  -3.471  24.795  1.00  0.00     0.022 C 
HETATM   17  C21 UNL     1       4.583  -2.054  24.441  1.00  0.00     0.013 C 
ENDROOT
BRANCH   9  18
HETATM   18  O4  UNL     1      10.341  -3.828  26.935  1.00  0.00    -0.308 OA
BRANCH  18  19
HETATM   19  C10 UNL     1      11.411  -4.070  27.759  1.00  0.00     0.255 C 
HETATM   20  C11 UNL     1      11.274  -4.446  29.203  1.00  0.00     0.126 C 
HETATM   21  O5  UNL     1      12.566  -3.973  27.275  1.00  0.00    -0.266 OA
ENDBRANCH  18  19
ENDBRANCH   9  18
BRANCH  13  22
HETATM   22  O6  UNL     1       7.066  -2.844  23.218  1.00  0.00    -0.316 OA
BRANCH  22  23
HETATM   23  C16 UNL     1       7.335  -3.076  21.876  1.00  0.00     0.255 C 
HETATM   24  C17 UNL     1       6.570  -4.060  21.076  1.00  0.00     0.126 C 
HETATM   25  O7  UNL     1       8.275  -2.395  21.373  1.00  0.00    -0.266 OA
ENDBRANCH  22  23
ENDBRANCH  13  22
BRANCH   3  26
HETATM   26  O2  UNL     1       5.681  -2.189  28.547  1.00  0.00    -0.395 OA
ATOM     27  H2  UNL     1       6.285  -2.529  29.198  1.00  0.00     0.210 HD
ENDBRANCH   3  26
BRANCH   1  28
HETATM   28  O1  UNL     1       2.602  -3.228  25.387  1.00  0.00    -0.390 OA
HETATM   29  C1  UNL     1       1.788  -2.861  26.454  1.00  0.00     0.202 C 
ENDBRANCH   1  28
TORSDOF 6
ENDMDL
MODEL 5
REMARK VINA RESULT: -6.963071409      3.161      6.345
REMARK  6 active torsions:
REMARK  status: ('A' for Active; 'I' for Inactive)
REMARK    1  A    between atoms: O1_2  and  C2_3 
REMARK    2  A    between atoms: C4_5  and  O2_6 
REMARK    3  A    between atoms: C9_13  and  O4_14 
REMARK    4  A    between atoms: O4_14  and  C10_15 
REMARK    5  A    between atoms: C15_21  and  O6_22 
REMARK    6  A    between atoms: O6_22  and  C16_23 
ROOT
HETATM    1  C2  UNL     1       8.538  -3.862  24.121  1.00  0.00     0.127 C 
HETATM    2  C3  UNL     1       8.985  -2.873  23.074  1.00  0.00     0.064 C 
HETATM    3  C4  UNL     1       9.110  -1.466  23.532  1.00  0.00     0.126 C 
HETATM    4  C5  UNL     1       9.843  -1.347  24.877  1.00  0.00     0.031 C 
HETATM    5  C6  UNL     1       9.963   0.067  25.287  1.00  0.00     0.011 C 
HETATM    6  C7  UNL     1      10.912   0.907  24.507  1.00  0.00     0.087 C 
HETATM    7  C8  UNL     1      11.256   2.003  25.488  1.00  0.00     0.157 C 
HETATM    8  O3  UNL     1      11.919   3.004  25.284  1.00  0.00    -0.295 OA
HETATM    9  C9  UNL     1      10.638   1.667  26.818  1.00  0.00     0.209 C 
HETATM   10  C12 UNL     1      10.567   0.139  26.675  1.00  0.00    -0.004 C 
HETATM   11  C13 UNL     1      11.957  -0.374  26.767  1.00  0.00     0.019 C 
HETATM   12  C14 UNL     1       9.608  -0.467  27.633  1.00  0.00     0.046 C 
HETATM   13  C15 UNL     1       9.392  -1.908  27.296  1.00  0.00     0.141 C 
HETATM   14  C18 UNL     1       9.061  -2.151  25.855  1.00  0.00    -0.005 C 
HETATM   15  C19 UNL     1       7.599  -1.723  25.702  1.00  0.00     0.019 C 
HETATM   16  C20 UNL     1       9.232  -3.590  25.463  1.00  0.00     0.022 C 
HETATM   17  C21 UNL     1      10.634  -4.034  25.288  1.00  0.00     0.013 C 
ENDROOT
BRANCH   9  18
HETATM   18  O4  UNL     1       9.336   2.171  26.815  1.00  0.00    -0.308 OA
BRANCH  18  19
HETATM   19  C10 UNL     1       8.984   3.185  27.669  1.00  0.00     0.255 C 
HETATM   20  C11 UNL     1       7.748   3.160  28.516  1.00  0.00     0.126 C 
HETATM   21  O5  UNL     1       9.738   4.186  27.744  1.00  0.00    -0.266 OA
ENDBRANCH  18  19
ENDBRANCH   9  18
BRANCH  13  22
HETATM   22  O6  UNL     1      10.451  -2.655  27.807  1.00  0.00    -0.316 OA
BRANCH  22  23
HETATM   23  C16 UNL     1      10.394  -3.417  28.966  1.00  0.00     0.255 C 
HETATM   24  C17 UNL     1      10.152  -4.878  28.939  1.00  0.00     0.126 C 
HETATM   25  O7  UNL     1      10.564  -2.789  30.051  1.00  0.00    -0.266 OA
ENDBRANCH  22  23
ENDBRANCH  13  22
BRANCH   3  26
HETATM   26  O2  UNL     1       9.952  -0.809  22.602  1.00  0.00    -0.395 OA
ATOM     27  H2  UNL     1      10.675  -0.444  23.099  1.00  0.00     0.210 HD
ENDBRANCH   3  26
BRANCH   1  28
HETATM   28  O1  UNL     1       9.030  -5.105  23.714  1.00  0.00    -0.390 OA
HETATM   29  C1  UNL     1       8.922  -5.249  22.335  1.00  0.00     0.202 C 
ENDBRANCH   1  28
TORSDOF 6
ENDMDL
