MODEL 1
REMARK VINA RESULT: -8.360515618      0.000      0.000
REMARK  5 active torsions:
REMARK  status: ('A' for Active; 'I' for Inactive)
REMARK    1  A    between atoms: C3_3  and  C4_4 
REMARK    2  A    between atoms: C4_4  and  C5_5 
REMARK    3  A    between atoms: C5_5  and  O2_7 
REMARK    4  A    between atoms: O2_7  and  C6_8 
REMARK    5  A    between atoms: C19_24  and  O6_25 
ROOT
HETATM    1  C6  UNL     1       8.522  -3.694  24.709  1.00  0.00     0.167 C 
HETATM    2  C7  UNL     1       9.385  -4.940  24.451  1.00  0.00     0.036 C 
HETATM    3  C8  UNL     1      10.601  -4.266  23.846  1.00  0.00     0.016 C 
HETATM    4  C9  UNL     1      10.850  -3.005  24.690  1.00  0.00     0.001 C 
HETATM    5  C10 UNL     1      11.984  -3.313  25.583  1.00  0.00     0.016 C 
HETATM    6  C11 UNL     1      12.344  -2.404  26.691  1.00  0.00     0.045 C 
HETATM    7  C12 UNL     1      11.715  -2.577  28.002  1.00  0.00     0.128 C 
HETATM    8  C13 UNL     1      12.662  -1.990  29.065  1.00  0.00     0.052 C 
HETATM    9  O3  UNL     1      11.696  -3.972  28.264  1.00  0.00    -0.224 OA
HETATM   10  O4  UNL     1      10.490  -4.332  28.545  1.00  0.00    -0.204 OA
HETATM   11  C14 UNL     1       9.619  -3.440  27.843  1.00  0.00     0.335 C 
HETATM   12  O5  UNL     1       9.765  -3.729  26.578  1.00  0.00    -0.340 OA
HETATM   13  C15 UNL     1       9.562  -2.921  25.521  1.00  0.00     0.103 C 
HETATM   14  C16 UNL     1       9.306  -1.496  25.712  1.00  0.00     0.031 C 
HETATM   15  C17 UNL     1       8.619  -1.090  26.961  1.00  0.00     0.011 C 
HETATM   16  C18 UNL     1       9.735  -0.934  28.014  1.00  0.00     0.047 C 
HETATM   17  C19 UNL     1      10.364  -2.186  28.339  1.00  0.00     0.143 C 
HETATM   18  C20 UNL     1       8.710  -0.889  24.429  1.00  0.00     0.086 C 
HETATM   19  C21 UNL     1       9.774  -1.141  23.415  1.00  0.00     0.128 C 
HETATM   20  O7  UNL     1       9.600  -0.785  22.278  1.00  0.00    -0.298 OA
HETATM   21  C22 UNL     1      11.036  -1.820  23.786  1.00  0.00     0.090 C 
ENDROOT
BRANCH   1  22
HETATM   22  O2  UNL     1       7.415  -3.972  25.513  1.00  0.00    -0.313 OA
BRANCH  22  23
HETATM   23  C5  UNL     1       6.100  -3.720  25.255  1.00  0.00     0.262 C 
HETATM   24  O1  UNL     1       5.524  -4.512  24.476  1.00  0.00    -0.265 OA
BRANCH  23  25
HETATM   25  C4  UNL     1       5.333  -2.581  25.834  1.00  0.00     0.138 C 
BRANCH  25  26
HETATM   26  C3  UNL     1       4.829  -2.944  27.186  1.00  0.00    -0.021 C 
HETATM   27  C2  UNL     1       5.602  -2.897  28.253  1.00  0.00    -0.034 C 
HETATM   28  C1  UNL     1       5.088  -3.261  29.597  1.00  0.00     0.036 C 
ENDBRANCH  25  26
ENDBRANCH  23  25
ENDBRANCH  22  23
ENDBRANCH   1  22
BRANCH  17  29
HETATM   29  O6  UNL     1      10.260  -2.332  29.759  1.00  0.00    -0.381 OA
ATOM     30  H6  UNL     1       9.660  -3.054  29.900  1.00  0.00     0.211 HD
ENDBRANCH  17  29
TORSDOF 5
ENDMDL
MODEL 2
REMARK VINA RESULT: -8.190059967      1.050      1.330
REMARK  5 active torsions:
REMARK  status: ('A' for Active; 'I' for Inactive)
REMARK    1  A    between atoms: C3_3  and  C4_4 
REMARK    2  A    between atoms: C4_4  and  C5_5 
REMARK    3  A    between atoms: C5_5  and  O2_7 
REMARK    4  A    between atoms: O2_7  and  C6_8 
REMARK    5  A    between atoms: C19_24  and  O6_25 
ROOT
HETATM    1  C6  UNL     1       8.583  -3.539  24.941  1.00  0.00     0.167 C 
HETATM    2  C7  UNL     1       9.436  -4.808  24.785  1.00  0.00     0.036 C 
HETATM    3  C8  UNL     1      10.639  -4.203  24.088  1.00  0.00     0.016 C 
HETATM    4  C9  UNL     1      10.912  -2.867  24.799  1.00  0.00     0.001 C 
HETATM    5  C10 UNL     1      12.067  -3.093  25.690  1.00  0.00     0.016 C 
HETATM    6  C11 UNL     1      12.457  -2.083  26.696  1.00  0.00     0.045 C 
HETATM    7  C12 UNL     1      11.859  -2.124  28.032  1.00  0.00     0.128 C 
HETATM    8  C13 UNL     1      12.834  -1.442  29.009  1.00  0.00     0.052 C 
HETATM    9  O3  UNL     1      11.843  -3.487  28.428  1.00  0.00    -0.224 OA
HETATM   10  O4  UNL     1      10.642  -3.811  28.772  1.00  0.00    -0.204 OA
HETATM   11  C14 UNL     1       9.758  -2.987  28.008  1.00  0.00     0.335 C 
HETATM   12  O5  UNL     1       9.872  -3.398  26.774  1.00  0.00    -0.340 OA
HETATM   13  C15 UNL     1       9.646  -2.696  25.649  1.00  0.00     0.103 C 
HETATM   14  C16 UNL     1       9.399  -1.258  25.706  1.00  0.00     0.031 C 
HETATM   15  C17 UNL     1       8.743  -0.728  26.926  1.00  0.00     0.011 C 
HETATM   16  C18 UNL     1       9.886  -0.477  27.931  1.00  0.00     0.047 C 
HETATM   17  C19 UNL     1      10.519  -1.695  28.361  1.00  0.00     0.143 C 
HETATM   18  C20 UNL     1       8.774  -0.775  24.385  1.00  0.00     0.086 C 
HETATM   19  C21 UNL     1       9.812  -1.131  23.375  1.00  0.00     0.128 C 
HETATM   20  O7  UNL     1       9.611  -0.886  22.213  1.00  0.00    -0.298 OA
HETATM   21  C22 UNL     1      11.080  -1.777  23.779  1.00  0.00     0.090 C 
ENDROOT
BRANCH   1  22
HETATM   22  O2  UNL     1       7.496  -3.731  25.794  1.00  0.00    -0.313 OA
BRANCH  22  23
HETATM   23  C5  UNL     1       6.168  -3.737  25.482  1.00  0.00     0.262 C 
HETATM   24  O1  UNL     1       5.599  -4.851  25.490  1.00  0.00    -0.265 OA
BRANCH  23  25
HETATM   25  C4  UNL     1       5.380  -2.520  25.138  1.00  0.00     0.138 C 
BRANCH  25  26
HETATM   26  C3  UNL     1       4.060  -2.559  25.825  1.00  0.00    -0.021 C 
HETATM   27  C2  UNL     1       2.926  -2.490  25.159  1.00  0.00    -0.034 C 
HETATM   28  C1  UNL     1       1.616  -2.530  25.855  1.00  0.00     0.036 C 
ENDBRANCH  25  26
ENDBRANCH  23  25
ENDBRANCH  22  23
ENDBRANCH   1  22
BRANCH  17  29
HETATM   29  O6  UNL     1      10.449  -1.701  29.791  1.00  0.00    -0.381 OA
ATOM     30  H6  UNL     1      11.327  -1.903  30.091  1.00  0.00     0.211 HD
ENDBRANCH  17  29
TORSDOF 5
ENDMDL
MODEL 3
REMARK VINA RESULT: -8.134567641      1.504      2.210
REMARK  5 active torsions:
REMARK  status: ('A' for Active; 'I' for Inactive)
REMARK    1  A    between atoms: C3_3  and  C4_4 
REMARK    2  A    between atoms: C4_4  and  C5_5 
REMARK    3  A    between atoms: C5_5  and  O2_7 
REMARK    4  A    between atoms: O2_7  and  C6_8 
REMARK    5  A    between atoms: C19_24  and  O6_25 
ROOT
HETATM    1  C6  UNL     1       7.760  -2.748  26.555  1.00  0.00     0.167 C 
HETATM    2  C7  UNL     1       7.942  -4.272  26.633  1.00  0.00     0.036 C 
HETATM    3  C8  UNL     1       8.889  -4.460  25.465  1.00  0.00     0.016 C 
HETATM    4  C9  UNL     1       9.899  -3.303  25.549  1.00  0.00     0.001 C 
HETATM    5  C10 UNL     1      11.142  -3.869  26.108  1.00  0.00     0.016 C 
HETATM    6  C11 UNL     1      12.248  -2.989  26.539  1.00  0.00     0.045 C 
HETATM    7  C12 UNL     1      12.274  -2.479  27.911  1.00  0.00     0.128 C 
HETATM    8  C13 UNL     1      13.737  -2.163  28.273  1.00  0.00     0.052 C 
HETATM    9  O3  UNL     1      11.917  -3.563  28.755  1.00  0.00    -0.224 OA
HETATM   10  O4  UNL     1      10.933  -3.205  29.508  1.00  0.00    -0.204 OA
HETATM   11  C14 UNL     1      10.187  -2.228  28.775  1.00  0.00     0.335 C 
HETATM   12  O5  UNL     1       9.632  -2.877  27.787  1.00  0.00    -0.340 OA
HETATM   13  C15 UNL     1       9.246  -2.389  26.595  1.00  0.00     0.103 C 
HETATM   14  C16 UNL     1       9.594  -1.026  26.202  1.00  0.00     0.031 C 
HETATM   15  C17 UNL     1       9.735  -0.021  27.283  1.00  0.00     0.011 C 
HETATM   16  C18 UNL     1      11.190  -0.149  27.777  1.00  0.00     0.047 C 
HETATM   17  C19 UNL     1      11.444  -1.410  28.421  1.00  0.00     0.143 C 
HETATM   18  C20 UNL     1       8.714  -0.575  25.022  1.00  0.00     0.086 C 
HETATM   19  C21 UNL     1       9.043  -1.571  23.961  1.00  0.00     0.128 C 
HETATM   20  O7  UNL     1       8.495  -1.493  22.891  1.00  0.00    -0.298 OA
HETATM   21  C22 UNL     1      10.029  -2.647  24.204  1.00  0.00     0.090 C 
ENDROOT
BRANCH   1  22
HETATM   22  O2  UNL     1       7.125  -2.230  27.684  1.00  0.00    -0.313 OA
BRANCH  22  23
HETATM   23  C5  UNL     1       6.277  -2.866  28.542  1.00  0.00     0.262 C 
HETATM   24  O1  UNL     1       6.736  -3.152  29.670  1.00  0.00    -0.265 OA
BRANCH  23  25
HETATM   25  C4  UNL     1       4.869  -3.233  28.215  1.00  0.00     0.138 C 
BRANCH  25  26
HETATM   26  C3  UNL     1       4.567  -2.878  26.802  1.00  0.00    -0.021 C 
HETATM   27  C2  UNL     1       3.336  -2.877  26.332  1.00  0.00    -0.034 C 
HETATM   28  C1  UNL     1       3.047  -2.521  24.920  1.00  0.00     0.036 C 
ENDBRANCH  25  26
ENDBRANCH  23  25
ENDBRANCH  22  23
ENDBRANCH   1  22
BRANCH  17  29
HETATM   29  O6  UNL     1      11.962  -1.102  29.719  1.00  0.00    -0.381 OA
ATOM     30  H6  UNL     1      11.318  -0.534  30.125  1.00  0.00     0.211 HD
ENDBRANCH  17  29
TORSDOF 5
ENDMDL
MODEL 4
REMARK VINA RESULT: -8.017469299      2.599      4.124
REMARK  5 active torsions:
REMARK  status: ('A' for Active; 'I' for Inactive)
REMARK    1  A    between atoms: C3_3  and  C4_4 
REMARK    2  A    between atoms: C4_4  and  C5_5 
REMARK    3  A    between atoms: C5_5  and  O2_7 
REMARK    4  A    between atoms: O2_7  and  C6_8 
REMARK    5  A    between atoms: C19_24  and  O6_25 
ROOT
HETATM    1  C6  UNL     1       9.430  -2.304  26.923  1.00  0.00     0.167 C 
HETATM    2  C7  UNL     1      10.568  -2.197  27.952  1.00  0.00     0.036 C 
HETATM    3  C8  UNL     1      11.746  -2.450  27.032  1.00  0.00     0.016 C 
HETATM    4  C9  UNL     1      11.453  -1.662  25.743  1.00  0.00     0.001 C 
HETATM    5  C10 UNL     1      12.289  -0.447  25.794  1.00  0.00     0.016 C 
HETATM    6  C11 UNL     1      12.089   0.651  24.825  1.00  0.00     0.045 C 
HETATM    7  C12 UNL     1      11.131   1.717  25.126  1.00  0.00     0.128 C 
HETATM    8  C13 UNL     1      11.556   2.973  24.344  1.00  0.00     0.052 C 
HETATM    9  O3  UNL     1      11.319   2.059  26.491  1.00  0.00    -0.224 OA
HETATM   10  O4  UNL     1      10.186   1.984  27.104  1.00  0.00    -0.204 OA
HETATM   11  C14 UNL     1       9.415   0.989  26.426  1.00  0.00     0.335 C 
HETATM   12  O5  UNL     1      10.006  -0.148  26.680  1.00  0.00    -0.340 OA
HETATM   13  C15 UNL     1       9.982  -1.271  25.940  1.00  0.00     0.103 C 
HETATM   14  C16 UNL     1       9.392  -1.269  24.604  1.00  0.00     0.031 C 
HETATM   15  C17 UNL     1       8.280  -0.321  24.352  1.00  0.00     0.011 C 
HETATM   16  C18 UNL     1       8.953   1.007  23.954  1.00  0.00     0.047 C 
HETATM   17  C19 UNL     1       9.693   1.597  25.038  1.00  0.00     0.143 C 
HETATM   18  C20 UNL     1       9.115  -2.713  24.146  1.00  0.00     0.086 C 
HETATM   19  C21 UNL     1      10.471  -3.334  24.164  1.00  0.00     0.128 C 
HETATM   20  O7  UNL     1      10.592  -4.493  23.858  1.00  0.00    -0.298 OA
HETATM   21  C22 UNL     1      11.665  -2.549  24.549  1.00  0.00     0.090 C 
ENDROOT
BRANCH   1  22
HETATM   22  O2  UNL     1       8.210  -1.858  27.433  1.00  0.00    -0.313 OA
BRANCH  22  23
HETATM   23  C5  UNL     1       7.233  -2.587  28.044  1.00  0.00     0.262 C 
HETATM   24  O1  UNL     1       7.480  -2.989  29.203  1.00  0.00    -0.265 OA
BRANCH  23  25
HETATM   25  C4  UNL     1       5.921  -2.924  27.421  1.00  0.00     0.138 C 
BRANCH  25  26
HETATM   26  C3  UNL     1       5.909  -2.490  25.998  1.00  0.00    -0.021 C 
HETATM   27  C2  UNL     1       4.795  -2.439  25.295  1.00  0.00    -0.034 C 
HETATM   28  C1  UNL     1       4.794  -2.004  23.876  1.00  0.00     0.036 C 
ENDBRANCH  25  26
ENDBRANCH  23  25
ENDBRANCH  22  23
ENDBRANCH   1  22
BRANCH  17  29
HETATM   29  O6  UNL     1       9.182   2.924  25.198  1.00  0.00    -0.381 OA
ATOM     30  H6  UNL     1       8.590   2.885  25.939  1.00  0.00     0.211 HD
ENDBRANCH  17  29
TORSDOF 5
ENDMDL
MODEL 5
REMARK VINA RESULT: -7.940032871      1.068      1.894
REMARK  5 active torsions:
REMARK  status: ('A' for Active; 'I' for Inactive)
REMARK    1  A    between atoms: C3_3  and  C4_4 
REMARK    2  A    between atoms: C4_4  and  C5_5 
REMARK    3  A    between atoms: C5_5  and  O2_7 
REMARK    4  A    between atoms: O2_7  and  C6_8 
REMARK    5  A    between atoms: C19_24  and  O6_25 
ROOT
HETATM    1  C6  UNL     1       8.553  -3.434  25.039  1.00  0.00     0.167 C 
HETATM    2  C7  UNL     1       9.339  -4.747  24.893  1.00  0.00     0.036 C 
HETATM    3  C8  UNL     1      10.569  -4.212  24.187  1.00  0.00     0.016 C 
HETATM    4  C9  UNL     1      10.913  -2.885  24.885  1.00  0.00     0.001 C 
HETATM    5  C10 UNL     1      12.058  -3.161  25.775  1.00  0.00     0.016 C 
HETATM    6  C11 UNL     1      12.502  -2.163  26.770  1.00  0.00     0.045 C 
HETATM    7  C12 UNL     1      11.908  -2.161  28.108  1.00  0.00     0.128 C 
HETATM    8  C13 UNL     1      12.919  -1.520  29.076  1.00  0.00     0.052 C 
HETATM    9  O3  UNL     1      11.822  -3.517  28.517  1.00  0.00    -0.224 OA
HETATM   10  O4  UNL     1      10.607  -3.776  28.868  1.00  0.00    -0.204 OA
HETATM   11  C14 UNL     1       9.764  -2.914  28.098  1.00  0.00     0.335 C 
HETATM   12  O5  UNL     1       9.853  -3.342  26.867  1.00  0.00    -0.340 OA
HETATM   13  C15 UNL     1       9.660  -2.641  25.736  1.00  0.00     0.103 C 
HETATM   14  C16 UNL     1       9.488  -1.191  25.780  1.00  0.00     0.031 C 
HETATM   15  C17 UNL     1       8.864  -0.616  26.996  1.00  0.00     0.011 C 
HETATM   16  C18 UNL     1      10.021  -0.415  27.996  1.00  0.00     0.047 C 
HETATM   17  C19 UNL     1      10.592  -1.660  28.436  1.00  0.00     0.143 C 
HETATM   18  C20 UNL     1       8.884  -0.690  24.456  1.00  0.00     0.086 C 
HETATM   19  C21 UNL     1       9.899  -1.108  23.447  1.00  0.00     0.128 C 
HETATM   20  O7  UNL     1       9.708  -0.864  22.283  1.00  0.00    -0.298 OA
HETATM   21  C22 UNL     1      11.134  -1.814  23.854  1.00  0.00     0.090 C 
ENDROOT
BRANCH   1  22
HETATM   22  O2  UNL     1       7.460  -3.562  25.897  1.00  0.00    -0.313 OA
BRANCH  22  23
HETATM   23  C5  UNL     1       6.135  -3.597  25.576  1.00  0.00     0.262 C 
HETATM   24  O1  UNL     1       5.671  -4.710  25.245  1.00  0.00    -0.265 OA
BRANCH  23  25
HETATM   25  C4  UNL     1       5.233  -2.410  25.598  1.00  0.00     0.138 C 
BRANCH  25  26
HETATM   26  C3  UNL     1       4.788  -2.085  24.215  1.00  0.00    -0.021 C 
HETATM   27  C2  UNL     1       5.639  -1.715  23.279  1.00  0.00    -0.034 C 
HETATM   28  C1  UNL     1       5.184  -1.395  21.903  1.00  0.00     0.036 C 
ENDBRANCH  25  26
ENDBRANCH  23  25
ENDBRANCH  22  23
ENDBRANCH   1  22
BRANCH  17  29
HETATM   29  O6  UNL     1      10.526  -1.649  29.866  1.00  0.00    -0.381 OA
ATOM     30  H6  UNL     1       9.842  -1.029  30.088  1.00  0.00     0.211 HD
ENDBRANCH  17  29
TORSDOF 5
ENDMDL
