MODEL 1
REMARK VINA RESULT: -5.815561215      0.000      0.000
REMARK  3 active torsions:
REMARK  status: ('A' for Active; 'I' for Inactive)
REMARK    1  A    between atoms: C6_10  and  C7_11 
REMARK    2  A    between atoms: C7_11  and  C8_12 
REMARK    3  A    between atoms: C8_12  and  C9_13 
ROOT
HETATM    1  F1  UNL     1      36.273   6.838  27.881  1.00  0.00    -0.204 F 
HETATM    2  C1  UNL     1      35.468   6.865  26.779  1.00  0.00     0.146 A 
HETATM    3  C2  UNL     1      34.792   8.071  26.628  1.00  0.00     0.074 A 
HETATM    4 CL1  UNL     1      34.953   9.395  27.793  1.00  0.00    -0.081 Cl
HETATM    5  C3  UNL     1      33.984   8.236  25.538  1.00  0.00     0.052 A 
HETATM    6  C4  UNL     1      33.865   7.200  24.619  1.00  0.00     0.058 A 
HETATM    7 CL2  UNL     1      32.824   7.404  23.224  1.00  0.00    -0.082 Cl
HETATM    8  C5  UNL     1      34.533   6.018  24.773  1.00  0.00     0.065 A 
HETATM    9 CL3  UNL     1      34.344   4.743  23.573  1.00  0.00    -0.082 Cl
HETATM   10  C6  UNL     1      35.367   5.839  25.895  1.00  0.00     0.006 A 
ENDROOT
BRANCH  10  11
HETATM   11  C7  UNL     1      36.014   4.550  26.051  1.00  0.00     0.045 C 
BRANCH  11  12
HETATM   12  C8  UNL     1      35.254   3.392  26.519  1.00  0.00     0.037 C 
BRANCH  12  13
HETATM   13  C9  UNL     1      35.247   2.092  25.854  1.00  0.00     0.187 C 
HETATM   14  C10 UNL     1      34.183   1.082  26.205  1.00  0.00     0.060 C 
HETATM   15  C11 UNL     1      35.274   0.058  26.514  1.00  0.00     0.235 C 
HETATM   16  N1  UNL     1      36.204   1.175  26.514  1.00  0.00    -0.071 N 
ATOM     17  H12 UNL     1      37.123   1.043  26.091  1.00  0.00     0.277 HD
ATOM     18  H11 UNL     1      36.619   1.462  27.401  1.00  0.00     0.277 HD
ENDBRANCH  12  13
ENDBRANCH  11  12
ENDBRANCH  10  11
TORSDOF 3
ENDMDL
MODEL 2
REMARK VINA RESULT: -5.219186120      2.167      3.119
REMARK  3 active torsions:
REMARK  status: ('A' for Active; 'I' for Inactive)
REMARK    1  A    between atoms: C6_10  and  C7_11 
REMARK    2  A    between atoms: C7_11  and  C8_12 
REMARK    3  A    between atoms: C8_12  and  C9_13 
ROOT
HETATM    1  F1  UNL     1      33.487   5.316  22.740  1.00  0.00    -0.204 F 
HETATM    2  C1  UNL     1      34.158   5.697  23.866  1.00  0.00     0.146 A 
HETATM    3  C2  UNL     1      34.065   7.060  24.122  1.00  0.00     0.074 A 
HETATM    4 CL1  UNL     1      33.189   8.163  23.048  1.00  0.00    -0.081 Cl
HETATM    5  C3  UNL     1      34.663   7.558  25.246  1.00  0.00     0.052 A 
HETATM    6  C4  UNL     1      35.342   6.690  26.093  1.00  0.00     0.058 A 
HETATM    7 CL2  UNL     1      36.117   7.324  27.531  1.00  0.00    -0.082 Cl
HETATM    8  C5  UNL     1      35.430   5.350  25.835  1.00  0.00     0.065 A 
HETATM    9 CL3  UNL     1      36.302   4.301  26.948  1.00  0.00    -0.082 Cl
HETATM   10  C6  UNL     1      34.817   4.830  24.678  1.00  0.00     0.006 A 
ENDROOT
BRANCH  10  11
HETATM   11  C7  UNL     1      34.981   3.413  24.412  1.00  0.00     0.045 C 
BRANCH  11  12
HETATM   12  C8  UNL     1      34.046   2.441  24.977  1.00  0.00     0.037 C 
BRANCH  12  13
HETATM   13  C9  UNL     1      34.437   1.133  25.494  1.00  0.00     0.187 C 
HETATM   14  C10 UNL     1      35.135   1.039  26.829  1.00  0.00     0.060 C 
HETATM   15  C11 UNL     1      36.271   0.262  26.167  1.00  0.00     0.235 C 
HETATM   16  N1  UNL     1      35.725   0.711  24.897  1.00  0.00    -0.071 N 
ATOM     17  H12 UNL     1      35.706   0.055  24.116  1.00  0.00     0.277 HD
ATOM     18  H11 UNL     1      36.255   1.392  24.353  1.00  0.00     0.277 HD
ENDBRANCH  12  13
ENDBRANCH  11  12
ENDBRANCH  10  11
TORSDOF 3
ENDMDL
MODEL 3
REMARK VINA RESULT: -5.069282007      4.923      6.973
REMARK  3 active torsions:
REMARK  status: ('A' for Active; 'I' for Inactive)
REMARK    1  A    between atoms: C6_10  and  C7_11 
REMARK    2  A    between atoms: C7_11  and  C8_12 
REMARK    3  A    between atoms: C8_12  and  C9_13 
ROOT
HETATM    1  F1  UNL     1      30.533   9.131  28.075  1.00  0.00    -0.204 F 
HETATM    2  C1  UNL     1      30.733  10.353  27.501  1.00  0.00     0.146 A 
HETATM    3  C2  UNL     1      29.653  10.779  26.736  1.00  0.00     0.074 A 
HETATM    4 CL1  UNL     1      28.201   9.788  26.521  1.00  0.00    -0.081 Cl
HETATM    5  C3  UNL     1      29.717  12.008  26.141  1.00  0.00     0.052 A 
HETATM    6  C4  UNL     1      30.853  12.789  26.319  1.00  0.00     0.058 A 
HETATM    7 CL2  UNL     1      30.943  14.362  25.552  1.00  0.00    -0.082 Cl
HETATM    8  C5  UNL     1      31.911  12.363  27.072  1.00  0.00     0.065 A 
HETATM    9 CL3  UNL     1      33.322  13.399  27.262  1.00  0.00    -0.082 Cl
HETATM   10  C6  UNL     1      31.854  11.097  27.688  1.00  0.00     0.006 A 
ENDROOT
BRANCH  10  11
HETATM   11  C7  UNL     1      33.020  10.660  28.431  1.00  0.00     0.045 C 
BRANCH  11  12
HETATM   12  C8  UNL     1      34.103   9.945  27.757  1.00  0.00     0.037 C 
BRANCH  12  13
HETATM   13  C9  UNL     1      34.060   8.526  27.415  1.00  0.00     0.187 C 
HETATM   14  C10 UNL     1      35.287   7.863  26.839  1.00  0.00     0.060 C 
HETATM   15  C11 UNL     1      34.455   7.386  25.649  1.00  0.00     0.235 C 
HETATM   16  N1  UNL     1      33.446   8.341  26.081  1.00  0.00    -0.071 N 
ATOM     17  H12 UNL     1      32.465   8.067  26.030  1.00  0.00     0.277 HD
ATOM     18  H11 UNL     1      33.279   9.165  25.503  1.00  0.00     0.277 HD
ENDBRANCH  12  13
ENDBRANCH  11  12
ENDBRANCH  10  11
TORSDOF 3
ENDMDL
MODEL 4
REMARK VINA RESULT: -5.057664726      4.362      6.258
REMARK  3 active torsions:
REMARK  status: ('A' for Active; 'I' for Inactive)
REMARK    1  A    between atoms: C6_10  and  C7_11 
REMARK    2  A    between atoms: C7_11  and  C8_12 
REMARK    3  A    between atoms: C8_12  and  C9_13 
ROOT
HETATM    1  F1  UNL     1      32.048   9.046  26.092  1.00  0.00    -0.204 F 
HETATM    2  C1  UNL     1      32.091   9.665  27.308  1.00  0.00     0.146 A 
HETATM    3  C2  UNL     1      30.831   9.950  27.820  1.00  0.00     0.074 A 
HETATM    4 CL1  UNL     1      29.345   9.570  26.934  1.00  0.00    -0.081 Cl
HETATM    5  C3  UNL     1      30.742  10.536  29.052  1.00  0.00     0.052 A 
HETATM    6  C4  UNL     1      31.908  10.825  29.751  1.00  0.00     0.058 A 
HETATM    7 CL2  UNL     1      31.799  11.582  31.327  1.00  0.00    -0.082 Cl
HETATM    8  C5  UNL     1      33.144  10.542  29.241  1.00  0.00     0.065 A 
HETATM    9 CL3  UNL     1      34.585  10.930  30.176  1.00  0.00    -0.082 Cl
HETATM   10  C6  UNL     1      33.244   9.940  27.971  1.00  0.00     0.006 A 
ENDROOT
BRANCH  10  11
HETATM   11  C7  UNL     1      34.575   9.707  27.443  1.00  0.00     0.045 C 
BRANCH  11  12
HETATM   12  C8  UNL     1      35.251   8.432  27.676  1.00  0.00     0.037 C 
BRANCH  12  13
HETATM   13  C9  UNL     1      35.545   7.456  26.630  1.00  0.00     0.187 C 
HETATM   14  C10 UNL     1      35.699   7.920  25.202  1.00  0.00     0.060 C 
HETATM   15  C11 UNL     1      34.634   6.913  24.773  1.00  0.00     0.235 C 
HETATM   16  N1  UNL     1      34.298   6.796  26.182  1.00  0.00    -0.071 N 
ATOM     17  H12 UNL     1      34.076   5.872  26.554  1.00  0.00     0.277 HD
ATOM     18  H11 UNL     1      33.406   7.173  26.503  1.00  0.00     0.277 HD
ENDBRANCH  12  13
ENDBRANCH  11  12
ENDBRANCH  10  11
TORSDOF 3
ENDMDL
MODEL 5
REMARK VINA RESULT: -4.880168077      4.922      6.780
REMARK  3 active torsions:
REMARK  status: ('A' for Active; 'I' for Inactive)
REMARK    1  A    between atoms: C6_10  and  C7_11 
REMARK    2  A    between atoms: C7_11  and  C8_12 
REMARK    3  A    between atoms: C8_12  and  C9_13 
ROOT
HETATM    1  F1  UNL     1      33.682  13.044  27.029  1.00  0.00    -0.204 F 
HETATM    2  C1  UNL     1      32.491  12.432  27.296  1.00  0.00     0.146 A 
HETATM    3  C2  UNL     1      31.396  13.128  26.797  1.00  0.00     0.074 A 
HETATM    4 CL1  UNL     1      31.569  14.670  25.943  1.00  0.00    -0.081 Cl
HETATM    5  C3  UNL     1      30.149  12.595  26.966  1.00  0.00     0.052 A 
HETATM    6  C4  UNL     1      30.015  11.380  27.628  1.00  0.00     0.058 A 
HETATM    7 CL2  UNL     1      28.418  10.696  27.853  1.00  0.00    -0.082 Cl
HETATM    8  C5  UNL     1      31.097  10.701  28.116  1.00  0.00     0.065 A 
HETATM    9 CL3  UNL     1      30.863   9.165  28.943  1.00  0.00    -0.082 Cl
HETATM   10  C6  UNL     1      32.386  11.245  27.947  1.00  0.00     0.006 A 
ENDROOT
BRANCH  10  11
HETATM   11  C7  UNL     1      33.500  10.521  28.529  1.00  0.00     0.045 C 
BRANCH  11  12
HETATM   12  C8  UNL     1      34.414   9.761  27.677  1.00  0.00     0.037 C 
BRANCH  12  13
HETATM   13  C9  UNL     1      34.184   8.382  27.254  1.00  0.00     0.187 C 
HETATM   14  C10 UNL     1      35.255   7.653  26.481  1.00  0.00     0.060 C 
HETATM   15  C11 UNL     1      34.238   7.348  25.382  1.00  0.00     0.235 C 
HETATM   16  N1  UNL     1      33.394   8.357  26.001  1.00  0.00    -0.071 N 
ATOM     17  H12 UNL     1      32.391   8.181  26.062  1.00  0.00     0.277 HD
ATOM     18  H11 UNL     1      33.242   9.235  25.505  1.00  0.00     0.277 HD
ENDBRANCH  12  13
ENDBRANCH  11  12
ENDBRANCH  10  11
TORSDOF 3
ENDMDL
