MODEL 1
REMARK VINA RESULT: -6.326685493      0.000      0.000
REMARK  3 active torsions:
REMARK  status: ('A' for Active; 'I' for Inactive)
REMARK    1  A    between atoms: C2_4  and  C3_5 
REMARK    2  A    between atoms: C4_6  and  N1_7 
REMARK    3  A    between atoms: N1_7  and  C5_9 
ROOT
HETATM    1  C3  UNL     1      34.965   4.949  25.330  1.00  0.00     0.001 C 
HETATM    2  C4  UNL     1      34.411   3.785  25.550  1.00  0.00     0.080 C 
ENDROOT
BRANCH   1   3
HETATM    3  C2  UNL     1      34.598   6.118  26.145  1.00  0.00     0.093 A 
HETATM    4  C1  UNL     1      34.220   7.407  25.524  1.00  0.00     0.159 A 
HETATM    5 CL1  UNL     1      34.150   7.486  23.749  1.00  0.00    -0.097 Cl
HETATM    6 CL2  UNL     1      33.126   8.443  26.464  1.00  0.00    -0.097 Cl
HETATM    7  C9  UNL     1      35.610   7.255  26.090  1.00  0.00     0.159 A 
HETATM    8 CL3  UNL     1      36.962   7.132  24.974  1.00  0.00    -0.097 Cl
HETATM    9 CL4  UNL     1      35.960   8.124  27.615  1.00  0.00    -0.097 Cl
ENDBRANCH   1   3
BRANCH   2  10
HETATM   10  N1  UNL     1      34.760   2.646  24.766  1.00  0.00    -0.395 N 
ATOM     11  H1  UNL     1      35.102   2.785  23.815  1.00  0.00     0.159 HD
BRANCH  10  12
HETATM   12  C5  UNL     1      34.644   1.313  25.275  1.00  0.00     0.081 C 
HETATM   13  C6  UNL     1      35.801   0.383  24.939  1.00  0.00     0.025 C 
HETATM   14  C7  UNL     1      36.334   0.485  26.347  1.00  0.00     0.004 C 
HETATM   15  C8  UNL     1      35.026   1.149  26.740  1.00  0.00     0.025 C 
ENDBRANCH  10  12
ENDBRANCH   2  10
TORSDOF 3
ENDMDL
MODEL 2
REMARK VINA RESULT: -6.093837157      3.805      5.994
REMARK  3 active torsions:
REMARK  status: ('A' for Active; 'I' for Inactive)
REMARK    1  A    between atoms: C2_4  and  C3_5 
REMARK    2  A    between atoms: C4_6  and  N1_7 
REMARK    3  A    between atoms: N1_7  and  C5_9 
ROOT
HETATM    1  C3  UNL     1      34.383   3.754  25.028  1.00  0.00     0.001 C 
HETATM    2  C4  UNL     1      34.696   4.776  24.275  1.00  0.00     0.080 C 
ENDROOT
BRANCH   1   3
HETATM    3  C2  UNL     1      35.048   2.454  24.840  1.00  0.00     0.093 A 
HETATM    4  C1  UNL     1      34.297   1.182  24.919  1.00  0.00     0.159 A 
HETATM    5 CL1  UNL     1      32.540   1.267  25.177  1.00  0.00    -0.097 Cl
HETATM    6 CL2  UNL     1      34.953  -0.178  23.985  1.00  0.00    -0.097 Cl
HETATM    7  C9  UNL     1      35.126   1.609  26.105  1.00  0.00     0.159 A 
HETATM    8 CL3  UNL     1      34.298   2.169  27.550  1.00  0.00    -0.097 Cl
HETATM    9 CL4  UNL     1      36.640   0.703  26.399  1.00  0.00    -0.097 Cl
ENDBRANCH   1   3
BRANCH   2  10
HETATM   10  N1  UNL     1      34.058   6.039  24.449  1.00  0.00    -0.395 N 
ATOM     11  H1  UNL     1      33.047   6.104  24.329  1.00  0.00     0.159 HD
BRANCH  10  12
HETATM   12  C5  UNL     1      34.795   7.219  24.787  1.00  0.00     0.081 C 
HETATM   13  C6  UNL     1      34.498   7.802  26.161  1.00  0.00     0.025 C 
HETATM   14  C7  UNL     1      35.803   7.272  26.703  1.00  0.00     0.004 C 
HETATM   15  C8  UNL     1      36.216   6.971  25.273  1.00  0.00     0.025 C 
ENDBRANCH  10  12
ENDBRANCH   2  10
TORSDOF 3
ENDMDL
MODEL 3
REMARK VINA RESULT: -6.035349765      3.848      6.176
REMARK  3 active torsions:
REMARK  status: ('A' for Active; 'I' for Inactive)
REMARK    1  A    between atoms: C2_4  and  C3_5 
REMARK    2  A    between atoms: C4_6  and  N1_7 
REMARK    3  A    between atoms: N1_7  and  C5_9 
ROOT
HETATM    1  C3  UNL     1      34.522   3.836  25.946  1.00  0.00     0.001 C 
HETATM    2  C4  UNL     1      34.903   5.056  25.673  1.00  0.00     0.080 C 
ENDROOT
BRANCH   1   3
HETATM    3  C2  UNL     1      35.243   2.683  25.381  1.00  0.00     0.093 A 
HETATM    4  C1  UNL     1      34.533   1.451  24.972  1.00  0.00     0.159 A 
HETATM    5 CL1  UNL     1      32.761   1.425  25.114  1.00  0.00    -0.097 Cl
HETATM    6 CL2  UNL     1      35.296   0.494  23.686  1.00  0.00    -0.097 Cl
HETATM    7  C9  UNL     1      35.267   1.461  26.290  1.00  0.00     0.159 A 
HETATM    8 CL3  UNL     1      34.327   1.491  27.775  1.00  0.00    -0.097 Cl
HETATM    9 CL4  UNL     1      36.789   0.525  26.373  1.00  0.00    -0.097 Cl
ENDBRANCH   1   3
BRANCH   2  10
HETATM   10  N1  UNL     1      34.212   6.180  26.215  1.00  0.00    -0.395 N 
ATOM     11  H1  UNL     1      33.571   6.037  26.996  1.00  0.00     0.159 HD
BRANCH  10  12
HETATM   12  C5  UNL     1      34.391   7.502  25.695  1.00  0.00     0.081 C 
HETATM   13  C6  UNL     1      35.486   8.323  26.361  1.00  0.00     0.025 C 
HETATM   14  C7  UNL     1      36.398   8.126  25.175  1.00  0.00     0.004 C 
HETATM   15  C8  UNL     1      35.204   7.582  24.411  1.00  0.00     0.025 C 
ENDBRANCH  10  12
ENDBRANCH   2  10
TORSDOF 3
ENDMDL
MODEL 4
REMARK VINA RESULT: -5.993647636      3.896      6.261
REMARK  3 active torsions:
REMARK  status: ('A' for Active; 'I' for Inactive)
REMARK    1  A    between atoms: C2_4  and  C3_5 
REMARK    2  A    between atoms: C4_6  and  N1_7 
REMARK    3  A    between atoms: N1_7  and  C5_9 
ROOT
HETATM    1  C3  UNL     1      35.178   3.647  25.623  1.00  0.00     0.001 C 
HETATM    2  C4  UNL     1      34.509   4.769  25.636  1.00  0.00     0.080 C 
ENDROOT
BRANCH   1   3
HETATM    3  C2  UNL     1      34.680   2.488  24.863  1.00  0.00     0.093 A 
HETATM    4  C1  UNL     1      33.986   1.365  25.531  1.00  0.00     0.159 A 
HETATM    5 CL1  UNL     1      33.700   1.486  27.282  1.00  0.00    -0.097 Cl
HETATM    6 CL2  UNL     1      32.822   0.459  24.542  1.00  0.00    -0.097 Cl
HETATM    7  C9  UNL     1      35.433   1.193  25.143  1.00  0.00     0.159 A 
HETATM    8 CL3  UNL     1      36.647   1.178  26.414  1.00  0.00    -0.097 Cl
HETATM    9 CL4  UNL     1      35.775   0.120  23.753  1.00  0.00    -0.097 Cl
ENDBRANCH   1   3
BRANCH   2  10
HETATM   10  N1  UNL     1      34.982   5.898  26.368  1.00  0.00    -0.395 N 
ATOM     11  H1  UNL     1      35.536   5.744  27.211  1.00  0.00     0.159 HD
BRANCH  10  12
HETATM   12  C5  UNL     1      34.702   7.240  25.955  1.00  0.00     0.081 C 
HETATM   13  C6  UNL     1      35.677   8.295  26.458  1.00  0.00     0.025 C 
HETATM   14  C7  UNL     1      36.318   8.397  25.096  1.00  0.00     0.004 C 
HETATM   15  C8  UNL     1      35.158   7.586  24.545  1.00  0.00     0.025 C 
ENDBRANCH  10  12
ENDBRANCH   2  10
TORSDOF 3
ENDMDL
MODEL 5
REMARK VINA RESULT: -5.855734896      4.117      6.417
REMARK  3 active torsions:
REMARK  status: ('A' for Active; 'I' for Inactive)
REMARK    1  A    between atoms: C2_4  and  C3_5 
REMARK    2  A    between atoms: C4_6  and  N1_7 
REMARK    3  A    between atoms: N1_7  and  C5_9 
ROOT
HETATM    1  C3  UNL     1      35.103   2.846  26.039  1.00  0.00     0.001 C 
HETATM    2  C4  UNL     1      34.256   3.838  26.121  1.00  0.00     0.080 C 
ENDROOT
BRANCH   1   3
HETATM    3  C2  UNL     1      34.627   1.453  26.057  1.00  0.00     0.093 A 
HETATM    4  C1  UNL     1      35.569   0.314  26.129  1.00  0.00     0.159 A 
HETATM    5 CL1  UNL     1      37.304   0.676  26.270  1.00  0.00    -0.097 Cl
HETATM    6 CL2  UNL     1      34.949  -1.173  26.875  1.00  0.00    -0.097 Cl
HETATM    7  C9  UNL     1      34.961   0.668  24.795  1.00  0.00     0.159 A 
HETATM    8 CL3  UNL     1      35.985   1.416  23.578  1.00  0.00    -0.097 Cl
HETATM    9 CL4  UNL     1      33.711  -0.441  24.157  1.00  0.00    -0.097 Cl
ENDBRANCH   1   3
BRANCH   2  10
HETATM   10  N1  UNL     1      34.706   5.192  26.105  1.00  0.00    -0.395 N 
ATOM     11  H1  UNL     1      34.594   5.760  26.945  1.00  0.00     0.159 HD
BRANCH  10  12
HETATM   12  C5  UNL     1      35.311   5.775  24.946  1.00  0.00     0.081 C 
HETATM   13  C6  UNL     1      34.603   7.000  24.387  1.00  0.00     0.025 C 
HETATM   14  C7  UNL     1      35.665   7.911  24.951  1.00  0.00     0.004 C 
HETATM   15  C8  UNL     1      36.504   6.676  25.229  1.00  0.00     0.025 C 
ENDBRANCH  10  12
ENDBRANCH   2  10
TORSDOF 3
ENDMDL
