MODEL 1
REMARK VINA RESULT: -4.671871841      0.000      0.000
REMARK  2 active torsions:
REMARK  status: ('A' for Active; 'I' for Inactive)
REMARK    1  A    between atoms: C1_2  and  C2_4 
REMARK    2  A    between atoms: C2_4  and  C3_5 
ROOT
HETATM    1  C3  UNL     1      30.185  11.965  27.116  1.00  0.00     0.045 C 
HETATM    2  C4  UNL     1      29.157  11.139  26.495  1.00  0.00     0.054 C 
HETATM    3 CL1  UNL     1      27.936  11.605  25.340  1.00  0.00    -0.085 Cl
HETATM    4  C5  UNL     1      29.206   9.834  26.837  1.00  0.00     0.118 C 
HETATM    5 CL2  UNL     1      28.014   8.771  26.157  1.00  0.00    -0.063 Cl
HETATM    6  N1  UNL     1      30.264   9.379  27.709  1.00  0.00    -0.374 N 
ATOM      7  H1  UNL     1      30.099   8.742  28.488  1.00  0.00     0.161 HD
HETATM    8  C6  UNL     1      31.576   9.898  27.391  1.00  0.00     0.091 C 
HETATM    9  C7  UNL     1      32.551   9.858  28.527  1.00  0.00     0.009 C 
HETATM   10  C8  UNL     1      32.107  10.689  29.686  1.00  0.00     0.007 C 
HETATM   11  C9  UNL     1      32.245  12.132  29.206  1.00  0.00     0.005 C 
HETATM   12  C10 UNL     1      32.609  11.986  27.754  1.00  0.00    -0.007 C 
HETATM   13  C11 UNL     1      33.599  10.809  27.905  1.00  0.00     0.011 C 
HETATM   14  C12 UNL     1      31.535  11.323  26.920  1.00  0.00     0.022 C 
ENDROOT
BRANCH   1  15
HETATM   15  C2  UNL     1      30.197  13.406  26.877  1.00  0.00     0.082 C 
BRANCH  15  16
HETATM   16  C1  UNL     1      30.556  13.962  25.567  1.00  0.00     0.353 C 
HETATM   17  F1  UNL     1      30.710  13.178  24.494  1.00  0.00    -0.214 F 
HETATM   18  F2  UNL     1      31.814  14.596  25.743  1.00  0.00    -0.214 F 
ENDBRANCH  15  16
ENDBRANCH   1  15
TORSDOF 2
ENDMDL
MODEL 2
REMARK VINA RESULT: -4.503611164      2.633      3.667
REMARK  2 active torsions:
REMARK  status: ('A' for Active; 'I' for Inactive)
REMARK    1  A    between atoms: C1_2  and  C2_4 
REMARK    2  A    between atoms: C2_4  and  C3_5 
ROOT
HETATM    1  C3  UNL     1      29.444  11.070  26.861  1.00  0.00     0.045 C 
HETATM    2  C4  UNL     1      29.481  12.030  25.765  1.00  0.00     0.054 C 
HETATM    3 CL1  UNL     1      28.177  12.555  24.732  1.00  0.00    -0.085 Cl
HETATM    4  C5  UNL     1      30.683  12.614  25.572  1.00  0.00     0.118 C 
HETATM    5 CL2  UNL     1      30.829  13.764  24.281  1.00  0.00    -0.063 Cl
HETATM    6  N1  UNL     1      31.768  12.290  26.469  1.00  0.00    -0.374 N 
ATOM      7  H1  UNL     1      32.715  12.101  26.140  1.00  0.00     0.161 HD
HETATM    8  C6  UNL     1      31.408  12.257  27.869  1.00  0.00     0.091 C 
HETATM    9  C7  UNL     1      32.339  11.461  28.730  1.00  0.00     0.009 C 
HETATM   10  C8  UNL     1      32.385  10.021  28.337  1.00  0.00     0.007 C 
HETATM   11  C9  UNL     1      31.025   9.462  28.747  1.00  0.00     0.005 C 
HETATM   12  C10 UNL     1      30.265  10.680  29.197  1.00  0.00    -0.007 C 
HETATM   13  C11 UNL     1      31.415  11.369  29.966  1.00  0.00     0.011 C 
HETATM   14  C12 UNL     1      30.035  11.695  28.099  1.00  0.00     0.022 C 
ENDROOT
BRANCH   1  15
HETATM   15  C2  UNL     1      28.218  10.322  27.127  1.00  0.00     0.082 C 
BRANCH  15  16
HETATM   16  C1  UNL     1      27.907   9.083  26.406  1.00  0.00     0.353 C 
HETATM   17  F1  UNL     1      28.863   8.209  26.072  1.00  0.00    -0.214 F 
HETATM   18  F2  UNL     1      27.327   9.483  25.174  1.00  0.00    -0.214 F 
ENDBRANCH  15  16
ENDBRANCH   1  15
TORSDOF 2
ENDMDL
MODEL 3
REMARK VINA RESULT: -4.201197459      3.724      4.981
REMARK  2 active torsions:
REMARK  status: ('A' for Active; 'I' for Inactive)
REMARK    1  A    between atoms: C1_2  and  C2_4 
REMARK    2  A    between atoms: C2_4  and  C3_5 
ROOT
HETATM    1  C3  UNL     1      33.475  10.610  28.133  1.00  0.00     0.045 C 
HETATM    2  C4  UNL     1      34.222   9.438  27.693  1.00  0.00     0.054 C 
HETATM    3 CL1  UNL     1      35.745   8.831  28.290  1.00  0.00    -0.085 Cl
HETATM    4  C5  UNL     1      33.613   8.715  26.730  1.00  0.00     0.118 C 
HETATM    5 CL2  UNL     1      34.431   7.305  26.133  1.00  0.00    -0.063 Cl
HETATM    6  N1  UNL     1      32.302   9.119  26.277  1.00  0.00    -0.374 N 
ATOM      7  H1  UNL     1      32.044   9.143  25.290  1.00  0.00     0.161 HD
HETATM    8  C6  UNL     1      31.384   9.486  27.331  1.00  0.00     0.091 C 
HETATM    9  C7  UNL     1      30.248  10.356  26.890  1.00  0.00     0.009 C 
HETATM   10  C8  UNL     1      30.714  11.667  26.347  1.00  0.00     0.007 C 
HETATM   11  C9  UNL     1      31.236  12.428  27.564  1.00  0.00     0.005 C 
HETATM   12  C10 UNL     1      31.162  11.413  28.672  1.00  0.00    -0.007 C 
HETATM   13  C11 UNL     1      29.794  10.799  28.300  1.00  0.00     0.011 C 
HETATM   14  C12 UNL     1      32.058  10.212  28.459  1.00  0.00     0.022 C 
ENDROOT
BRANCH   1  15
HETATM   15  C2  UNL     1      34.059  11.511  29.124  1.00  0.00     0.082 C 
BRANCH  15  16
HETATM   16  C1  UNL     1      34.185  11.120  30.532  1.00  0.00     0.353 C 
HETATM   17  F1  UNL     1      33.753  11.913  31.520  1.00  0.00    -0.214 F 
HETATM   18  F2  UNL     1      35.575  10.961  30.771  1.00  0.00    -0.214 F 
ENDBRANCH  15  16
ENDBRANCH   1  15
TORSDOF 2
ENDMDL
MODEL 4
REMARK VINA RESULT: -4.134803018      3.564      4.848
REMARK  2 active torsions:
REMARK  status: ('A' for Active; 'I' for Inactive)
REMARK    1  A    between atoms: C1_2  and  C2_4 
REMARK    2  A    between atoms: C2_4  and  C3_5 
ROOT
HETATM    1  C3  UNL     1      32.268  10.644  28.966  1.00  0.00     0.045 C 
HETATM    2  C4  UNL     1      32.205  10.640  30.422  1.00  0.00     0.054 C 
HETATM    3 CL1  UNL     1      33.502  10.855  31.569  1.00  0.00    -0.085 Cl
HETATM    4  C5  UNL     1      30.962  10.497  30.929  1.00  0.00     0.118 C 
HETATM    5 CL2  UNL     1      30.786  10.470  32.655  1.00  0.00    -0.063 Cl
HETATM    6  N1  UNL     1      29.842  10.421  30.019  1.00  0.00    -0.374 N 
ATOM      7  H1  UNL     1      29.088   9.743  30.131  1.00  0.00     0.161 HD
HETATM    8  C6  UNL     1      29.873  11.381  28.939  1.00  0.00     0.091 C 
HETATM    9  C7  UNL     1      29.040  11.006  27.752  1.00  0.00     0.009 C 
HETATM   10  C8  UNL     1      29.497   9.734  27.116  1.00  0.00     0.007 C 
HETATM   11  C9  UNL     1      30.832  10.084  26.463  1.00  0.00     0.005 C 
HETATM   12  C10 UNL     1      31.090  11.493  26.922  1.00  0.00    -0.007 C 
HETATM   13  C11 UNL     1      29.649  12.029  26.766  1.00  0.00     0.011 C 
HETATM   14  C12 UNL     1      31.261  11.624  28.421  1.00  0.00     0.022 C 
ENDROOT
BRANCH   1  15
HETATM   15  C2  UNL     1      33.564  10.724  28.298  1.00  0.00     0.082 C 
BRANCH  15  16
HETATM   16  C1  UNL     1      34.304   9.516  27.916  1.00  0.00     0.353 C 
HETATM   17  F1  UNL     1      35.072   9.482  26.821  1.00  0.00    -0.214 F 
HETATM   18  F2  UNL     1      33.326   8.508  27.710  1.00  0.00    -0.214 F 
ENDBRANCH  15  16
ENDBRANCH   1  15
TORSDOF 2
ENDMDL
MODEL 5
REMARK VINA RESULT: -4.133335411      3.969      5.223
REMARK  2 active torsions:
REMARK  status: ('A' for Active; 'I' for Inactive)
REMARK    1  A    between atoms: C1_2  and  C2_4 
REMARK    2  A    between atoms: C2_4  and  C3_5 
ROOT
HETATM    1  C3  UNL     1      32.948  10.671  28.587  1.00  0.00     0.045 C 
HETATM    2  C4  UNL     1      33.422  11.039  29.915  1.00  0.00     0.054 C 
HETATM    3 CL1  UNL     1      35.057  11.050  30.523  1.00  0.00    -0.085 Cl
HETATM    4  C5  UNL     1      32.457  11.471  30.754  1.00  0.00     0.118 C 
HETATM    5 CL2  UNL     1      32.923  11.922  32.364  1.00  0.00    -0.063 Cl
HETATM    6  N1  UNL     1      31.103  11.580  30.264  1.00  0.00    -0.374 N 
ATOM      7  H1  UNL     1      30.297  11.260  30.801  1.00  0.00     0.161 HD
HETATM    8  C6  UNL     1      30.979  12.177  28.954  1.00  0.00     0.091 C 
HETATM    9  C7  UNL     1      29.704  11.848  28.239  1.00  0.00     0.009 C 
HETATM   10  C8  UNL     1      29.560  10.383  27.982  1.00  0.00     0.007 C 
HETATM   11  C9  UNL     1      30.606  10.072  26.914  1.00  0.00     0.005 C 
HETATM   12  C10 UNL     1      31.362  11.364  26.773  1.00  0.00    -0.007 C 
HETATM   13  C11 UNL     1      30.150  12.321  26.837  1.00  0.00     0.011 C 
HETATM   14  C12 UNL     1      32.095  11.782  28.030  1.00  0.00     0.022 C 
ENDROOT
BRANCH   1  15
HETATM   15  C2  UNL     1      33.886  10.125  27.609  1.00  0.00     0.082 C 
BRANCH  15  16
HETATM   16  C1  UNL     1      34.135   8.682  27.512  1.00  0.00     0.353 C 
HETATM   17  F1  UNL     1      35.368   8.176  27.635  1.00  0.00    -0.214 F 
HETATM   18  F2  UNL     1      33.709   8.299  26.213  1.00  0.00    -0.214 F 
ENDBRANCH  15  16
ENDBRANCH   1  15
TORSDOF 2
ENDMDL
