MODEL 1
REMARK VINA RESULT: -8.226940889      0.000      0.000
REMARK  14 active torsions:
REMARK  status: ('A' for Active; 'I' for Inactive)
REMARK    1  A    between atoms: C2_2  and  C3_3 
REMARK       I    between atoms: C3_3  and  N1_5 
REMARK    2  A    between atoms: N2_8  and  C6_9 
REMARK    3  A    between atoms: C8_11  and  O2_12 
REMARK    4  A    between atoms: O2_12  and  C9_13 
REMARK    5  A    between atoms: C11_15  and  N3_16 
REMARK    6  A    between atoms: N3_16  and  C12_18 
REMARK    7  A    between atoms: C14_22  and  C15_23 
REMARK    8  A    between atoms: C16_26  and  N5_27 
REMARK    9  A    between atoms: N5_27  and  C17_29 
REMARK   10  A    between atoms: C22_36  and  O5_37 
REMARK   11  A    between atoms: O5_37  and  C23_38 
REMARK   12  A    between atoms: C23_38  and  C24_39 
REMARK   13  A    between atoms: C24_39  and  C25_40 
REMARK   14  A    between atoms: C25_40  and  O6_41 
ROOT
HETATM    1  C6  UNL     1      18.572  30.623  13.888  1.00  0.00     0.035 A 
HETATM    2  C7  UNL     1      19.883  31.019  13.692  1.00  0.00     0.068 A 
HETATM    3  C8  UNL     1      20.381  32.228  14.134  1.00  0.00     0.101 A 
HETATM    4  C11 UNL     1      19.528  33.114  14.818  1.00  0.00     0.116 A 
HETATM    5  C22 UNL     1      18.222  32.751  15.027  1.00  0.00     0.101 A 
HETATM    6  C26 UNL     1      17.760  31.526  14.567  1.00  0.00     0.068 A 
ENDROOT
BRANCH   4   7
HETATM    7  N3  UNL     1      20.060  34.341  15.259  1.00  0.00    -0.186 N 
ATOM      8  H3  UNL     1      20.216  35.057  14.550  1.00  0.00     0.184 HD
BRANCH   7   9
HETATM    9  C12 UNL     1      20.362  34.643  16.452  1.00  0.00     0.684 A 
HETATM   10  N4  UNL     1      21.501  34.166  16.977  1.00  0.00    -0.200 N 
HETATM   11  C13 UNL     1      21.898  34.435  18.230  1.00  0.00     0.128 A 
ATOM     12  H4  UNL     1      22.093  33.571  16.397  1.00  0.00     0.183 HD
HETATM   13  C14 UNL     1      21.095  35.235  19.007  1.00  0.00     0.100 A 
HETATM   14  C16 UNL     1      19.914  35.748  18.509  1.00  0.00     0.135 A 
HETATM   15  N6  UNL     1      19.603  35.422  17.242  1.00  0.00    -0.176 N 
ATOM     16  H6  UNL     1      18.734  35.790  16.856  1.00  0.00     0.186 HD
BRANCH  13  17
HETATM   17  C15 UNL     1      21.510  35.535  20.368  1.00  0.00     0.214 C 
HETATM   18  O3  UNL     1      21.246  34.760  21.316  1.00  0.00    -0.644 OA
HETATM   19  O4  UNL     1      22.210  36.702  20.604  1.00  0.00    -0.644 OA
ENDBRANCH  13  17
BRANCH  14  20
HETATM   20  N5  UNL     1      19.228  36.480  19.290  1.00  0.00    -0.370 N 
ATOM     21  H5  UNL     1      18.989  36.063  20.190  1.00  0.00     0.161 HD
BRANCH  20  22
HETATM   22  C17 UNL     1      18.748  37.805  19.076  1.00  0.00     0.083 C 
HETATM   23  C18 UNL     1      19.756  38.639  18.290  1.00  0.00     0.025 C 
HETATM   24  C19 UNL     1      18.908  39.801  17.825  1.00  0.00     0.002 C 
HETATM   25  C20 UNL     1      17.675  39.063  17.307  1.00  0.00     0.002 C 
HETATM   26  C21 UNL     1      17.524  37.863  18.197  1.00  0.00     0.025 C 
ENDBRANCH  20  22
ENDBRANCH  14  20
ENDBRANCH   7   9
ENDBRANCH   4   7
BRANCH   3  27
HETATM   27  O2  UNL     1      21.670  32.668  13.969  1.00  0.00    -0.349 OA
BRANCH  27  28
HETATM   28  C9  UNL     1      22.783  31.941  14.393  1.00  0.00     0.171 C 
HETATM   29  C10 UNL     1      23.971  32.778  14.759  1.00  0.00     0.034 C 
ENDBRANCH  27  28
ENDBRANCH   3  27
BRANCH   5  30
HETATM   30  O5  UNL     1      17.356  33.600  15.698  1.00  0.00    -0.349 OA
BRANCH  30  31
HETATM   31  C23 UNL     1      16.261  33.104  16.465  1.00  0.00     0.178 C 
BRANCH  31  32
HETATM   32  C24 UNL     1      15.398  34.238  16.919  1.00  0.00     0.053 C 
BRANCH  32  33
HETATM   33  C25 UNL     1      15.606  34.620  18.346  1.00  0.00     0.166 C 
BRANCH  33  34
HETATM   34  O6  UNL     1      16.967  34.423  18.657  1.00  0.00    -0.401 OA
ATOM     35  H6  UNL     1      17.017  33.838  19.404  1.00  0.00     0.209 HD
ENDBRANCH  33  34
ENDBRANCH  32  33
ENDBRANCH  31  32
ENDBRANCH  30  31
ENDBRANCH   5  30
BRANCH   1  36
HETATM   36  N2  UNL     1      18.071  29.366  13.440  1.00  0.00    -0.378 N 
HETATM   37  C5  UNL     1      17.086  29.234  12.366  1.00  0.00     0.143 C 
HETATM   38  C4  UNL     1      17.787  28.437  11.254  1.00  0.00     0.146 C 
HETATM   39  N1  UNL     1      18.060  27.114  11.836  1.00  0.00    -0.346 N 
HETATM   40  C3  UNL     1      17.472  25.971  11.281  1.00  0.00     0.242 C 
HETATM   41  C28 UNL     1      18.939  27.105  12.964  1.00  0.00     0.146 C 
HETATM   42  O1  UNL     1      16.697  26.100  10.265  1.00  0.00    -0.268 OA
HETATM   43  C27 UNL     1      18.483  28.107  14.028  1.00  0.00     0.143 C 
BRANCH  40  44
HETATM   44  C2  UNL     1      17.723  24.653  11.834  1.00  0.00     0.064 C 
HETATM   45  C1  UNL     1      16.960  23.644  11.464  1.00  0.00     0.017 C 
ENDBRANCH  40  44
ENDBRANCH   1  36
TORSDOF 14
ENDMDL
MODEL 2
REMARK VINA RESULT: -8.206191533      3.238      6.398
REMARK  14 active torsions:
REMARK  status: ('A' for Active; 'I' for Inactive)
REMARK    1  A    between atoms: C2_2  and  C3_3 
REMARK       I    between atoms: C3_3  and  N1_5 
REMARK    2  A    between atoms: N2_8  and  C6_9 
REMARK    3  A    between atoms: C8_11  and  O2_12 
REMARK    4  A    between atoms: O2_12  and  C9_13 
REMARK    5  A    between atoms: C11_15  and  N3_16 
REMARK    6  A    between atoms: N3_16  and  C12_18 
REMARK    7  A    between atoms: C14_22  and  C15_23 
REMARK    8  A    between atoms: C16_26  and  N5_27 
REMARK    9  A    between atoms: N5_27  and  C17_29 
REMARK   10  A    between atoms: C22_36  and  O5_37 
REMARK   11  A    between atoms: O5_37  and  C23_38 
REMARK   12  A    between atoms: C23_38  and  C24_39 
REMARK   13  A    between atoms: C24_39  and  C25_40 
REMARK   14  A    between atoms: C25_40  and  O6_41 
ROOT
HETATM    1  C6  UNL     1      19.438  26.406  11.712  1.00  0.00     0.035 A 
HETATM    2  C7  UNL     1      18.517  27.417  11.921  1.00  0.00     0.068 A 
HETATM    3  C8  UNL     1      18.874  28.736  12.111  1.00  0.00     0.101 A 
HETATM    4  C11 UNL     1      20.235  29.090  12.094  1.00  0.00     0.116 A 
HETATM    5  C22 UNL     1      21.173  28.111  11.890  1.00  0.00     0.101 A 
HETATM    6  C26 UNL     1      20.773  26.794  11.703  1.00  0.00     0.068 A 
ENDROOT
BRANCH   4   7
HETATM    7  N3  UNL     1      20.574  30.443  12.291  1.00  0.00    -0.186 N 
ATOM      8  H3  UNL     1      20.562  31.045  11.467  1.00  0.00     0.184 HD
BRANCH   7   9
HETATM    9  C12 UNL     1      20.891  30.984  13.390  1.00  0.00     0.684 A 
HETATM   10  N4  UNL     1      22.190  31.166  13.679  1.00  0.00    -0.200 N 
HETATM   11  C13 UNL     1      22.614  31.731  14.819  1.00  0.00     0.128 A 
ATOM     12  H4  UNL     1      22.886  30.859  12.999  1.00  0.00     0.183 HD
HETATM   13  C14 UNL     1      21.670  32.140  15.730  1.00  0.00     0.100 A 
HETATM   14  C16 UNL     1      20.323  31.974  15.477  1.00  0.00     0.135 A 
HETATM   15  N6  UNL     1      19.997  31.398  14.307  1.00  0.00    -0.176 N 
ATOM     16  H6  UNL     1      19.008  31.265  14.101  1.00  0.00     0.186 HD
BRANCH  13  17
HETATM   17  C15 UNL     1      22.114  32.753  16.972  1.00  0.00     0.214 C 
HETATM   18  O3  UNL     1      22.490  32.059  17.944  1.00  0.00    -0.644 OA
HETATM   19  O4  UNL     1      22.116  34.131  17.065  1.00  0.00    -0.644 OA
ENDBRANCH  13  17
BRANCH  14  20
HETATM   20  N5  UNL     1      19.514  32.379  16.370  1.00  0.00    -0.370 N 
ATOM     21  H5  UNL     1      19.539  31.869  17.253  1.00  0.00     0.161 HD
BRANCH  20  22
HETATM   22  C17 UNL     1      18.576  33.450  16.302  1.00  0.00     0.083 C 
HETATM   23  C18 UNL     1      18.235  33.796  14.854  1.00  0.00     0.025 C 
HETATM   24  C19 UNL     1      16.971  34.609  15.015  1.00  0.00     0.002 C 
HETATM   25  C20 UNL     1      16.191  33.732  15.992  1.00  0.00     0.002 C 
HETATM   26  C21 UNL     1      17.226  33.101  16.877  1.00  0.00     0.025 C 
ENDBRANCH  20  22
ENDBRANCH  14  20
ENDBRANCH   7   9
ENDBRANCH   4   7
BRANCH   3  27
HETATM   27  O2  UNL     1      18.002  29.776  12.321  1.00  0.00    -0.349 OA
BRANCH  27  28
HETATM   28  C9  UNL     1      16.798  29.633  13.011  1.00  0.00     0.171 C 
HETATM   29  C10 UNL     1      16.753  30.328  14.338  1.00  0.00     0.034 C 
ENDBRANCH  27  28
ENDBRANCH   3  27
BRANCH   5  30
HETATM   30  O5  UNL     1      22.524  28.424  11.867  1.00  0.00    -0.349 OA
BRANCH  30  31
HETATM   31  C23 UNL     1      23.492  27.622  12.539  1.00  0.00     0.178 C 
BRANCH  31  32
HETATM   32  C24 UNL     1      24.602  27.268  11.601  1.00  0.00     0.053 C 
BRANCH  32  33
HETATM   33  C25 UNL     1      24.544  25.864  11.099  1.00  0.00     0.166 C 
BRANCH  33  34
HETATM   34  O6  UNL     1      24.160  25.033  12.172  1.00  0.00    -0.401 OA
ATOM     35  H6  UNL     1      23.886  24.197  11.812  1.00  0.00     0.209 HD
ENDBRANCH  33  34
ENDBRANCH  32  33
ENDBRANCH  31  32
ENDBRANCH  30  31
ENDBRANCH   5  30
BRANCH   1  36
HETATM   36  N2  UNL     1      19.059  25.047  11.502  1.00  0.00    -0.378 N 
HETATM   37  C5  UNL     1      17.744  24.520  11.865  1.00  0.00     0.143 C 
HETATM   38  C4  UNL     1      17.103  24.056  10.547  1.00  0.00     0.146 C 
HETATM   39  N1  UNL     1      17.956  22.960  10.063  1.00  0.00    -0.346 N 
HETATM   40  C3  UNL     1      17.428  21.671   9.926  1.00  0.00     0.242 C 
HETATM   41  C28 UNL     1      19.307  23.318   9.759  1.00  0.00     0.146 C 
HETATM   42  O1  UNL     1      16.197  21.467  10.230  1.00  0.00    -0.268 OA
HETATM   43  C27 UNL     1      19.957  24.066  10.926  1.00  0.00     0.143 C 
BRANCH  40  44
HETATM   44  C2  UNL     1      18.246  20.570   9.452  1.00  0.00     0.064 C 
HETATM   45  C1  UNL     1      17.709  19.662   8.663  1.00  0.00     0.017 C 
ENDBRANCH  40  44
ENDBRANCH   1  36
TORSDOF 14
ENDMDL
MODEL 3
REMARK VINA RESULT: -8.201556101      2.466      4.537
REMARK  14 active torsions:
REMARK  status: ('A' for Active; 'I' for Inactive)
REMARK    1  A    between atoms: C2_2  and  C3_3 
REMARK       I    between atoms: C3_3  and  N1_5 
REMARK    2  A    between atoms: N2_8  and  C6_9 
REMARK    3  A    between atoms: C8_11  and  O2_12 
REMARK    4  A    between atoms: O2_12  and  C9_13 
REMARK    5  A    between atoms: C11_15  and  N3_16 
REMARK    6  A    between atoms: N3_16  and  C12_18 
REMARK    7  A    between atoms: C14_22  and  C15_23 
REMARK    8  A    between atoms: C16_26  and  N5_27 
REMARK    9  A    between atoms: N5_27  and  C17_29 
REMARK   10  A    between atoms: C22_36  and  O5_37 
REMARK   11  A    between atoms: O5_37  and  C23_38 
REMARK   12  A    between atoms: C23_38  and  C24_39 
REMARK   13  A    between atoms: C24_39  and  C25_40 
REMARK   14  A    between atoms: C25_40  and  O6_41 
ROOT
HETATM    1  C6  UNL     1      20.815  29.905  13.562  1.00  0.00     0.035 A 
HETATM    2  C7  UNL     1      19.498  30.281  13.761  1.00  0.00     0.068 A 
HETATM    3  C8  UNL     1      19.121  31.568  14.084  1.00  0.00     0.101 A 
HETATM    4  C11 UNL     1      20.108  32.560  14.222  1.00  0.00     0.116 A 
HETATM    5  C22 UNL     1      21.423  32.219  14.032  1.00  0.00     0.101 A 
HETATM    6  C26 UNL     1      21.762  30.913  13.708  1.00  0.00     0.068 A 
ENDROOT
BRANCH   4   7
HETATM    7  N3  UNL     1      19.698  33.866  14.552  1.00  0.00    -0.186 N 
ATOM      8  H3  UNL     1      19.989  34.614  13.922  1.00  0.00     0.184 HD
BRANCH   7   9
HETATM    9  C12 UNL     1      19.002  34.203  15.555  1.00  0.00     0.684 A 
HETATM   10  N4  UNL     1      17.731  34.592  15.368  1.00  0.00    -0.200 N 
HETATM   11  C13 UNL     1      16.925  34.964  16.373  1.00  0.00     0.128 A 
ATOM     12  H4  UNL     1      17.362  34.606  14.417  1.00  0.00     0.183 HD
HETATM   13  C14 UNL     1      17.429  34.944  17.651  1.00  0.00     0.100 A 
HETATM   14  C16 UNL     1      18.731  34.551  17.892  1.00  0.00     0.135 A 
HETATM   15  N6  UNL     1      19.460  34.197  16.820  1.00  0.00    -0.176 N 
ATOM     16  H6  UNL     1      20.424  33.904  16.976  1.00  0.00     0.186 HD
BRANCH  13  17
HETATM   17  C15 UNL     1      16.567  35.346  18.751  1.00  0.00     0.214 C 
HETATM   18  O3  UNL     1      16.700  36.458  19.311  1.00  0.00    -0.644 OA
HETATM   19  O4  UNL     1      15.586  34.472  19.176  1.00  0.00    -0.644 OA
ENDBRANCH  13  17
BRANCH  14  20
HETATM   20  N5  UNL     1      19.121  34.560  19.101  1.00  0.00    -0.370 N 
ATOM     21  H5  UNL     1      18.740  33.822  19.694  1.00  0.00     0.161 HD
BRANCH  20  22
HETATM   22  C17 UNL     1      20.020  35.463  19.741  1.00  0.00     0.083 C 
HETATM   23  C18 UNL     1      21.458  34.956  19.669  1.00  0.00     0.025 C 
HETATM   24  C19 UNL     1      22.248  36.202  19.999  1.00  0.00     0.002 C 
HETATM   25  C20 UNL     1      21.555  37.224  19.101  1.00  0.00     0.002 C 
HETATM   26  C21 UNL     1      20.115  36.801  19.051  1.00  0.00     0.025 C 
ENDBRANCH  20  22
ENDBRANCH  14  20
ENDBRANCH   7   9
ENDBRANCH   4   7
BRANCH   3  27
HETATM   27  O2  UNL     1      17.832  31.993  14.289  1.00  0.00    -0.349 OA
BRANCH  27  28
HETATM   28  C9  UNL     1      16.785  31.127  14.603  1.00  0.00     0.171 C 
HETATM   29  C10 UNL     1      16.151  31.372  15.938  1.00  0.00     0.034 C 
ENDBRANCH  27  28
ENDBRANCH   3  27
BRANCH   5  30
HETATM   30  O5  UNL     1      22.422  33.173  14.161  1.00  0.00    -0.349 OA
BRANCH  30  31
HETATM   31  C23 UNL     1      23.444  33.060  15.149  1.00  0.00     0.178 C 
BRANCH  31  32
HETATM   32  C24 UNL     1      22.925  33.517  16.476  1.00  0.00     0.053 C 
BRANCH  32  33
HETATM   33  C25 UNL     1      22.700  32.410  17.449  1.00  0.00     0.166 C 
BRANCH  33  34
HETATM   34  O6  UNL     1      21.323  32.104  17.451  1.00  0.00    -0.401 OA
ATOM     35  H6  UNL     1      20.937  32.489  18.230  1.00  0.00     0.209 HD
ENDBRANCH  33  34
ENDBRANCH  32  33
ENDBRANCH  31  32
ENDBRANCH  30  31
ENDBRANCH   5  30
BRANCH   1  36
HETATM   36  N2  UNL     1      21.194  28.575  13.214  1.00  0.00    -0.378 N 
HETATM   37  C5  UNL     1      20.312  27.421  13.389  1.00  0.00     0.143 C 
HETATM   38  C4  UNL     1      20.077  26.859  11.978  1.00  0.00     0.146 C 
HETATM   39  N1  UNL     1      21.397  26.404  11.515  1.00  0.00    -0.346 N 
HETATM   40  C3  UNL     1      21.609  25.050  11.228  1.00  0.00     0.242 C 
HETATM   41  C28 UNL     1      22.393  27.423  11.391  1.00  0.00     0.146 C 
HETATM   42  O1  UNL     1      20.638  24.223  11.376  1.00  0.00    -0.268 OA
HETATM   43  C27 UNL     1      22.499  28.252  12.674  1.00  0.00     0.143 C 
BRANCH  40  44
HETATM   44  C2  UNL     1      22.900  24.572  10.770  1.00  0.00     0.064 C 
HETATM   45  C1  UNL     1      23.014  24.096   9.547  1.00  0.00     0.017 C 
ENDBRANCH  40  44
ENDBRANCH   1  36
TORSDOF 14
ENDMDL
MODEL 4
REMARK VINA RESULT: -8.160691079      3.216      5.030
REMARK  14 active torsions:
REMARK  status: ('A' for Active; 'I' for Inactive)
REMARK    1  A    between atoms: C2_2  and  C3_3 
REMARK       I    between atoms: C3_3  and  N1_5 
REMARK    2  A    between atoms: N2_8  and  C6_9 
REMARK    3  A    between atoms: C8_11  and  O2_12 
REMARK    4  A    between atoms: O2_12  and  C9_13 
REMARK    5  A    between atoms: C11_15  and  N3_16 
REMARK    6  A    between atoms: N3_16  and  C12_18 
REMARK    7  A    between atoms: C14_22  and  C15_23 
REMARK    8  A    between atoms: C16_26  and  N5_27 
REMARK    9  A    between atoms: N5_27  and  C17_29 
REMARK   10  A    between atoms: C22_36  and  O5_37 
REMARK   11  A    between atoms: O5_37  and  C23_38 
REMARK   12  A    between atoms: C23_38  and  C24_39 
REMARK   13  A    between atoms: C24_39  and  C25_40 
REMARK   14  A    between atoms: C25_40  and  O6_41 
ROOT
HETATM    1  C6  UNL     1      19.569  26.392  11.643  1.00  0.00     0.035 A 
HETATM    2  C7  UNL     1      20.906  26.748  11.617  1.00  0.00     0.068 A 
HETATM    3  C8  UNL     1      21.347  28.041  11.808  1.00  0.00     0.101 A 
HETATM    4  C11 UNL     1      20.407  29.061  12.043  1.00  0.00     0.116 A 
HETATM    5  C22 UNL     1      19.074  28.741  12.075  1.00  0.00     0.101 A 
HETATM    6  C26 UNL     1      18.671  27.427  11.877  1.00  0.00     0.068 A 
ENDROOT
BRANCH   4   7
HETATM    7  N3  UNL     1      20.883  30.372  12.236  1.00  0.00    -0.186 N 
ATOM      8  H3  UNL     1      21.029  30.937  11.399  1.00  0.00     0.184 HD
BRANCH   7   9
HETATM    9  C12 UNL     1      21.145  30.919  13.347  1.00  0.00     0.684 A 
HETATM   10  N4  UNL     1      22.428  31.103  13.698  1.00  0.00    -0.200 N 
HETATM   11  C13 UNL     1      22.795  31.673  14.856  1.00  0.00     0.128 A 
ATOM     12  H4  UNL     1      23.157  30.794  13.056  1.00  0.00     0.183 HD
HETATM   13  C14 UNL     1      21.807  32.086  15.718  1.00  0.00     0.100 A 
HETATM   14  C16 UNL     1      20.474  31.918  15.398  1.00  0.00     0.135 A 
HETATM   15  N6  UNL     1      20.207  31.336  14.216  1.00  0.00    -0.176 N 
ATOM     16  H6  UNL     1      19.229  31.201  13.962  1.00  0.00     0.186 HD
BRANCH  13  17
HETATM   17  C15 UNL     1      22.189  32.705  16.976  1.00  0.00     0.214 C 
HETATM   18  O3  UNL     1      22.483  32.015  17.980  1.00  0.00    -0.644 OA
HETATM   19  O4  UNL     1      22.224  34.084  17.052  1.00  0.00    -0.644 OA
ENDBRANCH  13  17
BRANCH  14  20
HETATM   20  N5  UNL     1      19.622  32.326  16.249  1.00  0.00    -0.370 N 
ATOM     21  H5  UNL     1      19.532  31.760  17.093  1.00  0.00     0.161 HD
BRANCH  20  22
HETATM   22  C17 UNL     1      18.773  33.470  16.180  1.00  0.00     0.083 C 
HETATM   23  C18 UNL     1      18.241  33.681  14.765  1.00  0.00     0.025 C 
HETATM   24  C19 UNL     1      17.087  34.627  15.001  1.00  0.00     0.002 C 
HETATM   25  C20 UNL     1      16.400  33.949  16.184  1.00  0.00     0.002 C 
HETATM   26  C21 UNL     1      17.506  33.324  16.984  1.00  0.00     0.025 C 
ENDBRANCH  20  22
ENDBRANCH  14  20
ENDBRANCH   7   9
ENDBRANCH   4   7
BRANCH   3  27
HETATM   27  O2  UNL     1      22.658  28.446  11.794  1.00  0.00    -0.349 OA
BRANCH  27  28
HETATM   28  C9  UNL     1      23.686  27.724  12.401  1.00  0.00     0.171 C 
HETATM   29  C10 UNL     1      24.613  27.036  11.446  1.00  0.00     0.034 C 
ENDBRANCH  27  28
ENDBRANCH   3  27
BRANCH   5  30
HETATM   30  O5  UNL     1      18.121  29.721  12.303  1.00  0.00    -0.349 OA
BRANCH  30  31
HETATM   31  C23 UNL     1      16.907  29.442  12.996  1.00  0.00     0.178 C 
BRANCH  31  32
HETATM   32  C24 UNL     1      16.637  30.509  14.007  1.00  0.00     0.053 C 
BRANCH  32  33
HETATM   33  C25 UNL     1      17.001  30.125  15.402  1.00  0.00     0.166 C 
BRANCH  33  34
HETATM   34  O6  UNL     1      18.212  29.404  15.354  1.00  0.00    -0.401 OA
ATOM     35  H6  UNL     1      18.014  28.486  15.501  1.00  0.00     0.209 HD
ENDBRANCH  33  34
ENDBRANCH  32  33
ENDBRANCH  31  32
ENDBRANCH  30  31
ENDBRANCH   5  30
BRANCH   1  36
HETATM   36  N2  UNL     1      19.124  25.050  11.459  1.00  0.00    -0.378 N 
HETATM   37  C5  UNL     1      17.818  24.571  11.912  1.00  0.00     0.143 C 
HETATM   38  C4  UNL     1      17.070  24.138  10.641  1.00  0.00     0.146 C 
HETATM   39  N1  UNL     1      17.844  23.012  10.097  1.00  0.00    -0.346 N 
HETATM   40  C3  UNL     1      17.259  21.745   9.996  1.00  0.00     0.242 C 
HETATM   41  C28 UNL     1      19.184  23.319   9.700  1.00  0.00     0.146 C 
HETATM   42  O1  UNL     1      16.045  21.587  10.384  1.00  0.00    -0.268 OA
HETATM   43  C27 UNL     1      19.941  24.037  10.821  1.00  0.00     0.143 C 
BRANCH  40  44
HETATM   44  C2  UNL     1      17.999  20.616   9.464  1.00  0.00     0.064 C 
HETATM   45  C1  UNL     1      17.420  19.822   8.585  1.00  0.00     0.017 C 
ENDBRANCH  40  44
ENDBRANCH   1  36
TORSDOF 14
ENDMDL
MODEL 5
REMARK VINA RESULT: -8.155145646      1.846      2.280
REMARK  14 active torsions:
REMARK  status: ('A' for Active; 'I' for Inactive)
REMARK    1  A    between atoms: C2_2  and  C3_3 
REMARK       I    between atoms: C3_3  and  N1_5 
REMARK    2  A    between atoms: N2_8  and  C6_9 
REMARK    3  A    between atoms: C8_11  and  O2_12 
REMARK    4  A    between atoms: O2_12  and  C9_13 
REMARK    5  A    between atoms: C11_15  and  N3_16 
REMARK    6  A    between atoms: N3_16  and  C12_18 
REMARK    7  A    between atoms: C14_22  and  C15_23 
REMARK    8  A    between atoms: C16_26  and  N5_27 
REMARK    9  A    between atoms: N5_27  and  C17_29 
REMARK   10  A    between atoms: C22_36  and  O5_37 
REMARK   11  A    between atoms: O5_37  and  C23_38 
REMARK   12  A    between atoms: C23_38  and  C24_39 
REMARK   13  A    between atoms: C24_39  and  C25_40 
REMARK   14  A    between atoms: C25_40  and  O6_41 
ROOT
HETATM    1  C6  UNL     1      18.728  31.032  14.500  1.00  0.00     0.035 A 
HETATM    2  C7  UNL     1      19.908  31.211  15.199  1.00  0.00     0.068 A 
HETATM    3  C8  UNL     1      20.002  31.988  16.336  1.00  0.00     0.101 A 
HETATM    4  C11 UNL     1      18.853  32.638  16.822  1.00  0.00     0.116 A 
HETATM    5  C22 UNL     1      17.668  32.481  16.150  1.00  0.00     0.101 A 
HETATM    6  C26 UNL     1      17.615  31.691  15.010  1.00  0.00     0.068 A 
ENDROOT
BRANCH   4   7
HETATM    7  N3  UNL     1      18.975  33.425  17.983  1.00  0.00    -0.186 N 
ATOM      8  H3  UNL     1      18.639  33.016  18.855  1.00  0.00     0.184 HD
BRANCH   7   9
HETATM    9  C12 UNL     1      19.461  34.593  18.050  1.00  0.00     0.684 A 
HETATM   10  N4  UNL     1      20.598  34.788  18.737  1.00  0.00    -0.200 N 
HETATM   11  C13 UNL     1      21.182  35.990  18.858  1.00  0.00     0.128 A 
ATOM     12  H4  UNL     1      21.039  33.986  19.187  1.00  0.00     0.183 HD
HETATM   13  C14 UNL     1      20.583  37.067  18.250  1.00  0.00     0.100 A 
HETATM   14  C16 UNL     1      19.412  36.913  17.533  1.00  0.00     0.135 A 
HETATM   15  N6  UNL     1      18.904  35.670  17.469  1.00  0.00    -0.176 N 
ATOM     16  H6  UNL     1      18.039  35.536  16.946  1.00  0.00     0.186 HD
BRANCH  13  17
HETATM   17  C15 UNL     1      21.202  38.376  18.374  1.00  0.00     0.214 C 
HETATM   18  O3  UNL     1      22.085  38.758  17.572  1.00  0.00    -0.644 OA
HETATM   19  O4  UNL     1      20.797  39.205  19.402  1.00  0.00    -0.644 OA
ENDBRANCH  13  17
BRANCH  14  20
HETATM   20  N5  UNL     1      18.921  37.958  17.001  1.00  0.00    -0.370 N 
ATOM     21  H5  UNL     1      19.563  38.505  16.427  1.00  0.00     0.161 HD
BRANCH  20  22
HETATM   22  C17 UNL     1      17.593  38.468  17.099  1.00  0.00     0.083 C 
HETATM   23  C18 UNL     1      17.124  38.513  18.551  1.00  0.00     0.025 C 
HETATM   24  C19 UNL     1      15.932  39.440  18.468  1.00  0.00     0.002 C 
HETATM   25  C20 UNL     1      16.510  40.570  17.620  1.00  0.00     0.002 C 
HETATM   26  C21 UNL     1      17.473  39.910  16.675  1.00  0.00     0.025 C 
ENDBRANCH  20  22
ENDBRANCH  14  20
ENDBRANCH   7   9
ENDBRANCH   4   7
BRANCH   3  27
HETATM   27  O2  UNL     1      21.145  32.197  17.066  1.00  0.00    -0.349 OA
BRANCH  27  28
HETATM   28  C9  UNL     1      22.406  32.341  16.485  1.00  0.00     0.171 C 
HETATM   29  C10 UNL     1      22.692  33.711  15.949  1.00  0.00     0.034 C 
ENDBRANCH  27  28
ENDBRANCH   3  27
BRANCH   5  30
HETATM   30  O5  UNL     1      16.516  33.108  16.602  1.00  0.00    -0.349 OA
BRANCH  30  31
HETATM   31  C23 UNL     1      15.984  34.260  15.952  1.00  0.00     0.178 C 
BRANCH  31  32
HETATM   32  C24 UNL     1      15.525  35.256  16.969  1.00  0.00     0.053 C 
BRANCH  32  33
HETATM   33  C25 UNL     1      15.165  34.652  18.285  1.00  0.00     0.166 C 
BRANCH  33  34
HETATM   34  O6  UNL     1      16.281  34.770  19.139  1.00  0.00    -0.401 OA
ATOM     35  H6  UNL     1      15.962  34.925  20.021  1.00  0.00     0.209 HD
ENDBRANCH  33  34
ENDBRANCH  32  33
ENDBRANCH  31  32
ENDBRANCH  30  31
ENDBRANCH   5  30
BRANCH   1  36
HETATM   36  N2  UNL     1      18.638  30.215  13.335  1.00  0.00    -0.378 N 
HETATM   37  C5  UNL     1      19.805  29.801  12.557  1.00  0.00     0.143 C 
HETATM   38  C4  UNL     1      19.839  28.266  12.644  1.00  0.00     0.146 C 
HETATM   39  N1  UNL     1      18.613  27.810  11.971  1.00  0.00    -0.346 N 
HETATM   40  C3  UNL     1      18.700  27.020  10.819  1.00  0.00     0.242 C 
HETATM   41  C28 UNL     1      17.386  28.228  12.575  1.00  0.00     0.146 C 
HETATM   42  O1  UNL     1      19.860  26.705  10.366  1.00  0.00    -0.268 OA
HETATM   43  C27 UNL     1      17.372  29.742  12.810  1.00  0.00     0.143 C 
BRANCH  40  44
HETATM   44  C2  UNL     1      17.508  26.556  10.134  1.00  0.00     0.064 C 
HETATM   45  C1  UNL     1      17.169  25.286  10.220  1.00  0.00     0.017 C 
ENDBRANCH  40  44
ENDBRANCH   1  36
TORSDOF 14
ENDMDL
