MODEL 1
REMARK VINA RESULT: -8.652154580      0.000      0.000
REMARK  12 active torsions:
REMARK  status: ('A' for Active; 'I' for Inactive)
REMARK    1  A    between atoms: O1_2  and  C2_3 
REMARK    2  A    between atoms: C4_5  and  C5_6 
REMARK    3  A    between atoms: C6_9  and  N2_10 
REMARK    4  A    between atoms: N2_10  and  C7_12 
REMARK    5  A    between atoms: C7_12  and  C8_13 
REMARK    6  A    between atoms: C8_13  and  N3_14 
REMARK    7  A    between atoms: C14_23  and  C15_24 
REMARK    8  A    between atoms: C15_24  and  C16_25 
REMARK    9  A    between atoms: C23_38  and  O3_39 
REMARK   10  A    between atoms: O3_39  and  C24_40 
REMARK   11  A    between atoms: C24_40  and  C25_41 
REMARK   12  A    between atoms: C25_41  and  N8_42 
ROOT
HETATM    1  C5  UNL     1      19.346  31.927  14.926  1.00  0.00     0.088 A 
HETATM    2  N1  UNL     1      18.198  32.474  15.319  1.00  0.00    -0.189 N 
ATOM      3  H1  UNL     1      17.337  31.943  15.187  1.00  0.00     0.184 HD
HETATM    4  C6  UNL     1      18.117  33.687  15.879  1.00  0.00     0.679 A 
HETATM    5  N4  UNL     1      19.297  34.350  16.031  1.00  0.00    -0.189 N 
ATOM      6  H4  UNL     1      19.275  35.278  16.455  1.00  0.00     0.184 HD
HETATM    7  C13 UNL     1      20.482  33.859  15.660  1.00  0.00     0.086 A 
HETATM    8  C14 UNL     1      21.785  34.321  15.709  1.00  0.00    -0.007 A 
HETATM    9  C19 UNL     1      22.631  33.379  15.185  1.00  0.00     0.098 A 
HETATM   10  N7  UNL     1      21.839  32.343  14.813  1.00  0.00    -0.362 N 
ATOM     11  H7  UNL     1      22.179  31.482  14.386  1.00  0.00     0.165 HD
HETATM   12  C20 UNL     1      20.549  32.599  15.082  1.00  0.00     0.088 A 
ENDROOT
BRANCH   1  13
HETATM   13  C4  UNL     1      19.386  30.606  14.271  1.00  0.00    -0.004 A 
HETATM   14  C3  UNL     1      18.612  30.388  13.161  1.00  0.00     0.053 A 
HETATM   15  C2  UNL     1      18.640  29.164  12.544  1.00  0.00     0.102 A 
HETATM   16  C23 UNL     1      19.425  28.119  12.999  1.00  0.00     0.102 A 
HETATM   17  C22 UNL     1      20.185  28.376  14.113  1.00  0.00     0.040 A 
HETATM   18  C21 UNL     1      20.184  29.610  14.769  1.00  0.00     0.017 A 
BRANCH  15  19
HETATM   19  O1  UNL     1      17.838  28.966  11.405  1.00  0.00    -0.353 OA
HETATM   20  C1  UNL     1      16.437  28.847  11.541  1.00  0.00     0.210 C 
ENDBRANCH  15  19
BRANCH  16  21
HETATM   21  O3  UNL     1      19.378  26.934  12.314  1.00  0.00    -0.343 OA
BRANCH  21  22
HETATM   22  C24 UNL     1      20.347  26.591  11.380  1.00  0.00     0.220 C 
BRANCH  22  23
HETATM   23  C25 UNL     1      21.352  25.592  11.822  1.00  0.00     0.084 C 
BRANCH  23  24
HETATM   24  N8  UNL     1      22.682  25.984  11.982  1.00  0.00    -0.391 N 
HETATM   25  C26 UNL     1      23.013  27.359  12.007  1.00  0.00     0.122 C 
HETATM   26  C27 UNL     1      24.494  27.474  11.730  1.00  0.00     0.021 C 
HETATM   27  C28 UNL     1      24.963  26.058  11.617  1.00  0.00     0.021 C 
HETATM   28  C29 UNL     1      23.689  25.290  11.227  1.00  0.00     0.122 C 
ENDBRANCH  23  24
ENDBRANCH  22  23
ENDBRANCH  21  22
ENDBRANCH  16  21
ENDBRANCH   1  13
BRANCH   4  29
HETATM   29  N2  UNL     1      17.023  34.186  16.247  1.00  0.00    -0.221 N 
ATOM     30  H2  UNL     1      16.478  33.605  16.884  1.00  0.00     0.178 HD
BRANCH  29  31
HETATM   31  C7  UNL     1      16.424  35.442  15.911  1.00  0.00     0.182 C 
BRANCH  31  32
HETATM   32  C8  UNL     1      15.788  35.961  17.185  1.00  0.00     0.078 C 
BRANCH  32  33
HETATM   33  N3  UNL     1      16.441  37.007  17.846  1.00  0.00    -0.388 N 
HETATM   34  C9  UNL     1      16.944  36.806  19.153  1.00  0.00     0.148 C 
HETATM   35  C10 UNL     1      18.311  36.127  19.037  1.00  0.00     0.187 C 
HETATM   36  O2  UNL     1      19.022  36.620  17.970  1.00  0.00    -0.388 OA
HETATM   37  C11 UNL     1      18.641  37.861  17.520  1.00  0.00     0.187 C 
HETATM   38  C12 UNL     1      17.202  37.902  17.047  1.00  0.00     0.148 C 
ENDBRANCH  32  33
ENDBRANCH  31  32
ENDBRANCH  29  31
ENDBRANCH   4  29
BRANCH   8  39
HETATM   39  C15 UNL     1      22.143  35.671  16.234  1.00  0.00     0.101 C 
BRANCH  39  40
HETATM   40  C16 UNL     1      22.108  35.671  17.723  1.00  0.00     0.029 A 
HETATM   41  C17 UNL     1      22.154  34.618  18.591  1.00  0.00     0.114 A 
HETATM   42  N5  UNL     1      22.122  35.091  19.834  1.00  0.00    -0.360 N 
HETATM   43  C18 UNL     1      22.056  36.439  19.745  1.00  0.00     0.180 A 
ATOM     44  H5  UNL     1      22.144  34.541  20.692  1.00  0.00     0.166 HD
HETATM   45  N6  UNL     1      22.047  36.786  18.451  1.00  0.00    -0.354 N 
ATOM     46  H6  UNL     1      22.002  37.737  18.087  1.00  0.00     0.166 HD
ENDBRANCH  39  40
ENDBRANCH   8  39
TORSDOF 12
ENDMDL
MODEL 2
REMARK VINA RESULT: -8.651874523      3.423      8.508
REMARK  12 active torsions:
REMARK  status: ('A' for Active; 'I' for Inactive)
REMARK    1  A    between atoms: O1_2  and  C2_3 
REMARK    2  A    between atoms: C4_5  and  C5_6 
REMARK    3  A    between atoms: C6_9  and  N2_10 
REMARK    4  A    between atoms: N2_10  and  C7_12 
REMARK    5  A    between atoms: C7_12  and  C8_13 
REMARK    6  A    between atoms: C8_13  and  N3_14 
REMARK    7  A    between atoms: C14_23  and  C15_24 
REMARK    8  A    between atoms: C15_24  and  C16_25 
REMARK    9  A    between atoms: C23_38  and  O3_39 
REMARK   10  A    between atoms: O3_39  and  C24_40 
REMARK   11  A    between atoms: C24_40  and  C25_41 
REMARK   12  A    between atoms: C25_41  and  N8_42 
ROOT
HETATM    1  C5  UNL     1      21.092  34.551  16.338  1.00  0.00     0.088 A 
HETATM    2  N1  UNL     1      19.769  34.613  16.210  1.00  0.00    -0.189 N 
ATOM      3  H1  UNL     1      19.258  35.292  16.774  1.00  0.00     0.184 HD
HETATM    4  C6  UNL     1      19.076  33.827  15.377  1.00  0.00     0.679 A 
HETATM    5  N4  UNL     1      19.811  32.940  14.649  1.00  0.00    -0.189 N 
ATOM      6  H4  UNL     1      19.316  32.324  14.003  1.00  0.00     0.184 HD
HETATM    7  C13 UNL     1      21.138  32.828  14.730  1.00  0.00     0.086 A 
HETATM    8  C14 UNL     1      22.086  32.032  14.112  1.00  0.00    -0.007 A 
HETATM    9  C19 UNL     1      23.336  32.353  14.576  1.00  0.00     0.098 A 
HETATM   10  N7  UNL     1      23.145  33.345  15.480  1.00  0.00    -0.362 N 
ATOM     11  H7  UNL     1      23.892  33.800  16.004  1.00  0.00     0.165 HD
HETATM   12  C20 UNL     1      21.842  33.651  15.596  1.00  0.00     0.088 A 
ENDROOT
BRANCH   1  13
HETATM   13  C4  UNL     1      21.814  35.405  17.301  1.00  0.00    -0.004 A 
HETATM   14  C3  UNL     1      21.796  35.072  18.631  1.00  0.00     0.053 A 
HETATM   15  C2  UNL     1      22.462  35.858  19.536  1.00  0.00     0.102 A 
HETATM   16  C23 UNL     1      23.162  36.993  19.163  1.00  0.00     0.102 A 
HETATM   17  C22 UNL     1      23.156  37.293  17.824  1.00  0.00     0.040 A 
HETATM   18  C21 UNL     1      22.490  36.516  16.871  1.00  0.00     0.017 A 
BRANCH  15  19
HETATM   19  O1  UNL     1      22.431  35.495  20.894  1.00  0.00    -0.353 OA
HETATM   20  C1  UNL     1      21.372  34.700  21.387  1.00  0.00     0.210 C 
ENDBRANCH  15  19
BRANCH  16  21
HETATM   21  O3  UNL     1      23.790  37.712  20.145  1.00  0.00    -0.343 OA
BRANCH  21  22
HETATM   22  C24 UNL     1      25.170  37.693  20.295  1.00  0.00     0.220 C 
BRANCH  22  23
HETATM   23  C25 UNL     1      25.692  36.871  21.416  1.00  0.00     0.084 C 
BRANCH  23  24
HETATM   24  N8  UNL     1      27.033  36.481  21.411  1.00  0.00    -0.391 N 
HETATM   25  C26 UNL     1      27.987  37.246  20.701  1.00  0.00     0.122 C 
HETATM   26  C27 UNL     1      29.202  36.373  20.491  1.00  0.00     0.021 C 
HETATM   27  C28 UNL     1      28.870  35.096  21.193  1.00  0.00     0.021 C 
HETATM   28  C29 UNL     1      27.333  35.089  21.214  1.00  0.00     0.122 C 
ENDBRANCH  23  24
ENDBRANCH  22  23
ENDBRANCH  21  22
ENDBRANCH  16  21
ENDBRANCH   1  13
BRANCH   4  29
HETATM   29  N2  UNL     1      17.826  33.901  15.267  1.00  0.00    -0.221 N 
ATOM     30  H2  UNL     1      17.350  33.005  15.160  1.00  0.00     0.178 HD
BRANCH  29  31
HETATM   31  C7  UNL     1      16.966  35.046  15.268  1.00  0.00     0.182 C 
BRANCH  31  32
HETATM   32  C8  UNL     1      16.216  35.009  16.584  1.00  0.00     0.078 C 
BRANCH  32  33
HETATM   33  N3  UNL     1      16.309  36.138  17.405  1.00  0.00    -0.388 N 
HETATM   34  C9  UNL     1      16.496  35.979  18.799  1.00  0.00     0.148 C 
HETATM   35  C10 UNL     1      17.989  35.762  19.057  1.00  0.00     0.187 C 
HETATM   36  O2  UNL     1      18.756  36.544  18.228  1.00  0.00    -0.388 OA
HETATM   37  C11 UNL     1      18.129  37.647  17.698  1.00  0.00     0.187 C 
HETATM   38  C12 UNL     1      16.925  37.293  16.851  1.00  0.00     0.148 C 
ENDBRANCH  32  33
ENDBRANCH  31  32
ENDBRANCH  29  31
ENDBRANCH   4  29
BRANCH   8  39
HETATM   39  C15 UNL     1      21.730  30.972  13.124  1.00  0.00     0.101 C 
BRANCH  39  40
HETATM   40  C16 UNL     1      21.045  29.839  13.808  1.00  0.00     0.029 A 
HETATM   41  C17 UNL     1      19.959  29.114  13.409  1.00  0.00     0.114 A 
HETATM   42  N5  UNL     1      19.713  28.181  14.324  1.00  0.00    -0.360 N 
HETATM   43  C18 UNL     1      20.643  28.322  15.296  1.00  0.00     0.180 A 
ATOM     44  H5  UNL     1      18.964  27.490  14.298  1.00  0.00     0.166 HD
HETATM   45  N6  UNL     1      21.453  29.338  14.974  1.00  0.00    -0.354 N 
ATOM     46  H6  UNL     1      22.245  29.670  15.524  1.00  0.00     0.166 HD
ENDBRANCH  39  40
ENDBRANCH   8  39
TORSDOF 12
ENDMDL
MODEL 3
REMARK VINA RESULT: -8.562083529      3.339      8.563
REMARK  12 active torsions:
REMARK  status: ('A' for Active; 'I' for Inactive)
REMARK    1  A    between atoms: O1_2  and  C2_3 
REMARK    2  A    between atoms: C4_5  and  C5_6 
REMARK    3  A    between atoms: C6_9  and  N2_10 
REMARK    4  A    between atoms: N2_10  and  C7_12 
REMARK    5  A    between atoms: C7_12  and  C8_13 
REMARK    6  A    between atoms: C8_13  and  N3_14 
REMARK    7  A    between atoms: C14_23  and  C15_24 
REMARK    8  A    between atoms: C15_24  and  C16_25 
REMARK    9  A    between atoms: C23_38  and  O3_39 
REMARK   10  A    between atoms: O3_39  and  C24_40 
REMARK   11  A    between atoms: C24_40  and  C25_41 
REMARK   12  A    between atoms: C25_41  and  N8_42 
ROOT
HETATM    1  C5  UNL     1      21.043  34.402  16.391  1.00  0.00     0.088 A 
HETATM    2  N1  UNL     1      19.721  34.500  16.271  1.00  0.00    -0.189 N 
ATOM      3  H1  UNL     1      19.226  35.154  16.878  1.00  0.00     0.184 HD
HETATM    4  C6  UNL     1      19.009  33.784  15.393  1.00  0.00     0.679 A 
HETATM    5  N4  UNL     1      19.722  32.928  14.609  1.00  0.00    -0.189 N 
ATOM      6  H4  UNL     1      19.212  32.364  13.928  1.00  0.00     0.184 HD
HETATM    7  C13 UNL     1      21.047  32.781  14.678  1.00  0.00     0.086 A 
HETATM    8  C14 UNL     1      21.975  32.004  14.009  1.00  0.00    -0.007 A 
HETATM    9  C19 UNL     1      23.232  32.268  14.487  1.00  0.00     0.098 A 
HETATM   10  N7  UNL     1      23.066  33.206  15.452  1.00  0.00    -0.362 N 
ATOM     11  H7  UNL     1      23.825  33.610  16.000  1.00  0.00     0.165 HD
HETATM   12  C20 UNL     1      21.771  33.533  15.592  1.00  0.00     0.088 A 
ENDROOT
BRANCH   1  13
HETATM   13  C4  UNL     1      21.786  35.178  17.402  1.00  0.00    -0.004 A 
HETATM   14  C3  UNL     1      22.371  36.362  17.036  1.00  0.00     0.053 A 
HETATM   15  C2  UNL     1      23.064  37.092  17.967  1.00  0.00     0.102 A 
HETATM   16  C23 UNL     1      23.205  36.681  19.281  1.00  0.00     0.102 A 
HETATM   17  C22 UNL     1      22.606  35.490  19.608  1.00  0.00     0.040 A 
HETATM   18  C21 UNL     1      21.890  34.718  18.688  1.00  0.00     0.017 A 
BRANCH  15  19
HETATM   19  O1  UNL     1      23.653  38.305  17.568  1.00  0.00    -0.353 OA
HETATM   20  C1  UNL     1      22.873  39.288  16.921  1.00  0.00     0.210 C 
ENDBRANCH  15  19
BRANCH  16  21
HETATM   21  O3  UNL     1      23.921  37.481  20.131  1.00  0.00    -0.343 OA
BRANCH  21  22
HETATM   22  C24 UNL     1      24.988  36.989  20.873  1.00  0.00     0.220 C 
BRANCH  22  23
HETATM   23  C25 UNL     1      26.303  37.631  20.626  1.00  0.00     0.084 C 
BRANCH  23  24
HETATM   24  N8  UNL     1      27.472  36.952  20.976  1.00  0.00    -0.391 N 
HETATM   25  C26 UNL     1      28.670  37.199  20.266  1.00  0.00     0.122 C 
HETATM   26  C27 UNL     1      29.603  36.042  20.536  1.00  0.00     0.021 C 
HETATM   27  C28 UNL     1      28.855  35.175  21.498  1.00  0.00     0.021 C 
HETATM   28  C29 UNL     1      27.384  35.542  21.239  1.00  0.00     0.122 C 
ENDBRANCH  23  24
ENDBRANCH  22  23
ENDBRANCH  21  22
ENDBRANCH  16  21
ENDBRANCH   1  13
BRANCH   4  29
HETATM   29  N2  UNL     1      17.760  33.892  15.293  1.00  0.00    -0.221 N 
ATOM     30  H2  UNL     1      17.259  33.010  15.189  1.00  0.00     0.178 HD
BRANCH  29  31
HETATM   31  C7  UNL     1      16.933  35.061  15.300  1.00  0.00     0.182 C 
BRANCH  31  32
HETATM   32  C8  UNL     1      16.203  35.053  16.628  1.00  0.00     0.078 C 
BRANCH  32  33
HETATM   33  N3  UNL     1      16.348  36.180  17.445  1.00  0.00    -0.388 N 
HETATM   34  C9  UNL     1      16.551  36.017  18.836  1.00  0.00     0.148 C 
HETATM   35  C10 UNL     1      18.040  35.749  19.071  1.00  0.00     0.187 C 
HETATM   36  O2  UNL     1      18.819  36.502  18.229  1.00  0.00    -0.388 OA
HETATM   37  C11 UNL     1      18.224  37.625  17.706  1.00  0.00     0.187 C 
HETATM   38  C12 UNL     1      16.995  37.311  16.878  1.00  0.00     0.148 C 
ENDBRANCH  32  33
ENDBRANCH  31  32
ENDBRANCH  29  31
ENDBRANCH   4  29
BRANCH   8  39
HETATM   39  C15 UNL     1      21.593  31.016  12.957  1.00  0.00     0.101 C 
BRANCH  39  40
HETATM   40  C16 UNL     1      20.988  29.807  13.583  1.00  0.00     0.029 A 
HETATM   41  C17 UNL     1      21.579  28.834  14.338  1.00  0.00     0.114 A 
HETATM   42  N5  UNL     1      20.647  27.960  14.708  1.00  0.00    -0.360 N 
HETATM   43  C18 UNL     1      19.473  28.385  14.186  1.00  0.00     0.180 A 
ATOM     44  H5  UNL     1      20.789  27.127  15.278  1.00  0.00     0.166 HD
HETATM   45  N6  UNL     1      19.691  29.514  13.499  1.00  0.00    -0.354 N 
ATOM     46  H6  UNL     1      18.986  30.056  12.999  1.00  0.00     0.166 HD
ENDBRANCH  39  40
ENDBRANCH   8  39
TORSDOF 12
ENDMDL
MODEL 4
REMARK VINA RESULT: -8.487842505      1.367      3.785
REMARK  12 active torsions:
REMARK  status: ('A' for Active; 'I' for Inactive)
REMARK    1  A    between atoms: O1_2  and  C2_3 
REMARK    2  A    between atoms: C4_5  and  C5_6 
REMARK    3  A    between atoms: C6_9  and  N2_10 
REMARK    4  A    between atoms: N2_10  and  C7_12 
REMARK    5  A    between atoms: C7_12  and  C8_13 
REMARK    6  A    between atoms: C8_13  and  N3_14 
REMARK    7  A    between atoms: C14_23  and  C15_24 
REMARK    8  A    between atoms: C15_24  and  C16_25 
REMARK    9  A    between atoms: C23_38  and  O3_39 
REMARK   10  A    between atoms: O3_39  and  C24_40 
REMARK   11  A    between atoms: C24_40  and  C25_41 
REMARK   12  A    between atoms: C25_41  and  N8_42 
ROOT
HETATM    1  C5  UNL     1      19.027  31.438  15.713  1.00  0.00     0.088 A 
HETATM    2  N1  UNL     1      20.128  31.958  16.250  1.00  0.00    -0.189 N 
ATOM      3  H1  UNL     1      21.032  31.581  15.966  1.00  0.00     0.184 HD
HETATM    4  C6  UNL     1      20.107  32.953  17.145  1.00  0.00     0.679 A 
HETATM    5  N4  UNL     1      18.872  33.417  17.487  1.00  0.00    -0.189 N 
ATOM      6  H4  UNL     1      18.817  34.176  18.167  1.00  0.00     0.184 HD
HETATM    7  C13 UNL     1      17.731  32.941  16.985  1.00  0.00     0.086 A 
HETATM    8  C14 UNL     1      16.391  33.237  17.164  1.00  0.00    -0.007 A 
HETATM    9  C19 UNL     1      15.626  32.422  16.370  1.00  0.00     0.098 A 
HETATM   10  N7  UNL     1      16.504  31.627  15.710  1.00  0.00    -0.362 N 
ATOM     11  H7  UNL     1      16.237  30.908  15.039  1.00  0.00     0.165 HD
HETATM   12  C20 UNL     1      17.770  31.911  16.057  1.00  0.00     0.088 A 
ENDROOT
BRANCH   1  13
HETATM   13  C4  UNL     1      19.092  30.311  14.762  1.00  0.00    -0.004 A 
HETATM   14  C3  UNL     1      18.263  30.312  13.669  1.00  0.00     0.053 A 
HETATM   15  C2  UNL     1      18.313  29.270  12.779  1.00  0.00     0.102 A 
HETATM   16  C23 UNL     1      19.175  28.198  12.936  1.00  0.00     0.102 A 
HETATM   17  C22 UNL     1      19.988  28.234  14.042  1.00  0.00     0.040 A 
HETATM   18  C21 UNL     1      19.966  29.278  14.971  1.00  0.00     0.017 A 
BRANCH  15  19
HETATM   19  O1  UNL     1      17.455  29.295  11.666  1.00  0.00    -0.353 OA
HETATM   20  C1  UNL     1      16.087  28.982  11.823  1.00  0.00     0.210 C 
ENDBRANCH  15  19
BRANCH  16  21
HETATM   21  O3  UNL     1      19.144  27.206  11.992  1.00  0.00    -0.343 OA
BRANCH  21  22
HETATM   22  C24 UNL     1      20.180  27.030  11.083  1.00  0.00     0.220 C 
BRANCH  22  23
HETATM   23  C25 UNL     1      21.082  25.879  11.339  1.00  0.00     0.084 C 
BRANCH  23  24
HETATM   24  N8  UNL     1      22.397  26.118  11.742  1.00  0.00    -0.391 N 
HETATM   25  C26 UNL     1      22.871  27.447  11.851  1.00  0.00     0.122 C 
HETATM   26  C27 UNL     1      24.380  27.391  11.848  1.00  0.00     0.021 C 
HETATM   27  C28 UNL     1      24.700  25.931  11.794  1.00  0.00     0.021 C 
HETATM   28  C29 UNL     1      23.439  25.312  11.169  1.00  0.00     0.122 C 
ENDBRANCH  23  24
ENDBRANCH  22  23
ENDBRANCH  21  22
ENDBRANCH  16  21
ENDBRANCH   1  13
BRANCH   4  29
HETATM   29  N2  UNL     1      21.157  33.434  17.640  1.00  0.00    -0.221 N 
ATOM     30  H2  UNL     1      21.306  33.219  18.626  1.00  0.00     0.178 HD
BRANCH  29  31
HETATM   31  C7  UNL     1      22.177  34.238  17.036  1.00  0.00     0.182 C 
BRANCH  31  32
HETATM   32  C8  UNL     1      21.588  35.626  16.888  1.00  0.00     0.078 C 
BRANCH  32  33
HETATM   33  N3  UNL     1      21.734  36.502  17.969  1.00  0.00    -0.388 N 
HETATM   34  C9  UNL     1      20.592  37.118  18.533  1.00  0.00     0.148 C 
HETATM   35  C10 UNL     1      19.957  36.132  19.517  1.00  0.00     0.187 C 
HETATM   36  O2  UNL     1      20.915  35.432  20.207  1.00  0.00    -0.388 OA
HETATM   37  C11 UNL     1      22.159  36.015  20.262  1.00  0.00     0.187 C 
HETATM   38  C12 UNL     1      22.776  36.220  18.893  1.00  0.00     0.148 C 
ENDBRANCH  32  33
ENDBRANCH  31  32
ENDBRANCH  29  31
ENDBRANCH   4  29
BRANCH   8  39
HETATM   39  C15 UNL     1      15.916  34.276  18.124  1.00  0.00     0.101 C 
BRANCH  39  40
HETATM   40  C16 UNL     1      16.385  35.624  17.696  1.00  0.00     0.029 A 
HETATM   41  C17 UNL     1      16.828  36.041  16.474  1.00  0.00     0.114 A 
HETATM   42  N5  UNL     1      17.117  37.337  16.547  1.00  0.00    -0.360 N 
HETATM   43  C18 UNL     1      16.856  37.732  17.814  1.00  0.00     0.180 A 
ATOM     44  H5  UNL     1      17.469  37.923  15.790  1.00  0.00     0.166 HD
HETATM   45  N6  UNL     1      16.409  36.679  18.511  1.00  0.00    -0.354 N 
ATOM     46  H6  UNL     1      16.135  36.684  19.493  1.00  0.00     0.166 HD
ENDBRANCH  39  40
ENDBRANCH   8  39
TORSDOF 12
ENDMDL
MODEL 5
REMARK VINA RESULT: -8.351165653      2.169      4.893
REMARK  12 active torsions:
REMARK  status: ('A' for Active; 'I' for Inactive)
REMARK    1  A    between atoms: O1_2  and  C2_3 
REMARK    2  A    between atoms: C4_5  and  C5_6 
REMARK    3  A    between atoms: C6_9  and  N2_10 
REMARK    4  A    between atoms: N2_10  and  C7_12 
REMARK    5  A    between atoms: C7_12  and  C8_13 
REMARK    6  A    between atoms: C8_13  and  N3_14 
REMARK    7  A    between atoms: C14_23  and  C15_24 
REMARK    8  A    between atoms: C15_24  and  C16_25 
REMARK    9  A    between atoms: C23_38  and  O3_39 
REMARK   10  A    between atoms: O3_39  and  C24_40 
REMARK   11  A    between atoms: C24_40  and  C25_41 
REMARK   12  A    between atoms: C25_41  and  N8_42 
ROOT
HETATM    1  C5  UNL     1      20.186  29.877  14.703  1.00  0.00     0.088 A 
HETATM    2  N1  UNL     1      20.989  30.392  15.632  1.00  0.00    -0.189 N 
ATOM      3  H1  UNL     1      21.976  30.138  15.615  1.00  0.00     0.184 HD
HETATM    4  C6  UNL     1      20.563  31.228  16.587  1.00  0.00     0.679 A 
HETATM    5  N4  UNL     1      19.236  31.532  16.560  1.00  0.00    -0.189 N 
ATOM      6  H4  UNL     1      18.875  32.167  17.274  1.00  0.00     0.184 HD
HETATM    7  C13 UNL     1      18.378  31.051  15.658  1.00  0.00     0.086 A 
HETATM    8  C14 UNL     1      17.023  31.207  15.424  1.00  0.00    -0.007 A 
HETATM    9  C19 UNL     1      16.654  30.470  14.328  1.00  0.00     0.098 A 
HETATM   10  N7  UNL     1      17.787  29.862  13.899  1.00  0.00    -0.362 N 
ATOM     11  H7  UNL     1      17.837  29.239  13.093  1.00  0.00     0.165 HD
HETATM   12  C20 UNL     1      18.835  30.187  14.673  1.00  0.00     0.088 A 
ENDROOT
BRANCH   1  13
HETATM   13  C4  UNL     1      20.687  28.923  13.695  1.00  0.00    -0.004 A 
HETATM   14  C3  UNL     1      19.877  28.580  12.642  1.00  0.00     0.053 A 
HETATM   15  C2  UNL     1      20.331  27.694  11.699  1.00  0.00     0.102 A 
HETATM   16  C23 UNL     1      21.588  27.120  11.761  1.00  0.00     0.102 A 
HETATM   17  C22 UNL     1      22.368  27.488  12.829  1.00  0.00     0.040 A 
HETATM   18  C21 UNL     1      21.942  28.388  13.810  1.00  0.00     0.017 A 
BRANCH  15  19
HETATM   19  O1  UNL     1      19.483  27.360  10.628  1.00  0.00    -0.353 OA
HETATM   20  C1  UNL     1      18.120  27.730  10.666  1.00  0.00     0.210 C 
ENDBRANCH  15  19
BRANCH  16  21
HETATM   21  O3  UNL     1      21.944  26.244  10.771  1.00  0.00    -0.343 OA
BRANCH  21  22
HETATM   22  C24 UNL     1      21.826  24.869  10.934  1.00  0.00     0.220 C 
BRANCH  22  23
HETATM   23  C25 UNL     1      20.888  24.182  10.011  1.00  0.00     0.084 C 
BRANCH  23  24
HETATM   24  N8  UNL     1      19.647  23.758  10.489  1.00  0.00    -0.391 N 
HETATM   25  C26 UNL     1      18.468  24.090   9.781  1.00  0.00     0.122 C 
HETATM   26  C27 UNL     1      17.305  23.915  10.729  1.00  0.00     0.021 C 
HETATM   27  C28 UNL     1      17.925  23.401  11.989  1.00  0.00     0.021 C 
HETATM   28  C29 UNL     1      19.380  23.888  11.895  1.00  0.00     0.122 C 
ENDBRANCH  23  24
ENDBRANCH  22  23
ENDBRANCH  21  22
ENDBRANCH  16  21
ENDBRANCH   1  13
BRANCH   4  29
HETATM   29  N2  UNL     1      21.337  31.707  17.454  1.00  0.00    -0.221 N 
ATOM     30  H2  UNL     1      20.959  31.730  18.401  1.00  0.00     0.178 HD
BRANCH  29  31
HETATM   31  C7  UNL     1      22.665  32.226  17.319  1.00  0.00     0.182 C 
BRANCH  31  32
HETATM   32  C8  UNL     1      22.554  33.442  16.421  1.00  0.00     0.078 C 
BRANCH  32  33
HETATM   33  N3  UNL     1      22.342  34.678  17.041  1.00  0.00    -0.388 N 
HETATM   34  C9  UNL     1      21.310  35.528  16.577  1.00  0.00     0.148 C 
HETATM   35  C10 UNL     1      19.995  35.070  17.212  1.00  0.00     0.187 C 
HETATM   36  O2  UNL     1      20.183  34.671  18.512  1.00  0.00    -0.388 OA
HETATM   37  C11 UNL     1      21.308  35.162  19.132  1.00  0.00     0.187 C 
HETATM   38  C12 UNL     1      22.591  34.752  18.438  1.00  0.00     0.148 C 
ENDBRANCH  32  33
ENDBRANCH  31  32
ENDBRANCH  29  31
ENDBRANCH   4  29
BRANCH   8  39
HETATM   39  C15 UNL     1      16.144  32.041  16.295  1.00  0.00     0.101 C 
BRANCH  39  40
HETATM   40  C16 UNL     1      16.396  33.488  16.047  1.00  0.00     0.029 A 
HETATM   41  C17 UNL     1      16.972  34.095  14.968  1.00  0.00     0.114 A 
HETATM   42  N5  UNL     1      16.964  35.410  15.167  1.00  0.00    -0.360 N 
HETATM   43  C18 UNL     1      16.384  35.627  16.369  1.00  0.00     0.180 A 
ATOM     44  H5  UNL     1      17.327  36.121  14.533  1.00  0.00     0.166 HD
HETATM   45  N6  UNL     1      16.040  34.447  16.901  1.00  0.00    -0.354 N 
ATOM     46  H6  UNL     1      15.585  34.307  17.804  1.00  0.00     0.166 HD
ENDBRANCH  39  40
ENDBRANCH   8  39
TORSDOF 12
ENDMDL
