MODEL 1
REMARK VINA RESULT: -7.937532887      0.000      0.000
REMARK  13 active torsions:
REMARK  status: ('A' for Active; 'I' for Inactive)
REMARK    1  A    between atoms: C2_2  and  N1_3 
REMARK    2  A    between atoms: N1_3  and  C3_4 
REMARK    3  A    between atoms: N1_3  and  C5_6 
REMARK    4  A    between atoms: C5_6  and  C6_7 
REMARK    5  A    between atoms: C6_7  and  N2_8 
REMARK    6  A    between atoms: N2_8  and  C7_10 
REMARK    7  A    between atoms: C8_13  and  N4_14 
REMARK    8  A    between atoms: N4_14  and  C9_16 
REMARK    9  A    between atoms: C9_16  and  C10_17 
REMARK   10  A    between atoms: C18_26  and  S1_27 
REMARK   11  A    between atoms: S1_27  and  N5_28 
REMARK   12  A    between atoms: C21_35  and  O4_36 
REMARK   13  A    between atoms: C23_38  and  O5_39 
ROOT
HETATM    1  C10 UNL     1      20.791  26.697  11.914  1.00  0.00     0.006 A 
HETATM    2  C11 UNL     1      19.494  26.330  11.495  1.00  0.00     0.051 A 
HETATM    3  C12 UNL     1      19.202  25.399  10.524  1.00  0.00     0.075 A 
HETATM    4  O1  UNL     1      17.982  25.100  10.153  1.00  0.00    -0.355 OA
HETATM    5  C13 UNL     1      16.790  24.826   9.808  1.00  0.00     0.210 C 
HETATM    6  C14 UNL     1      20.332  24.761   9.934  1.00  0.00    -0.021 A 
HETATM    7  C15 UNL     1      20.081  23.769   8.880  1.00  0.00     0.052 C 
HETATM    8  C16 UNL     1      21.588  25.109  10.337  1.00  0.00    -0.029 A 
HETATM    9  C17 UNL     1      22.793  24.388   9.825  1.00  0.00     0.050 C 
HETATM   10  C18 UNL     1      21.837  26.092  11.329  1.00  0.00     0.097 A 
ENDROOT
BRANCH   1  11
HETATM   11  C9  UNL     1      20.896  27.763  12.887  1.00  0.00     0.102 C 
BRANCH  11  12
HETATM   12  N4  UNL     1      20.990  29.131  12.570  1.00  0.00    -0.350 N 
ATOM     13  H4  UNL     1      21.136  29.397  11.596  1.00  0.00     0.166 HD
BRANCH  12  14
HETATM   14  C8  UNL     1      20.901  30.047  13.441  1.00  0.00     0.133 A 
HETATM   15  N3  UNL     1      21.816  30.495  14.297  1.00  0.00    -0.176 N 
HETATM   16  C7  UNL     1      21.638  31.192  15.370  1.00  0.00     0.680 A 
ATOM     17  H3  UNL     1      22.784  30.257  14.077  1.00  0.00     0.186 HD
HETATM   18  N6  UNL     1      20.391  31.563  15.745  1.00  0.00    -0.191 N 
HETATM   19  C26 UNL     1      19.356  31.165  14.967  1.00  0.00     0.066 A 
ATOM     20  H6  UNL     1      20.237  32.122  16.583  1.00  0.00     0.184 HD
HETATM   21  C19 UNL     1      19.585  30.449  13.861  1.00  0.00     0.039 A 
HETATM   22  C25 UNL     1      18.066  31.394  15.456  1.00  0.00     0.070 A 
HETATM   23  C20 UNL     1      18.496  29.947  13.181  1.00  0.00     0.057 A 
HETATM   24  C21 UNL     1      17.207  30.148  13.632  1.00  0.00     0.102 A 
HETATM   25  C23 UNL     1      17.001  30.891  14.810  1.00  0.00     0.103 A 
BRANCH  16  26
HETATM   26  N2  UNL     1      22.566  31.609  16.180  1.00  0.00    -0.224 N 
ATOM     27  H2  UNL     1      23.521  31.361  15.922  1.00  0.00     0.177 HD
BRANCH  26  28
HETATM   28  C6  UNL     1      22.432  32.349  17.352  1.00  0.00     0.157 C 
BRANCH  28  29
HETATM   29  C5  UNL     1      22.924  33.796  17.117  1.00  0.00     0.137 C 
BRANCH  29  30
HETATM   30  N1  UNL     1      21.821  34.664  16.960  1.00  0.00    -0.412 N 
BRANCH  30  31
HETATM   31  C2  UNL     1      22.055  35.997  16.481  1.00  0.00     0.112 C 
HETATM   32  C1  UNL     1      22.946  36.848  17.292  1.00  0.00     0.026 C 
ENDBRANCH  30  31
BRANCH  30  33
HETATM   33  C3  UNL     1      20.730  34.576  17.881  1.00  0.00     0.112 C 
HETATM   34  C4  UNL     1      19.457  34.829  17.091  1.00  0.00     0.026 C 
ENDBRANCH  30  33
ENDBRANCH  29  30
ENDBRANCH  28  29
ENDBRANCH  26  28
ENDBRANCH  16  26
BRANCH  24  35
HETATM   35  O4  UNL     1      16.117  29.685  13.004  1.00  0.00    -0.353 OA
HETATM   36  C22 UNL     1      15.693  28.948  11.999  1.00  0.00     0.210 C 
ENDBRANCH  24  35
BRANCH  25  37
HETATM   37  O5  UNL     1      15.715  31.047  15.232  1.00  0.00    -0.353 OA
HETATM   38  C24 UNL     1      15.157  31.929  16.120  1.00  0.00     0.210 C 
ENDBRANCH  25  37
ENDBRANCH  12  14
ENDBRANCH  11  12
ENDBRANCH   1  11
BRANCH  10  39
HETATM   39  S1  UNL     1      23.479  26.577  11.573  1.00  0.00     0.258 S 
HETATM   40  O2  UNL     1      23.524  27.458  12.864  1.00  0.00    -0.201 OA
HETATM   41  O3  UNL     1      24.328  25.383  12.042  1.00  0.00    -0.201 OA
BRANCH  39  42
HETATM   42  N5  UNL     1      24.170  27.518  10.347  1.00  0.00    -0.324 N 
ATOM     43  H52 UNL     1      23.934  28.505  10.245  1.00  0.00     0.169 HD
ATOM     44  H51 UNL     1      24.825  27.040   9.729  1.00  0.00     0.169 HD
ENDBRANCH  39  42
ENDBRANCH  10  39
TORSDOF 13
ENDMDL
MODEL 2
REMARK VINA RESULT: -7.915119082      0.568      1.059
REMARK  13 active torsions:
REMARK  status: ('A' for Active; 'I' for Inactive)
REMARK    1  A    between atoms: C2_2  and  N1_3 
REMARK    2  A    between atoms: N1_3  and  C3_4 
REMARK    3  A    between atoms: N1_3  and  C5_6 
REMARK    4  A    between atoms: C5_6  and  C6_7 
REMARK    5  A    between atoms: C6_7  and  N2_8 
REMARK    6  A    between atoms: N2_8  and  C7_10 
REMARK    7  A    between atoms: C8_13  and  N4_14 
REMARK    8  A    between atoms: N4_14  and  C9_16 
REMARK    9  A    between atoms: C9_16  and  C10_17 
REMARK   10  A    between atoms: C18_26  and  S1_27 
REMARK   11  A    between atoms: S1_27  and  N5_28 
REMARK   12  A    between atoms: C21_35  and  O4_36 
REMARK   13  A    between atoms: C23_38  and  O5_39 
ROOT
HETATM    1  C10 UNL     1      20.891  26.691  11.885  1.00  0.00     0.006 A 
HETATM    2  C11 UNL     1      19.616  26.339  11.394  1.00  0.00     0.051 A 
HETATM    3  C12 UNL     1      19.368  25.404  10.416  1.00  0.00     0.075 A 
HETATM    4  O1  UNL     1      18.167  25.119   9.975  1.00  0.00    -0.355 OA
HETATM    5  C13 UNL     1      16.994  24.860   9.561  1.00  0.00     0.210 C 
HETATM    6  C14 UNL     1      20.521  24.743   9.899  1.00  0.00    -0.021 A 
HETATM    7  C15 UNL     1      20.318  23.744   8.841  1.00  0.00     0.052 C 
HETATM    8  C16 UNL     1      21.756  25.075  10.373  1.00  0.00    -0.029 A 
HETATM    9  C17 UNL     1      22.978  24.331   9.941  1.00  0.00     0.050 C 
HETATM   10  C18 UNL     1      21.961  26.065  11.370  1.00  0.00     0.097 A 
ENDROOT
BRANCH   1  11
HETATM   11  C9  UNL     1      20.955  27.764  12.854  1.00  0.00     0.102 C 
BRANCH  11  12
HETATM   12  N4  UNL     1      21.030  29.132  12.530  1.00  0.00    -0.350 N 
ATOM     13  H4  UNL     1      21.164  29.395  11.554  1.00  0.00     0.166 HD
BRANCH  12  14
HETATM   14  C8  UNL     1      20.940  30.051  13.398  1.00  0.00     0.133 A 
HETATM   15  N3  UNL     1      21.855  30.506  14.251  1.00  0.00    -0.176 N 
HETATM   16  C7  UNL     1      21.676  31.206  15.321  1.00  0.00     0.680 A 
ATOM     17  H3  UNL     1      22.823  30.270  14.030  1.00  0.00     0.186 HD
HETATM   18  N6  UNL     1      20.427  31.573  15.697  1.00  0.00    -0.191 N 
HETATM   19  C26 UNL     1      19.393  31.169  14.922  1.00  0.00     0.066 A 
ATOM     20  H6  UNL     1      20.272  32.135  16.534  1.00  0.00     0.184 HD
HETATM   21  C19 UNL     1      19.623  30.449  13.818  1.00  0.00     0.039 A 
HETATM   22  C25 UNL     1      18.102  31.394  15.413  1.00  0.00     0.070 A 
HETATM   23  C20 UNL     1      18.535  29.941  13.142  1.00  0.00     0.057 A 
HETATM   24  C21 UNL     1      17.245  30.139  13.594  1.00  0.00     0.102 A 
HETATM   25  C23 UNL     1      17.038  30.885  14.770  1.00  0.00     0.103 A 
BRANCH  16  26
HETATM   26  N2  UNL     1      22.603  31.629  16.129  1.00  0.00    -0.224 N 
ATOM     27  H2  UNL     1      23.559  31.400  15.859  1.00  0.00     0.177 HD
BRANCH  26  28
HETATM   28  C6  UNL     1      22.467  32.353  17.311  1.00  0.00     0.157 C 
BRANCH  28  29
HETATM   29  C5  UNL     1      22.855  33.830  17.069  1.00  0.00     0.137 C 
BRANCH  29  30
HETATM   30  N1  UNL     1      21.887  34.686  17.641  1.00  0.00    -0.412 N 
BRANCH  30  31
HETATM   31  C2  UNL     1      20.671  34.931  16.920  1.00  0.00     0.112 C 
HETATM   32  C1  UNL     1      19.414  34.532  17.578  1.00  0.00     0.026 C 
ENDBRANCH  30  31
BRANCH  30  33
HETATM   33  C3  UNL     1      22.322  35.806  18.417  1.00  0.00     0.112 C 
HETATM   34  C4  UNL     1      22.271  35.386  19.876  1.00  0.00     0.026 C 
ENDBRANCH  30  33
ENDBRANCH  29  30
ENDBRANCH  28  29
ENDBRANCH  26  28
ENDBRANCH  16  26
BRANCH  24  35
HETATM   35  O4  UNL     1      16.157  29.669  12.970  1.00  0.00    -0.353 OA
HETATM   36  C22 UNL     1      15.733  28.941  11.958  1.00  0.00     0.210 C 
ENDBRANCH  24  35
BRANCH  25  37
HETATM   37  O5  UNL     1      15.752  31.038  15.193  1.00  0.00    -0.353 OA
HETATM   38  C24 UNL     1      15.203  31.881  16.123  1.00  0.00     0.210 C 
ENDBRANCH  25  37
ENDBRANCH  12  14
ENDBRANCH  11  12
ENDBRANCH   1  11
BRANCH  10  39
HETATM   39  S1  UNL     1      23.593  26.527  11.707  1.00  0.00     0.258 S 
HETATM   40  O2  UNL     1      23.577  27.402  13.003  1.00  0.00    -0.201 OA
HETATM   41  O3  UNL     1      24.399  25.320  12.217  1.00  0.00    -0.201 OA
BRANCH  39  42
HETATM   42  N5  UNL     1      24.363  27.464  10.525  1.00  0.00    -0.324 N 
ATOM     43  H52 UNL     1      24.261  28.479  10.510  1.00  0.00     0.169 HD
ATOM     44  H51 UNL     1      24.924  26.954   9.843  1.00  0.00     0.169 HD
ENDBRANCH  39  42
ENDBRANCH  10  39
TORSDOF 13
ENDMDL
MODEL 3
REMARK VINA RESULT: -7.803845859      2.539      4.856
REMARK  13 active torsions:
REMARK  status: ('A' for Active; 'I' for Inactive)
REMARK    1  A    between atoms: C2_2  and  N1_3 
REMARK    2  A    between atoms: N1_3  and  C3_4 
REMARK    3  A    between atoms: N1_3  and  C5_6 
REMARK    4  A    between atoms: C5_6  and  C6_7 
REMARK    5  A    between atoms: C6_7  and  N2_8 
REMARK    6  A    between atoms: N2_8  and  C7_10 
REMARK    7  A    between atoms: C8_13  and  N4_14 
REMARK    8  A    between atoms: N4_14  and  C9_16 
REMARK    9  A    between atoms: C9_16  and  C10_17 
REMARK   10  A    between atoms: C18_26  and  S1_27 
REMARK   11  A    between atoms: S1_27  and  N5_28 
REMARK   12  A    between atoms: C21_35  and  O4_36 
REMARK   13  A    between atoms: C23_38  and  O5_39 
ROOT
HETATM    1  C10 UNL     1      20.415  28.432  12.733  1.00  0.00     0.006 A 
HETATM    2  C11 UNL     1      19.054  28.797  12.674  1.00  0.00     0.051 A 
HETATM    3  C12 UNL     1      18.103  28.207  11.872  1.00  0.00     0.075 A 
HETATM    4  O1  UNL     1      16.850  28.589  11.836  1.00  0.00    -0.355 OA
HETATM    5  C13 UNL     1      15.640  28.977  11.815  1.00  0.00     0.210 C 
HETATM    6  C14 UNL     1      18.570  27.129  11.067  1.00  0.00    -0.021 A 
HETATM    7  C15 UNL     1      17.602  26.471  10.179  1.00  0.00     0.052 C 
HETATM    8  C16 UNL     1      19.885  26.768  11.121  1.00  0.00    -0.029 A 
HETATM    9  C17 UNL     1      20.393  25.574  10.379  1.00  0.00     0.050 C 
HETATM   10  C18 UNL     1      20.832  27.423  11.951  1.00  0.00     0.097 A 
ENDROOT
BRANCH   1  11
HETATM   11  C9  UNL     1      21.280  29.231  13.574  1.00  0.00     0.102 C 
BRANCH  11  12
HETATM   12  N4  UNL     1      21.265  29.215  14.982  1.00  0.00    -0.350 N 
ATOM     13  H4  UNL     1      21.909  28.590  15.469  1.00  0.00     0.166 HD
BRANCH  12  14
HETATM   14  C8  UNL     1      20.488  29.940  15.671  1.00  0.00     0.133 A 
HETATM   15  N3  UNL     1      19.173  29.844  15.849  1.00  0.00    -0.176 N 
HETATM   16  C7  UNL     1      18.354  30.743  16.283  1.00  0.00     0.680 A 
ATOM     17  H3  UNL     1      18.758  28.942  15.612  1.00  0.00     0.186 HD
HETATM   18  N6  UNL     1      18.808  31.972  16.629  1.00  0.00    -0.191 N 
HETATM   19  C26 UNL     1      20.133  32.215  16.488  1.00  0.00     0.066 A 
ATOM     20  H6  UNL     1      18.175  32.688  16.982  1.00  0.00     0.184 HD
HETATM   21  C19 UNL     1      20.948  31.253  16.041  1.00  0.00     0.039 A 
HETATM   22  C25 UNL     1      20.563  33.533  16.672  1.00  0.00     0.070 A 
HETATM   23  C20 UNL     1      22.258  31.588  15.780  1.00  0.00     0.057 A 
HETATM   24  C21 UNL     1      22.722  32.878  15.946  1.00  0.00     0.102 A 
HETATM   25  C23 UNL     1      21.834  33.872  16.401  1.00  0.00     0.103 A 
BRANCH  16  26
HETATM   26  N2  UNL     1      17.070  30.605  16.441  1.00  0.00    -0.224 N 
ATOM     27  H2  UNL     1      16.784  29.968  17.184  1.00  0.00     0.177 HD
BRANCH  26  28
HETATM   28  C6  UNL     1      16.034  31.208  15.732  1.00  0.00     0.157 C 
BRANCH  28  29
HETATM   29  C5  UNL     1      15.281  32.199  16.649  1.00  0.00     0.137 C 
BRANCH  29  30
HETATM   30  N1  UNL     1      15.795  33.504  16.479  1.00  0.00    -0.412 N 
BRANCH  30  31
HETATM   31  C2  UNL     1      16.422  33.841  15.233  1.00  0.00     0.112 C 
HETATM   32  C1  UNL     1      16.711  35.267  14.996  1.00  0.00     0.026 C 
ENDBRANCH  30  31
BRANCH  30  33
HETATM   33  C3  UNL     1      16.370  34.177  17.604  1.00  0.00     0.112 C 
HETATM   34  C4  UNL     1      15.235  34.870  18.337  1.00  0.00     0.026 C 
ENDBRANCH  30  33
ENDBRANCH  29  30
ENDBRANCH  28  29
ENDBRANCH  26  28
ENDBRANCH  16  26
BRANCH  24  35
HETATM   35  O4  UNL     1      23.987  33.252  15.709  1.00  0.00    -0.353 OA
HETATM   36  C22 UNL     1      24.998  33.139  14.874  1.00  0.00     0.210 C 
ENDBRANCH  24  35
BRANCH  25  37
HETATM   37  O5  UNL     1      22.326  35.136  16.530  1.00  0.00    -0.353 OA
HETATM   38  C24 UNL     1      22.226  36.042  17.552  1.00  0.00     0.210 C 
ENDBRANCH  25  37
ENDBRANCH  12  14
ENDBRANCH  11  12
ENDBRANCH   1  11
BRANCH  10  39
HETATM   39  S1  UNL     1      22.496  26.997  11.748  1.00  0.00     0.258 S 
HETATM   40  O2  UNL     1      23.274  27.523  12.998  1.00  0.00    -0.201 OA
HETATM   41  O3  UNL     1      22.690  25.483  11.938  1.00  0.00    -0.201 OA
BRANCH  39  42
HETATM   42  N5  UNL     1      23.278  27.663  10.402  1.00  0.00    -0.324 N 
ATOM     43  H52 UNL     1      23.360  28.673  10.288  1.00  0.00     0.169 HD
ATOM     44  H51 UNL     1      23.654  26.998   9.726  1.00  0.00     0.169 HD
ENDBRANCH  39  42
ENDBRANCH  10  39
TORSDOF 13
ENDMDL
MODEL 4
REMARK VINA RESULT: -7.801208399      2.915      5.516
REMARK  13 active torsions:
REMARK  status: ('A' for Active; 'I' for Inactive)
REMARK    1  A    between atoms: C2_2  and  N1_3 
REMARK    2  A    between atoms: N1_3  and  C3_4 
REMARK    3  A    between atoms: N1_3  and  C5_6 
REMARK    4  A    between atoms: C5_6  and  C6_7 
REMARK    5  A    between atoms: C6_7  and  N2_8 
REMARK    6  A    between atoms: N2_8  and  C7_10 
REMARK    7  A    between atoms: C8_13  and  N4_14 
REMARK    8  A    between atoms: N4_14  and  C9_16 
REMARK    9  A    between atoms: C9_16  and  C10_17 
REMARK   10  A    between atoms: C18_26  and  S1_27 
REMARK   11  A    between atoms: S1_27  and  N5_28 
REMARK   12  A    between atoms: C21_35  and  O4_36 
REMARK   13  A    between atoms: C23_38  and  O5_39 
ROOT
HETATM    1  C10 UNL     1      21.125  28.356  13.083  1.00  0.00     0.006 A 
HETATM    2  C11 UNL     1      22.445  27.990  12.745  1.00  0.00     0.051 A 
HETATM    3  C12 UNL     1      22.807  26.855  12.056  1.00  0.00     0.075 A 
HETATM    4  O1  UNL     1      24.049  26.543  11.778  1.00  0.00    -0.355 OA
HETATM    5  C13 UNL     1      25.260  26.260  11.520  1.00  0.00     0.210 C 
HETATM    6  C14 UNL     1      21.727  26.019  11.649  1.00  0.00    -0.021 A 
HETATM    7  C15 UNL     1      22.054  24.786  10.923  1.00  0.00     0.052 C 
HETATM    8  C16 UNL     1      20.447  26.370  11.969  1.00  0.00    -0.029 A 
HETATM    9  C17 UNL     1      19.280  25.582  11.468  1.00  0.00     0.050 C 
HETATM   10  C18 UNL     1      20.127  27.542  12.702  1.00  0.00     0.097 A 
ENDROOT
BRANCH   1  11
HETATM   11  C9  UNL     1      20.953  29.545  13.890  1.00  0.00     0.102 C 
BRANCH  11  12
HETATM   12  N4  UNL     1      20.764  29.546  15.285  1.00  0.00    -0.350 N 
ATOM     13  H4  UNL     1      21.278  28.867  15.847  1.00  0.00     0.166 HD
BRANCH  12  14
HETATM   14  C8  UNL     1      19.983  30.352  15.873  1.00  0.00     0.133 A 
HETATM   15  N3  UNL     1      18.656  30.335  15.963  1.00  0.00    -0.176 N 
HETATM   16  C7  UNL     1      17.861  31.300  16.285  1.00  0.00     0.680 A 
ATOM     17  H3  UNL     1      18.208  29.443  15.750  1.00  0.00     0.186 HD
HETATM   18  N6  UNL     1      18.359  32.522  16.590  1.00  0.00    -0.191 N 
HETATM   19  C26 UNL     1      19.702  32.687  16.531  1.00  0.00     0.066 A 
ATOM     20  H6  UNL     1      17.744  33.291  16.856  1.00  0.00     0.184 HD
HETATM   21  C19 UNL     1      20.490  31.659  16.198  1.00  0.00     0.039 A 
HETATM   22  C25 UNL     1      20.191  33.991  16.668  1.00  0.00     0.070 A 
HETATM   23  C20 UNL     1      21.831  31.910  16.012  1.00  0.00     0.057 A 
HETATM   24  C21 UNL     1      22.354  33.182  16.136  1.00  0.00     0.102 A 
HETATM   25  C23 UNL     1      21.494  34.246  16.468  1.00  0.00     0.103 A 
BRANCH  16  26
HETATM   26  N2  UNL     1      16.564  31.238  16.359  1.00  0.00    -0.224 N 
ATOM     27  H2  UNL     1      16.131  30.460  15.862  1.00  0.00     0.177 HD
BRANCH  26  28
HETATM   28  C6  UNL     1      15.686  32.091  17.025  1.00  0.00     0.157 C 
BRANCH  28  29
HETATM   29  C5  UNL     1      15.344  33.298  16.122  1.00  0.00     0.137 C 
BRANCH  29  30
HETATM   30  N1  UNL     1      15.572  34.506  16.821  1.00  0.00    -0.412 N 
BRANCH  30  31
HETATM   31  C2  UNL     1      16.426  35.494  16.228  1.00  0.00     0.112 C 
HETATM   32  C1  UNL     1      16.782  35.302  14.810  1.00  0.00     0.026 C 
ENDBRANCH  30  31
BRANCH  30  33
HETATM   33  C3  UNL     1      15.642  34.479  18.250  1.00  0.00     0.112 C 
HETATM   34  C4  UNL     1      16.469  35.680  18.678  1.00  0.00     0.026 C 
ENDBRANCH  30  33
ENDBRANCH  29  30
ENDBRANCH  28  29
ENDBRANCH  26  28
ENDBRANCH  16  26
BRANCH  24  35
HETATM   35  O4  UNL     1      23.651  33.474  15.969  1.00  0.00    -0.353 OA
HETATM   36  C22 UNL     1      24.678  33.356  15.154  1.00  0.00     0.210 C 
ENDBRANCH  24  35
BRANCH  25  37
HETATM   37  O5  UNL     1      22.046  35.488  16.559  1.00  0.00    -0.353 OA
HETATM   38  C24 UNL     1      21.779  36.534  17.402  1.00  0.00     0.210 C 
ENDBRANCH  25  37
ENDBRANCH  12  14
ENDBRANCH  11  12
ENDBRANCH   1  11
BRANCH  10  39
HETATM   39  S1  UNL     1      18.488  27.735  13.216  1.00  0.00     0.258 S 
HETATM   40  O2  UNL     1      18.176  29.268  13.234  1.00  0.00    -0.201 OA
HETATM   41  O3  UNL     1      17.520  27.285  12.109  1.00  0.00    -0.201 OA
BRANCH  39  42
HETATM   42  N5  UNL     1      18.122  27.170  14.770  1.00  0.00    -0.324 N 
ATOM     43  H52 UNL     1      18.554  27.584  15.596  1.00  0.00     0.169 HD
ATOM     44  H51 UNL     1      17.453  26.403  14.823  1.00  0.00     0.169 HD
ENDBRANCH  39  42
ENDBRANCH  10  39
TORSDOF 13
ENDMDL
MODEL 5
REMARK VINA RESULT: -7.756255942      3.594      8.967
REMARK  13 active torsions:
REMARK  status: ('A' for Active; 'I' for Inactive)
REMARK    1  A    between atoms: C2_2  and  N1_3 
REMARK    2  A    between atoms: N1_3  and  C3_4 
REMARK    3  A    between atoms: N1_3  and  C5_6 
REMARK    4  A    between atoms: C5_6  and  C6_7 
REMARK    5  A    between atoms: C6_7  and  N2_8 
REMARK    6  A    between atoms: N2_8  and  C7_10 
REMARK    7  A    between atoms: C8_13  and  N4_14 
REMARK    8  A    between atoms: N4_14  and  C9_16 
REMARK    9  A    between atoms: C9_16  and  C10_17 
REMARK   10  A    between atoms: C18_26  and  S1_27 
REMARK   11  A    between atoms: S1_27  and  N5_28 
REMARK   12  A    between atoms: C21_35  and  O4_36 
REMARK   13  A    between atoms: C23_38  and  O5_39 
ROOT
HETATM    1  C10 UNL     1      17.592  33.725  15.093  1.00  0.00     0.006 A 
HETATM    2  C11 UNL     1      17.550  35.054  15.565  1.00  0.00     0.051 A 
HETATM    3  C12 UNL     1      16.725  35.521  16.562  1.00  0.00     0.075 A 
HETATM    4  O1  UNL     1      16.706  36.770  16.959  1.00  0.00    -0.355 OA
HETATM    5  C13 UNL     1      16.703  37.986  17.327  1.00  0.00     0.210 C 
HETATM    6  C14 UNL     1      15.875  34.544  17.156  1.00  0.00    -0.021 A 
HETATM    7  C15 UNL     1      14.961  34.989  18.216  1.00  0.00     0.052 C 
HETATM    8  C16 UNL     1      15.913  33.256  16.708  1.00  0.00    -0.029 A 
HETATM    9  C17 UNL     1      15.121  32.179  17.375  1.00  0.00     0.050 C 
HETATM   10  C18 UNL     1      16.769  32.828  15.659  1.00  0.00     0.097 A 
ENDROOT
BRANCH   1  11
HETATM   11  C9  UNL     1      18.466  33.446  13.973  1.00  0.00     0.102 C 
BRANCH  11  12
HETATM   12  N4  UNL     1      19.864  33.311  14.063  1.00  0.00    -0.350 N 
ATOM     13  H4  UNL     1      20.448  33.841  13.415  1.00  0.00     0.166 HD
BRANCH  12  14
HETATM   14  C8  UNL     1      20.430  32.560  14.912  1.00  0.00     0.133 A 
HETATM   15  N3  UNL     1      20.150  31.306  15.256  1.00  0.00    -0.176 N 
HETATM   16  C7  UNL     1      20.514  30.664  16.316  1.00  0.00     0.680 A 
ATOM     17  H3  UNL     1      19.572  30.784  14.597  1.00  0.00     0.186 HD
HETATM   18  N6  UNL     1      21.287  31.268  17.249  1.00  0.00    -0.191 N 
HETATM   19  C26 UNL     1      21.642  32.557  17.033  1.00  0.00     0.066 A 
ATOM     20  H6  UNL     1      21.590  30.770  18.086  1.00  0.00     0.184 HD
HETATM   21  C19 UNL     1      21.248  33.184  15.919  1.00  0.00     0.039 A 
HETATM   22  C25 UNL     1      22.282  33.227  18.081  1.00  0.00     0.070 A 
HETATM   23  C20 UNL     1      21.513  34.531  15.810  1.00  0.00     0.057 A 
HETATM   24  C21 UNL     1      22.140  35.230  16.822  1.00  0.00     0.102 A 
HETATM   25  C23 UNL     1      22.525  34.545  17.990  1.00  0.00     0.103 A 
BRANCH  16  26
HETATM   26  N2  UNL     1      20.214  29.433  16.612  1.00  0.00    -0.224 N 
ATOM     27  H2  UNL     1      20.043  29.248  17.600  1.00  0.00     0.177 HD
BRANCH  26  28
HETATM   28  C6  UNL     1      20.096  28.335  15.763  1.00  0.00     0.157 C 
BRANCH  28  29
HETATM   29  C5  UNL     1      21.297  28.294  14.791  1.00  0.00     0.137 C 
BRANCH  29  30
HETATM   30  N1  UNL     1      20.839  28.235  13.455  1.00  0.00    -0.412 N 
BRANCH  30  31
HETATM   31  C2  UNL     1      19.424  28.226  13.212  1.00  0.00     0.112 C 
HETATM   32  C1  UNL     1      18.990  28.286  11.805  1.00  0.00     0.026 C 
ENDBRANCH  30  31
BRANCH  30  33
HETATM   33  C3  UNL     1      21.583  27.476  12.498  1.00  0.00     0.112 C 
HETATM   34  C4  UNL     1      23.032  27.924  12.604  1.00  0.00     0.026 C 
ENDBRANCH  30  33
ENDBRANCH  29  30
ENDBRANCH  28  29
ENDBRANCH  26  28
ENDBRANCH  16  26
BRANCH  24  35
HETATM   35  O4  UNL     1      22.422  36.538  16.761  1.00  0.00    -0.353 OA
HETATM   36  C22 UNL     1      21.903  37.748  16.797  1.00  0.00     0.210 C 
ENDBRANCH  24  35
BRANCH  25  37
HETATM   37  O5  UNL     1      23.121  35.275  18.974  1.00  0.00    -0.353 OA
HETATM   38  C24 UNL     1      22.612  35.836  20.115  1.00  0.00     0.210 C 
ENDBRANCH  25  37
ENDBRANCH  12  14
ENDBRANCH  11  12
ENDBRANCH   1  11
BRANCH  10  39
HETATM   39  S1  UNL     1      16.546  31.222  15.057  1.00  0.00     0.258 S 
HETATM   40  O2  UNL     1      17.503  31.040  13.833  1.00  0.00    -0.201 OA
HETATM   41  O3  UNL     1      17.162  30.196  16.024  1.00  0.00    -0.201 OA
BRANCH  39  42
HETATM   42  N5  UNL     1      14.995  30.845  14.493  1.00  0.00    -0.324 N 
ATOM     43  H52 UNL     1      14.182  30.914  15.104  1.00  0.00     0.169 HD
ATOM     44  H51 UNL     1      14.931  30.550  13.519  1.00  0.00     0.169 HD
ENDBRANCH  39  42
ENDBRANCH  10  39
TORSDOF 13
ENDMDL
