MODEL 1
REMARK VINA RESULT: -8.330576408      0.000      0.000
REMARK  14 active torsions:
REMARK  status: ('A' for Active; 'I' for Inactive)
REMARK       I    between atoms: N1_2  and  C3_4 
REMARK    1  A    between atoms: C3_4  and  C4_6 
REMARK    2  A    between atoms: C4_6  and  C5_7 
REMARK    3  A    between atoms: C5_7  and  C6_8 
REMARK    4  A    between atoms: C6_8  and  C7_9 
REMARK    5  A    between atoms: C7_9  and  C8_10 
REMARK    6  A    between atoms: C8_10  and  O2_11 
REMARK    7  A    between atoms: C8_10  and  N2_13 
REMARK    8  A    between atoms: N2_13  and  C9_15 
REMARK    9  A    between atoms: C11_17  and  C12_18 
REMARK       I    between atoms: C12_18  and  N3_20 
REMARK   10  A    between atoms: N3_20  and  C13_21 
REMARK   11  A    between atoms: C13_21  and  C14_22 
REMARK   12  A    between atoms: C16_26  and  C17_27 
REMARK   13  A    between atoms: C17_27  and  C18_28 
REMARK       I    between atoms: C18_28  and  N5_30 
REMARK   14  A    between atoms: C23_37  and  C24_38 
ROOT
HETATM    1  C9  UNL     1      20.830  34.987  18.129  1.00  0.00     0.049 A 
HETATM    2  C10 UNL     1      19.591  34.697  17.668  1.00  0.00     0.056 A 
HETATM    3  C11 UNL     1      18.722  35.707  17.492  1.00  0.00     0.089 A 
HETATM    4  S1  UNL     1      19.611  37.076  17.963  1.00  0.00    -0.085 SA
HETATM    5  C23 UNL     1      21.127  36.297  18.383  1.00  0.00     0.018 A 
ENDROOT
BRANCH   3   6
HETATM    6  C12 UNL     1      17.311  35.712  16.985  1.00  0.00     0.328 C 
HETATM    7  O3  UNL     1      16.923  36.835  16.501  1.00  0.00    -0.251 OA
HETATM    8  N3  UNL     1      16.529  34.588  17.052  1.00  0.00    -0.406 NA
BRANCH   8   9
HETATM    9  C13 UNL     1      15.731  33.479  17.107  1.00  0.00     0.262 C 
BRANCH   9  10
HETATM   10  C14 UNL     1      16.426  32.300  16.402  1.00  0.00    -0.011 A 
HETATM   11  C15 UNL     1      15.826  31.580  15.417  1.00  0.00     0.098 A 
HETATM   12  N4  UNL     1      16.378  30.538  14.796  1.00  0.00    -0.367 N 
HETATM   13  C16 UNL     1      17.649  30.111  15.132  1.00  0.00     0.042 A 
ATOM     14  H4  UNL     1      15.859  30.051  14.066  1.00  0.00     0.165 HD
HETATM   15  C21 UNL     1      18.281  30.811  16.117  1.00  0.00     0.070 A 
HETATM   16  N6  UNL     1      19.577  30.407  16.527  1.00  0.00    -0.100 NA
HETATM   17  C22 UNL     1      17.685  31.924  16.778  1.00  0.00     0.039 A 
BRANCH  13  18
HETATM   18  C17 UNL     1      18.220  28.938  14.429  1.00  0.00     0.161 C 
BRANCH  18  19
HETATM   19  C18 UNL     1      18.166  29.053  12.937  1.00  0.00     0.224 C 
HETATM   20  O4  UNL     1      18.318  30.142  12.404  1.00  0.00    -0.273 OA
HETATM   21  N5  UNL     1      17.929  27.861  12.227  1.00  0.00    -0.361 N 
HETATM   22  C19 UNL     1      17.763  26.622  12.943  1.00  0.00     0.152 C 
HETATM   23  C20 UNL     1      17.837  27.877  10.791  1.00  0.00     0.152 C 
ENDBRANCH  18  19
ENDBRANCH  13  18
ENDBRANCH   9  10
ENDBRANCH   8   9
ENDBRANCH   3   6
BRANCH   1  24
HETATM   24  N2  UNL     1      21.727  33.908  18.521  1.00  0.00    -0.340 N 
ATOM     25  H2  UNL     1      21.918  33.763  19.512  1.00  0.00     0.167 HD
BRANCH  24  26
HETATM   26  C8  UNL     1      22.325  33.077  17.601  1.00  0.00     0.115 C 
BRANCH  26  27
HETATM   27  C7  UNL     1      23.185  33.406  16.486  1.00  0.00     0.084 C 
BRANCH  27  28
HETATM   28  C6  UNL     1      22.275  33.690  15.229  1.00  0.00     0.008 C 
BRANCH  28  29
HETATM   29  C5  UNL     1      22.595  32.574  14.267  1.00  0.00     0.010 C 
BRANCH  29  30
HETATM   30  C4  UNL     1      21.851  31.322  14.328  1.00  0.00     0.103 C 
BRANCH  30  31
HETATM   31  C3  UNL     1      21.666  30.571  13.048  1.00  0.00     0.218 C 
HETATM   32  N1  UNL     1      21.734  29.142  13.059  1.00  0.00    -0.361 N 
HETATM   33  C1  UNL     1      21.568  28.418  11.836  1.00  0.00     0.152 C 
HETATM   34  C2  UNL     1      21.961  28.389  14.299  1.00  0.00     0.152 C 
HETATM   35  O1  UNL     1      21.456  31.131  11.957  1.00  0.00    -0.273 OA
ENDBRANCH  30  31
ENDBRANCH  29  30
ENDBRANCH  28  29
ENDBRANCH  27  28
ENDBRANCH  26  27
BRANCH  26  36
HETATM   36  O2  UNL     1      22.096  31.781  17.709  1.00  0.00    -0.349 OA
ATOM     37  H2  UNL     1      21.519  31.565  18.433  1.00  0.00     0.219 HD
ENDBRANCH  26  36
ENDBRANCH  24  26
ENDBRANCH   1  24
BRANCH   5  38
HETATM   38  C24 UNL     1      22.386  37.002  18.741  1.00  0.00    -0.015 C 
HETATM   39  C25 UNL     1      23.132  36.661  19.944  1.00  0.00     0.020 C 
HETATM   40  C26 UNL     1      23.278  37.204  17.520  1.00  0.00     0.020 C 
HETATM   41  C27 UNL     1      21.879  38.481  19.002  1.00  0.00     0.020 C 
ENDBRANCH   5  38
TORSDOF 14
ENDMDL
MODEL 2
REMARK VINA RESULT: -8.272620460      2.758      6.687
REMARK  14 active torsions:
REMARK  status: ('A' for Active; 'I' for Inactive)
REMARK       I    between atoms: N1_2  and  C3_4 
REMARK    1  A    between atoms: C3_4  and  C4_6 
REMARK    2  A    between atoms: C4_6  and  C5_7 
REMARK    3  A    between atoms: C5_7  and  C6_8 
REMARK    4  A    between atoms: C6_8  and  C7_9 
REMARK    5  A    between atoms: C7_9  and  C8_10 
REMARK    6  A    between atoms: C8_10  and  O2_11 
REMARK    7  A    between atoms: C8_10  and  N2_13 
REMARK    8  A    between atoms: N2_13  and  C9_15 
REMARK    9  A    between atoms: C11_17  and  C12_18 
REMARK       I    between atoms: C12_18  and  N3_20 
REMARK   10  A    between atoms: N3_20  and  C13_21 
REMARK   11  A    between atoms: C13_21  and  C14_22 
REMARK   12  A    between atoms: C16_26  and  C17_27 
REMARK   13  A    between atoms: C17_27  and  C18_28 
REMARK       I    between atoms: C18_28  and  N5_30 
REMARK   14  A    between atoms: C23_37  and  C24_38 
ROOT
HETATM    1  C9  UNL     1      19.438  30.988  16.452  1.00  0.00     0.049 A 
HETATM    2  C10 UNL     1      18.085  31.024  16.459  1.00  0.00     0.056 A 
HETATM    3  C11 UNL     1      17.479  32.224  16.464  1.00  0.00     0.089 A 
HETATM    4  S1  UNL     1      18.776  33.320  16.460  1.00  0.00    -0.085 SA
HETATM    5  C23 UNL     1      20.110  32.179  16.445  1.00  0.00     0.018 A 
ENDROOT
BRANCH   3   6
HETATM    6  C12 UNL     1      16.025  32.590  16.450  1.00  0.00     0.328 C 
HETATM    7  O3  UNL     1      15.277  31.781  15.794  1.00  0.00    -0.251 OA
HETATM    8  N3  UNL     1      15.569  33.709  17.098  1.00  0.00    -0.406 NA
BRANCH   8   9
HETATM    9  C13 UNL     1      15.091  34.820  17.739  1.00  0.00     0.262 C 
BRANCH   9  10
HETATM   10  C14 UNL     1      16.236  35.823  17.967  1.00  0.00    -0.011 A 
HETATM   11  C15 UNL     1      17.094  35.728  19.019  1.00  0.00     0.098 A 
HETATM   12  N4  UNL     1      18.082  36.586  19.270  1.00  0.00    -0.367 N 
HETATM   13  C16 UNL     1      18.303  37.668  18.441  1.00  0.00     0.042 A 
ATOM     14  H4  UNL     1      18.681  36.442  20.083  1.00  0.00     0.165 HD
HETATM   15  C21 UNL     1      17.462  37.795  17.375  1.00  0.00     0.070 A 
HETATM   16  N6  UNL     1      17.619  38.899  16.500  1.00  0.00    -0.100 NA
HETATM   17  C22 UNL     1      16.406  36.875  17.111  1.00  0.00     0.039 A 
BRANCH  13  18
HETATM   18  C17 UNL     1      19.403  38.607  18.765  1.00  0.00     0.161 C 
BRANCH  18  19
HETATM   19  C18 UNL     1      20.746  37.950  18.835  1.00  0.00     0.224 C 
HETATM   20  O4  UNL     1      21.013  37.206  19.767  1.00  0.00    -0.273 OA
HETATM   21  N5  UNL     1      21.643  38.250  17.792  1.00  0.00    -0.361 N 
HETATM   22  C19 UNL     1      21.239  39.140  16.734  1.00  0.00     0.152 C 
HETATM   23  C20 UNL     1      22.966  37.685  17.787  1.00  0.00     0.152 C 
ENDBRANCH  18  19
ENDBRANCH  13  18
ENDBRANCH   9  10
ENDBRANCH   8   9
ENDBRANCH   3   6
BRANCH   1  24
HETATM   24  N2  UNL     1      20.128  29.720  16.648  1.00  0.00    -0.340 N 
ATOM     25  H2  UNL     1      20.563  29.531  17.552  1.00  0.00     0.167 HD
BRANCH  24  26
HETATM   26  C8  UNL     1      20.213  28.767  15.659  1.00  0.00     0.115 C 
BRANCH  26  27
HETATM   27  C7  UNL     1      21.246  28.561  14.667  1.00  0.00     0.084 C 
BRANCH  27  28
HETATM   28  C6  UNL     1      20.794  29.266  13.331  1.00  0.00     0.008 C 
BRANCH  28  29
HETATM   29  C5  UNL     1      21.907  28.982  12.355  1.00  0.00     0.010 C 
BRANCH  29  30
HETATM   30  C4  UNL     1      22.814  27.864  12.585  1.00  0.00     0.103 C 
BRANCH  30  31
HETATM   31  C3  UNL     1      22.528  26.588  11.860  1.00  0.00     0.218 C 
HETATM   32  N1  UNL     1      23.619  25.805  11.365  1.00  0.00    -0.361 N 
HETATM   33  C1  UNL     1      23.351  24.588  10.662  1.00  0.00     0.152 C 
HETATM   34  C2  UNL     1      25.015  26.211  11.566  1.00  0.00     0.152 C 
HETATM   35  O1  UNL     1      21.375  26.165  11.658  1.00  0.00    -0.273 OA
ENDBRANCH  30  31
ENDBRANCH  29  30
ENDBRANCH  28  29
ENDBRANCH  27  28
ENDBRANCH  26  27
BRANCH  26  36
HETATM   36  O2  UNL     1      19.221  27.902  15.556  1.00  0.00    -0.349 OA
ATOM     37  H2  UNL     1      19.083  27.603  14.664  1.00  0.00     0.219 HD
ENDBRANCH  26  36
ENDBRANCH  24  26
ENDBRANCH   1  24
BRANCH   5  38
HETATM   38  C24 UNL     1      21.544  32.534  16.288  1.00  0.00    -0.015 C 
HETATM   39  C25 UNL     1      22.513  32.268  17.344  1.00  0.00     0.020 C 
HETATM   40  C26 UNL     1      22.060  32.174  14.899  1.00  0.00     0.020 C 
HETATM   41  C27 UNL     1      21.490  34.116  16.198  1.00  0.00     0.020 C 
ENDBRANCH   5  38
TORSDOF 14
ENDMDL
MODEL 3
REMARK VINA RESULT: -8.236658283      1.000      1.169
REMARK  14 active torsions:
REMARK  status: ('A' for Active; 'I' for Inactive)
REMARK       I    between atoms: N1_2  and  C3_4 
REMARK    1  A    between atoms: C3_4  and  C4_6 
REMARK    2  A    between atoms: C4_6  and  C5_7 
REMARK    3  A    between atoms: C5_7  and  C6_8 
REMARK    4  A    between atoms: C6_8  and  C7_9 
REMARK    5  A    between atoms: C7_9  and  C8_10 
REMARK    6  A    between atoms: C8_10  and  O2_11 
REMARK    7  A    between atoms: C8_10  and  N2_13 
REMARK    8  A    between atoms: N2_13  and  C9_15 
REMARK    9  A    between atoms: C11_17  and  C12_18 
REMARK       I    between atoms: C12_18  and  N3_20 
REMARK   10  A    between atoms: N3_20  and  C13_21 
REMARK   11  A    between atoms: C13_21  and  C14_22 
REMARK   12  A    between atoms: C16_26  and  C17_27 
REMARK   13  A    between atoms: C17_27  and  C18_28 
REMARK       I    between atoms: C18_28  and  N5_30 
REMARK   14  A    between atoms: C23_37  and  C24_38 
ROOT
HETATM    1  C9  UNL     1      20.699  35.058  18.381  1.00  0.00     0.049 A 
HETATM    2  C10 UNL     1      19.403  34.771  18.114  1.00  0.00     0.056 A 
HETATM    3  C11 UNL     1      18.527  35.788  18.037  1.00  0.00     0.089 A 
HETATM    4  S1  UNL     1      19.487  37.158  18.332  1.00  0.00    -0.085 SA
HETATM    5  C23 UNL     1      21.041  36.371  18.549  1.00  0.00     0.018 A 
ENDROOT
BRANCH   3   6
HETATM    6  C12 UNL     1      17.057  35.798  17.741  1.00  0.00     0.328 C 
HETATM    7  O3  UNL     1      16.532  36.968  17.683  1.00  0.00    -0.251 OA
HETATM    8  N3  UNL     1      16.362  34.631  17.555  1.00  0.00    -0.406 NA
BRANCH   8   9
HETATM    9  C13 UNL     1      15.649  33.479  17.364  1.00  0.00     0.262 C 
BRANCH   9  10
HETATM   10  C14 UNL     1      16.297  32.644  16.245  1.00  0.00    -0.011 A 
HETATM   11  C15 UNL     1      15.852  31.404  15.906  1.00  0.00     0.098 A 
HETATM   12  N4  UNL     1      16.395  30.636  14.962  1.00  0.00    -0.367 N 
HETATM   13  C16 UNL     1      17.489  31.074  14.242  1.00  0.00     0.042 A 
ATOM     14  H4  UNL     1      15.999  29.716  14.770  1.00  0.00     0.165 HD
HETATM   15  C21 UNL     1      17.963  32.314  14.555  1.00  0.00     0.070 A 
HETATM   16  N6  UNL     1      19.100  32.811  13.870  1.00  0.00    -0.100 NA
HETATM   17  C22 UNL     1      17.378  33.131  15.565  1.00  0.00     0.039 A 
BRANCH  13  18
HETATM   18  C17 UNL     1      18.074  30.182  13.213  1.00  0.00     0.161 C 
BRANCH  18  19
HETATM   19  C18 UNL     1      18.019  28.731  13.581  1.00  0.00     0.224 C 
HETATM   20  O4  UNL     1      18.299  28.381  14.718  1.00  0.00    -0.273 OA
HETATM   21  N5  UNL     1      17.645  27.841  12.558  1.00  0.00    -0.361 N 
HETATM   22  C19 UNL     1      17.332  28.347  11.246  1.00  0.00     0.152 C 
HETATM   23  C20 UNL     1      17.589  26.426  12.811  1.00  0.00     0.152 C 
ENDBRANCH  18  19
ENDBRANCH  13  18
ENDBRANCH   9  10
ENDBRANCH   8   9
ENDBRANCH   3   6
BRANCH   1  24
HETATM   24  N2  UNL     1      21.633  33.978  18.670  1.00  0.00    -0.340 N 
ATOM     25  H2  UNL     1      21.898  33.804  19.639  1.00  0.00     0.167 HD
BRANCH  24  26
HETATM   26  C8  UNL     1      22.169  33.185  17.682  1.00  0.00     0.115 C 
BRANCH  26  27
HETATM   27  C7  UNL     1      23.036  33.546  16.581  1.00  0.00     0.084 C 
BRANCH  27  28
HETATM   28  C6  UNL     1      22.158  33.643  15.274  1.00  0.00     0.008 C 
BRANCH  28  29
HETATM   29  C5  UNL     1      22.731  32.598  14.351  1.00  0.00     0.010 C 
BRANCH  29  30
HETATM   30  C4  UNL     1      22.277  31.216  14.440  1.00  0.00     0.103 C 
BRANCH  30  31
HETATM   31  C3  UNL     1      21.788  30.572  13.182  1.00  0.00     0.218 C 
HETATM   32  N1  UNL     1      21.632  29.150  13.138  1.00  0.00    -0.361 N 
HETATM   33  C1  UNL     1      21.174  28.528  11.934  1.00  0.00     0.152 C 
HETATM   34  C2  UNL     1      21.921  28.306  14.304  1.00  0.00     0.152 C 
HETATM   35  O1  UNL     1      21.509  31.216  12.154  1.00  0.00    -0.273 OA
ENDBRANCH  30  31
ENDBRANCH  29  30
ENDBRANCH  28  29
ENDBRANCH  27  28
ENDBRANCH  26  27
BRANCH  26  36
HETATM   36  O2  UNL     1      21.864  31.900  17.696  1.00  0.00    -0.349 OA
ATOM     37  H2  UNL     1      20.967  31.730  17.433  1.00  0.00     0.219 HD
ENDBRANCH  26  36
ENDBRANCH  24  26
ENDBRANCH   1  24
BRANCH   5  38
HETATM   38  C24 UNL     1      22.345  37.068  18.698  1.00  0.00    -0.015 C 
HETATM   39  C25 UNL     1      23.220  36.809  19.834  1.00  0.00     0.020 C 
HETATM   40  C26 UNL     1      23.094  37.141  17.371  1.00  0.00     0.020 C 
HETATM   41  C27 UNL     1      21.899  38.577  18.885  1.00  0.00     0.020 C 
ENDBRANCH   5  38
TORSDOF 14
ENDMDL
MODEL 4
REMARK VINA RESULT: -8.095125749      2.537      6.808
REMARK  14 active torsions:
REMARK  status: ('A' for Active; 'I' for Inactive)
REMARK       I    between atoms: N1_2  and  C3_4 
REMARK    1  A    between atoms: C3_4  and  C4_6 
REMARK    2  A    between atoms: C4_6  and  C5_7 
REMARK    3  A    between atoms: C5_7  and  C6_8 
REMARK    4  A    between atoms: C6_8  and  C7_9 
REMARK    5  A    between atoms: C7_9  and  C8_10 
REMARK    6  A    between atoms: C8_10  and  O2_11 
REMARK    7  A    between atoms: C8_10  and  N2_13 
REMARK    8  A    between atoms: N2_13  and  C9_15 
REMARK    9  A    between atoms: C11_17  and  C12_18 
REMARK       I    between atoms: C12_18  and  N3_20 
REMARK   10  A    between atoms: N3_20  and  C13_21 
REMARK   11  A    between atoms: C13_21  and  C14_22 
REMARK   12  A    between atoms: C16_26  and  C17_27 
REMARK   13  A    between atoms: C17_27  and  C18_28 
REMARK       I    between atoms: C18_28  and  N5_30 
REMARK   14  A    between atoms: C23_37  and  C24_38 
ROOT
HETATM    1  C9  UNL     1      19.440  30.855  16.386  1.00  0.00     0.049 A 
HETATM    2  C10 UNL     1      18.087  30.891  16.396  1.00  0.00     0.056 A 
HETATM    3  C11 UNL     1      17.480  32.090  16.412  1.00  0.00     0.089 A 
HETATM    4  S1  UNL     1      18.777  33.188  16.413  1.00  0.00    -0.085 SA
HETATM    5  C23 UNL     1      20.111  32.047  16.386  1.00  0.00     0.018 A 
ENDROOT
BRANCH   3   6
HETATM    6  C12 UNL     1      16.026  32.456  16.405  1.00  0.00     0.328 C 
HETATM    7  O3  UNL     1      15.281  31.669  15.718  1.00  0.00    -0.251 OA
HETATM    8  N3  UNL     1      15.566  33.552  17.088  1.00  0.00    -0.406 NA
BRANCH   8   9
HETATM    9  C13 UNL     1      15.085  34.640  17.764  1.00  0.00     0.262 C 
BRANCH   9  10
HETATM   10  C14 UNL     1      16.217  35.660  17.984  1.00  0.00    -0.011 A 
HETATM   11  C15 UNL     1      17.102  35.561  19.012  1.00  0.00     0.098 A 
HETATM   12  N4  UNL     1      18.080  36.432  19.255  1.00  0.00    -0.367 N 
HETATM   13  C16 UNL     1      18.260  37.535  18.442  1.00  0.00     0.042 A 
ATOM     14  H4  UNL     1      18.702  36.285  20.050  1.00  0.00     0.165 HD
HETATM   15  C21 UNL     1      17.390  37.666  17.399  1.00  0.00     0.070 A 
HETATM   16  N6  UNL     1      17.505  38.789  16.543  1.00  0.00    -0.100 NA
HETATM   17  C22 UNL     1      16.345  36.731  17.144  1.00  0.00     0.039 A 
BRANCH  13  18
HETATM   18  C17 UNL     1      19.350  38.488  18.757  1.00  0.00     0.161 C 
BRANCH  18  19
HETATM   19  C18 UNL     1      20.699  37.844  18.845  1.00  0.00     0.224 C 
HETATM   20  O4  UNL     1      20.966  37.119  19.792  1.00  0.00    -0.273 OA
HETATM   21  N5  UNL     1      21.598  38.132  17.802  1.00  0.00    -0.361 N 
HETATM   22  C19 UNL     1      21.193  38.998  16.725  1.00  0.00     0.152 C 
HETATM   23  C20 UNL     1      22.926  37.577  17.814  1.00  0.00     0.152 C 
ENDBRANCH  18  19
ENDBRANCH  13  18
ENDBRANCH   9  10
ENDBRANCH   8   9
ENDBRANCH   3   6
BRANCH   1  24
HETATM   24  N2  UNL     1      20.131  29.587  16.570  1.00  0.00    -0.340 N 
ATOM     25  H2  UNL     1      20.561  29.388  17.473  1.00  0.00     0.167 HD
BRANCH  24  26
HETATM   26  C8  UNL     1      20.224  28.647  15.570  1.00  0.00     0.115 C 
BRANCH  26  27
HETATM   27  C7  UNL     1      21.331  28.350  14.686  1.00  0.00     0.084 C 
BRANCH  27  28
HETATM   28  C6  UNL     1      20.996  28.937  13.262  1.00  0.00     0.008 C 
BRANCH  28  29
HETATM   29  C5  UNL     1      21.191  27.780  12.316  1.00  0.00     0.010 C 
BRANCH  29  30
HETATM   30  C4  UNL     1      20.104  27.362  11.439  1.00  0.00     0.103 C 
BRANCH  30  31
HETATM   31  C3  UNL     1      19.100  26.406  11.998  1.00  0.00     0.218 C 
HETATM   32  N1  UNL     1      19.168  25.024  11.631  1.00  0.00    -0.361 N 
HETATM   33  C1  UNL     1      18.204  24.106  12.154  1.00  0.00     0.152 C 
HETATM   34  C2  UNL     1      20.211  24.516  10.732  1.00  0.00     0.152 C 
HETATM   35  O1  UNL     1      18.192  26.752  12.776  1.00  0.00    -0.273 OA
ENDBRANCH  30  31
ENDBRANCH  29  30
ENDBRANCH  28  29
ENDBRANCH  27  28
ENDBRANCH  26  27
BRANCH  26  36
HETATM   36  O2  UNL     1      19.165  27.892  15.339  1.00  0.00    -0.349 OA
ATOM     37  H2  UNL     1      18.648  27.731  16.121  1.00  0.00     0.219 HD
ENDBRANCH  26  36
ENDBRANCH  24  26
ENDBRANCH   1  24
BRANCH   5  38
HETATM   38  C24 UNL     1      21.545  32.405  16.229  1.00  0.00    -0.015 C 
HETATM   39  C25 UNL     1      22.504  32.191  17.304  1.00  0.00     0.020 C 
HETATM   40  C26 UNL     1      22.077  31.988  14.861  1.00  0.00     0.020 C 
HETATM   41  C27 UNL     1      21.482  33.980  16.069  1.00  0.00     0.020 C 
ENDBRANCH   5  38
TORSDOF 14
ENDMDL
MODEL 5
REMARK VINA RESULT: -8.045795400      2.375      6.707
REMARK  14 active torsions:
REMARK  status: ('A' for Active; 'I' for Inactive)
REMARK       I    between atoms: N1_2  and  C3_4 
REMARK    1  A    between atoms: C3_4  and  C4_6 
REMARK    2  A    between atoms: C4_6  and  C5_7 
REMARK    3  A    between atoms: C5_7  and  C6_8 
REMARK    4  A    between atoms: C6_8  and  C7_9 
REMARK    5  A    between atoms: C7_9  and  C8_10 
REMARK    6  A    between atoms: C8_10  and  O2_11 
REMARK    7  A    between atoms: C8_10  and  N2_13 
REMARK    8  A    between atoms: N2_13  and  C9_15 
REMARK    9  A    between atoms: C11_17  and  C12_18 
REMARK       I    between atoms: C12_18  and  N3_20 
REMARK   10  A    between atoms: N3_20  and  C13_21 
REMARK   11  A    between atoms: C13_21  and  C14_22 
REMARK   12  A    between atoms: C16_26  and  C17_27 
REMARK   13  A    between atoms: C17_27  and  C18_28 
REMARK       I    between atoms: C18_28  and  N5_30 
REMARK   14  A    between atoms: C23_37  and  C24_38 
ROOT
HETATM    1  C9  UNL     1      19.789  31.361  16.332  1.00  0.00     0.049 A 
HETATM    2  C10 UNL     1      18.439  31.256  16.330  1.00  0.00     0.056 A 
HETATM    3  C11 UNL     1      17.711  32.379  16.450  1.00  0.00     0.089 A 
HETATM    4  S1  UNL     1      18.886  33.599  16.568  1.00  0.00    -0.085 SA
HETATM    5  C23 UNL     1      20.332  32.611  16.450  1.00  0.00     0.018 A 
ENDROOT
BRANCH   3   6
HETATM    6  C12 UNL     1      16.227  32.591  16.460  1.00  0.00     0.328 C 
HETATM    7  O3  UNL     1      15.549  31.648  15.915  1.00  0.00    -0.251 OA
HETATM    8  N3  UNL     1      15.674  33.716  17.016  1.00  0.00    -0.406 NA
BRANCH   8   9
HETATM    9  C13 UNL     1      15.102  34.830  17.566  1.00  0.00     0.262 C 
BRANCH   9  10
HETATM   10  C14 UNL     1      16.187  35.879  17.872  1.00  0.00    -0.011 A 
HETATM   11  C15 UNL     1      16.918  35.862  19.019  1.00  0.00     0.098 A 
HETATM   12  N4  UNL     1      17.849  36.761  19.336  1.00  0.00    -0.367 N 
HETATM   13  C16 UNL     1      18.138  37.808  18.481  1.00  0.00     0.042 A 
ATOM     14  H4  UNL     1      18.353  36.676  20.219  1.00  0.00     0.165 HD
HETATM   15  C21 UNL     1      17.424  37.856  17.321  1.00  0.00     0.070 A 
HETATM   16  N6  UNL     1      17.654  38.920  16.413  1.00  0.00    -0.100 NA
HETATM   17  C22 UNL     1      16.429  36.892  16.986  1.00  0.00     0.039 A 
BRANCH  13  18
HETATM   18  C17 UNL     1      19.169  38.795  18.880  1.00  0.00     0.161 C 
BRANCH  18  19
HETATM   19  C18 UNL     1      20.555  38.231  18.907  1.00  0.00     0.224 C 
HETATM   20  O4  UNL     1      20.833  37.335  19.689  1.00  0.00    -0.273 OA
HETATM   21  N5  UNL     1      21.477  38.796  18.005  1.00  0.00    -0.361 N 
HETATM   22  C19 UNL     1      21.057  39.850  17.118  1.00  0.00     0.152 C 
HETATM   23  C20 UNL     1      22.839  38.334  17.975  1.00  0.00     0.152 C 
ENDBRANCH  18  19
ENDBRANCH  13  18
ENDBRANCH   9  10
ENDBRANCH   8   9
ENDBRANCH   3   6
BRANCH   1  24
HETATM   24  N2  UNL     1      20.608  30.159  16.406  1.00  0.00    -0.340 N 
ATOM     25  H2  UNL     1      20.867  29.796  17.323  1.00  0.00     0.167 HD
BRANCH  24  26
HETATM   26  C8  UNL     1      21.044  29.495  15.282  1.00  0.00     0.115 C 
BRANCH  26  27
HETATM   27  C7  UNL     1      21.585  30.027  14.051  1.00  0.00     0.084 C 
BRANCH  27  28
HETATM   28  C6  UNL     1      20.682  29.530  12.858  1.00  0.00     0.008 C 
BRANCH  28  29
HETATM   29  C5  UNL     1      19.472  30.429  12.895  1.00  0.00     0.010 C 
BRANCH  29  30
HETATM   30  C4  UNL     1      18.136  29.852  12.971  1.00  0.00     0.103 C 
BRANCH  30  31
HETATM   31  C3  UNL     1      18.035  28.389  13.259  1.00  0.00     0.218 C 
HETATM   32  N1  UNL     1      17.807  27.476  12.180  1.00  0.00    -0.361 N 
HETATM   33  C1  UNL     1      17.699  26.076  12.450  1.00  0.00     0.152 C 
HETATM   34  C2  UNL     1      17.688  27.939  10.792  1.00  0.00     0.152 C 
HETATM   35  O1  UNL     1      18.138  27.913  14.405  1.00  0.00    -0.273 OA
ENDBRANCH  30  31
ENDBRANCH  29  30
ENDBRANCH  28  29
ENDBRANCH  27  28
ENDBRANCH  26  27
BRANCH  26  36
HETATM   36  O2  UNL     1      20.961  28.177  15.280  1.00  0.00    -0.349 OA
ATOM     37  H2  UNL     1      21.021  27.801  16.151  1.00  0.00     0.219 HD
ENDBRANCH  26  36
ENDBRANCH  24  26
ENDBRANCH   1  24
BRANCH   5  38
HETATM   38  C24 UNL     1      21.721  33.128  16.343  1.00  0.00    -0.015 C 
HETATM   39  C25 UNL     1      22.766  32.697  17.263  1.00  0.00     0.020 C 
HETATM   40  C26 UNL     1      22.187  33.179  14.891  1.00  0.00     0.020 C 
HETATM   41  C27 UNL     1      21.531  34.668  16.662  1.00  0.00     0.020 C 
ENDBRANCH   5  38
TORSDOF 14
ENDMDL
