MODEL 1
REMARK VINA RESULT: -8.754965772      0.000      0.000
REMARK  12 active torsions:
REMARK  status: ('A' for Active; 'I' for Inactive)
REMARK    1  A    between atoms: C3_4  and  C4_5 
REMARK    2  A    between atoms: C4_5  and  C5_6 
REMARK    3  A    between atoms: C5_6  and  C6_7 
REMARK    4  A    between atoms: C6_7  and  C7_8 
REMARK    5  A    between atoms: C7_8  and  C8_9 
REMARK       I    between atoms: N4_15  and  C10_17 
REMARK    6  A    between atoms: C10_17  and  C11_19 
REMARK    7  A    between atoms: C11_19  and  N5_20 
REMARK    8  A    between atoms: N5_20  and  C13_22 
REMARK    9  A    between atoms: C15_29  and  N8_30 
REMARK   10  A    between atoms: N8_30  and  C16_31 
REMARK   11  A    between atoms: C19_34  and  C20_35 
REMARK   12  A    between atoms: C20_35  and  C21_36 
ROOT
HETATM    1  C1  UNL     1      17.125  23.988  11.281  1.00  0.00     0.037 C 
HETATM    2  C2  UNL     1      17.526  24.748  10.417  1.00  0.00     0.011 C 
HETATM    3  N1  UNL     1      17.990  25.614   9.430  1.00  0.00    -0.216 N 
HETATM    4  C3  UNL     1      18.344  25.256   8.189  1.00  0.00     0.114 A 
HETATM    5  N6  UNL     1      18.726  26.367   7.584  1.00  0.00    -0.284 N 
ATOM      6  H6  UNL     1      19.056  26.420   6.621  1.00  0.00     0.188 HD
HETATM    7  N7  UNL     1      18.620  27.407   8.405  1.00  0.00    -0.257 N 
ATOM      8  H7  UNL     1      18.851  28.372   8.171  1.00  0.00     0.191 HD
HETATM    9  C15 UNL     1      18.151  26.974   9.617  1.00  0.00     0.290 A 
ENDROOT
BRANCH   4  10
HETATM   10  C4  UNL     1      18.245  23.833   7.693  1.00  0.00     0.079 C 
BRANCH  10  11
HETATM   11  C5  UNL     1      19.569  23.341   7.142  1.00  0.00     0.008 C 
BRANCH  11  12
HETATM   12  C6  UNL     1      20.404  22.944   8.316  1.00  0.00     0.007 C 
BRANCH  12  13
HETATM   13  C7  UNL     1      21.540  23.735   8.726  1.00  0.00     0.066 C 
BRANCH  13  14
HETATM   14  C8  UNL     1      21.428  24.391  10.047  1.00  0.00     0.069 A 
HETATM   15  N2  UNL     1      20.802  24.090  11.160  1.00  0.00    -0.296 N 
HETATM   16  N3  UNL     1      20.816  24.877  12.165  1.00  0.00    -0.279 N 
ATOM     17  H2  UNL     1      20.294  23.207  11.223  1.00  0.00     0.187 HD
HETATM   18  C9  UNL     1      21.485  26.022  12.065  1.00  0.00     0.168 A 
ATOM     19  H3  UNL     1      20.326  24.633  13.026  1.00  0.00     0.189 HD
HETATM   20  N4  UNL     1      21.617  27.010  12.948  1.00  0.00    -0.301 N 
HETATM   21  S1  UNL     1      22.105  25.947  10.484  1.00  0.00    -0.038 SA
HETATM   22  C10 UNL     1      22.399  28.131  12.581  1.00  0.00     0.262 C 
ATOM     23  H4  UNL     1      21.169  26.960  13.862  1.00  0.00     0.171 HD
HETATM   24  O1  UNL     1      23.668  27.919  12.614  1.00  0.00    -0.267 OA
BRANCH  22  25
HETATM   25  C11 UNL     1      21.988  29.460  12.179  1.00  0.00     0.160 C 
BRANCH  25  26
HETATM   26  N5  UNL     1      21.487  30.385  13.110  1.00  0.00    -0.390 N 
HETATM   27  C12 UNL     1      20.565  31.346  12.599  1.00  0.00     0.149 C 
BRANCH  26  28
HETATM   28  C13 UNL     1      22.360  30.841  14.129  1.00  0.00     0.117 C 
HETATM   29  C14 UNL     1      22.495  32.356  14.229  1.00  0.00     0.026 C 
ENDBRANCH  26  28
ENDBRANCH  25  26
ENDBRANCH  22  25
ENDBRANCH  13  14
ENDBRANCH  12  13
ENDBRANCH  11  12
ENDBRANCH  10  11
ENDBRANCH   4  10
BRANCH   9  30
HETATM   30  N8  UNL     1      17.966  27.567  10.611  1.00  0.00    -0.369 NA
BRANCH  30  31
HETATM   31  C16 UNL     1      17.741  28.248  11.730  1.00  0.00     0.111 A 
HETATM   32  C17 UNL     1      16.602  29.077  11.876  1.00  0.00     0.045 A 
HETATM   33  C18 UNL     1      16.351  29.756  13.023  1.00  0.00     0.011 A 
HETATM   34  C19 UNL     1      17.218  29.669  14.124  1.00  0.00    -0.052 A 
HETATM   35  C26 UNL     1      18.330  28.880  14.027  1.00  0.00    -0.052 A 
HETATM   36  C27 UNL     1      19.278  28.672  15.144  1.00  0.00     0.049 C 
HETATM   37  C28 UNL     1      18.562  28.205  12.864  1.00  0.00     0.052 A 
BRANCH  34  38
HETATM   38  C20 UNL     1      16.886  30.466  15.291  1.00  0.00     0.043 C 
BRANCH  38  39
HETATM   39  C21 UNL     1      17.143  31.922  15.276  1.00  0.00    -0.007 C 
HETATM   40  C22 UNL     1      16.248  32.824  16.030  1.00  0.00     0.032 C 
HETATM   41  C23 UNL     1      16.657  34.271  15.783  1.00  0.00     0.232 C 
HETATM   42  N9  UNL     1      17.718  34.366  14.836  1.00  0.00    -0.075 N 
HETATM   43  C24 UNL     1      18.902  33.631  15.247  1.00  0.00     0.232 C 
ATOM     44  H92 UNL     1      17.409  34.073  13.909  1.00  0.00     0.277 HD
ATOM     45  H91 UNL     1      17.944  35.340  14.634  1.00  0.00     0.277 HD
HETATM   46  C25 UNL     1      18.583  32.239  15.697  1.00  0.00     0.032 C 
ENDBRANCH  38  39
ENDBRANCH  34  38
ENDBRANCH  30  31
ENDBRANCH   9  30
TORSDOF 12
ENDMDL
MODEL 2
REMARK VINA RESULT: -8.715123800      2.264      5.434
REMARK  12 active torsions:
REMARK  status: ('A' for Active; 'I' for Inactive)
REMARK    1  A    between atoms: C3_4  and  C4_5 
REMARK    2  A    between atoms: C4_5  and  C5_6 
REMARK    3  A    between atoms: C5_6  and  C6_7 
REMARK    4  A    between atoms: C6_7  and  C7_8 
REMARK    5  A    between atoms: C7_8  and  C8_9 
REMARK       I    between atoms: N4_15  and  C10_17 
REMARK    6  A    between atoms: C10_17  and  C11_19 
REMARK    7  A    between atoms: C11_19  and  N5_20 
REMARK    8  A    between atoms: N5_20  and  C13_22 
REMARK    9  A    between atoms: C15_29  and  N8_30 
REMARK   10  A    between atoms: N8_30  and  C16_31 
REMARK   11  A    between atoms: C19_34  and  C20_35 
REMARK   12  A    between atoms: C20_35  and  C21_36 
ROOT
HETATM    1  C1  UNL     1      22.699  31.372  14.167  1.00  0.00     0.037 C 
HETATM    2  C2  UNL     1      22.119  30.313  13.995  1.00  0.00     0.011 C 
HETATM    3  N1  UNL     1      21.457  29.106  13.792  1.00  0.00    -0.216 N 
HETATM    4  C3  UNL     1      21.977  28.030  13.186  1.00  0.00     0.114 A 
HETATM    5  N6  UNL     1      21.026  27.112  13.197  1.00  0.00    -0.284 N 
ATOM      6  H6  UNL     1      21.119  26.175  12.804  1.00  0.00     0.188 HD
HETATM    7  N7  UNL     1      19.932  27.577  13.792  1.00  0.00    -0.257 N 
ATOM      8  H7  UNL     1      19.065  27.057  13.927  1.00  0.00     0.191 HD
HETATM    9  C15 UNL     1      20.156  28.867  14.193  1.00  0.00     0.290 A 
ENDROOT
BRANCH   4  10
HETATM   10  C4  UNL     1      23.394  27.992  12.667  1.00  0.00     0.079 C 
BRANCH  10  11
HETATM   11  C5  UNL     1      23.462  27.414  11.268  1.00  0.00     0.008 C 
BRANCH  11  12
HETATM   12  C6  UNL     1      24.249  26.147  11.362  1.00  0.00     0.007 C 
BRANCH  12  13
HETATM   13  C7  UNL     1      23.622  24.862  11.167  1.00  0.00     0.066 C 
BRANCH  13  14
HETATM   14  C8  UNL     1      22.518  24.823  10.182  1.00  0.00     0.069 A 
HETATM   15  N2  UNL     1      22.471  24.842   8.871  1.00  0.00    -0.296 N 
HETATM   16  N3  UNL     1      21.357  24.862   8.246  1.00  0.00    -0.279 N 
ATOM     17  H2  UNL     1      23.342  24.841   8.340  1.00  0.00     0.187 HD
HETATM   18  C9  UNL     1      20.232  24.862   8.955  1.00  0.00     0.168 A 
ATOM     19  H3  UNL     1      21.332  24.877   7.226  1.00  0.00     0.189 HD
HETATM   20  N4  UNL     1      18.967  24.914   8.542  1.00  0.00    -0.301 N 
HETATM   21  S1  UNL     1      20.806  24.828  10.555  1.00  0.00    -0.038 SA
HETATM   22  C10 UNL     1      17.946  24.896   9.521  1.00  0.00     0.262 C 
ATOM     23  H4  UNL     1      18.741  24.965   7.549  1.00  0.00     0.171 HD
HETATM   24  O1  UNL     1      17.738  23.738  10.041  1.00  0.00    -0.267 OA
BRANCH  22  25
HETATM   25  C11 UNL     1      17.114  25.973  10.018  1.00  0.00     0.160 C 
BRANCH  25  26
HETATM   26  N5  UNL     1      17.538  26.798  11.073  1.00  0.00    -0.390 N 
HETATM   27  C12 UNL     1      17.223  26.342  12.387  1.00  0.00     0.149 C 
BRANCH  26  28
HETATM   28  C13 UNL     1      17.498  28.201  10.876  1.00  0.00     0.117 C 
HETATM   29  C14 UNL     1      16.611  28.963  11.853  1.00  0.00     0.026 C 
ENDBRANCH  26  28
ENDBRANCH  25  26
ENDBRANCH  22  25
ENDBRANCH  13  14
ENDBRANCH  12  13
ENDBRANCH  11  12
ENDBRANCH  10  11
ENDBRANCH   4  10
BRANCH   9  30
HETATM   30  N8  UNL     1      19.435  29.635  14.708  1.00  0.00    -0.369 NA
BRANCH  30  31
HETATM   31  C16 UNL     1      18.602  30.499  15.279  1.00  0.00     0.111 A 
HETATM   32  C17 UNL     1      19.072  31.526  16.133  1.00  0.00     0.045 A 
HETATM   33  C18 UNL     1      18.232  32.427  16.701  1.00  0.00     0.011 A 
HETATM   34  C19 UNL     1      16.849  32.380  16.467  1.00  0.00    -0.052 A 
HETATM   35  C26 UNL     1      16.352  31.404  15.649  1.00  0.00    -0.052 A 
HETATM   36  C27 UNL     1      14.920  31.297  15.290  1.00  0.00     0.049 C 
HETATM   37  C28 UNL     1      17.215  30.509  15.088  1.00  0.00     0.052 A 
BRANCH  34  38
HETATM   38  C20 UNL     1      16.029  33.362  17.154  1.00  0.00     0.043 C 
BRANCH  38  39
HETATM   39  C21 UNL     1      16.557  34.726  17.374  1.00  0.00    -0.007 C 
HETATM   40  C22 UNL     1      16.423  35.736  16.304  1.00  0.00     0.032 C 
HETATM   41  C23 UNL     1      17.124  37.022  16.728  1.00  0.00     0.232 C 
HETATM   42  N9  UNL     1      17.785  36.875  17.982  1.00  0.00    -0.075 N 
HETATM   43  C24 UNL     1      16.878  36.487  19.049  1.00  0.00     0.232 C 
ATOM     44  H92 UNL     1      18.566  36.223  17.910  1.00  0.00     0.277 HD
ATOM     45  H91 UNL     1      18.298  37.722  18.227  1.00  0.00     0.277 HD
HETATM   46  C25 UNL     1      15.999  35.339  18.664  1.00  0.00     0.032 C 
ENDBRANCH  38  39
ENDBRANCH  34  38
ENDBRANCH  30  31
ENDBRANCH   9  30
TORSDOF 12
ENDMDL
MODEL 3
REMARK VINA RESULT: -8.544091662      2.231      5.888
REMARK  12 active torsions:
REMARK  status: ('A' for Active; 'I' for Inactive)
REMARK    1  A    between atoms: C3_4  and  C4_5 
REMARK    2  A    between atoms: C4_5  and  C5_6 
REMARK    3  A    between atoms: C5_6  and  C6_7 
REMARK    4  A    between atoms: C6_7  and  C7_8 
REMARK    5  A    between atoms: C7_8  and  C8_9 
REMARK       I    between atoms: N4_15  and  C10_17 
REMARK    6  A    between atoms: C10_17  and  C11_19 
REMARK    7  A    between atoms: C11_19  and  N5_20 
REMARK    8  A    between atoms: N5_20  and  C13_22 
REMARK    9  A    between atoms: C15_29  and  N8_30 
REMARK   10  A    between atoms: N8_30  and  C16_31 
REMARK   11  A    between atoms: C19_34  and  C20_35 
REMARK   12  A    between atoms: C20_35  and  C21_36 
ROOT
HETATM    1  C1  UNL     1      22.715  31.597  14.093  1.00  0.00     0.037 C 
HETATM    2  C2  UNL     1      22.033  30.591  13.996  1.00  0.00     0.011 C 
HETATM    3  N1  UNL     1      21.256  29.443  13.880  1.00  0.00    -0.216 N 
HETATM    4  C3  UNL     1      21.702  28.242  13.488  1.00  0.00     0.114 A 
HETATM    5  N6  UNL     1      20.651  27.439  13.510  1.00  0.00    -0.284 N 
ATOM      6  H6  UNL     1      20.671  26.451  13.259  1.00  0.00     0.188 HD
HETATM    7  N7  UNL     1      19.567  28.098  13.904  1.00  0.00    -0.257 N 
ATOM      8  H7  UNL     1      18.634  27.696  14.004  1.00  0.00     0.191 HD
HETATM    9  C15 UNL     1      19.901  29.402  14.153  1.00  0.00     0.290 A 
ENDROOT
BRANCH   4  10
HETATM   10  C4  UNL     1      23.150  27.981  13.150  1.00  0.00     0.079 C 
BRANCH  10  11
HETATM   11  C5  UNL     1      23.310  27.479  11.729  1.00  0.00     0.008 C 
BRANCH  11  12
HETATM   12  C6  UNL     1      23.697  26.038  11.822  1.00  0.00     0.007 C 
BRANCH  12  13
HETATM   13  C7  UNL     1      23.005  25.029  11.056  1.00  0.00     0.066 C 
BRANCH  13  14
HETATM   14  C8  UNL     1      21.571  24.847  11.371  1.00  0.00     0.069 A 
HETATM   15  N2  UNL     1      20.918  24.100  12.228  1.00  0.00    -0.296 N 
HETATM   16  N3  UNL     1      19.641  24.083  12.259  1.00  0.00    -0.279 N 
ATOM     17  H2  UNL     1      21.441  23.521  12.885  1.00  0.00     0.187 HD
HETATM   18  C9  UNL     1      18.976  24.846  11.396  1.00  0.00     0.168 A 
ATOM     19  H3  UNL     1      19.143  23.497  12.930  1.00  0.00     0.189 HD
HETATM   20  N4  UNL     1      17.664  24.973  11.209  1.00  0.00    -0.301 N 
HETATM   21  S1  UNL     1      20.230  25.601  10.532  1.00  0.00    -0.038 SA
HETATM   22  C10 UNL     1      17.217  25.870  10.211  1.00  0.00     0.262 C 
ATOM     23  H4  UNL     1      17.000  24.439  11.770  1.00  0.00     0.171 HD
HETATM   24  O1  UNL     1      17.299  27.110  10.545  1.00  0.00    -0.267 OA
BRANCH  22  25
HETATM   25  C11 UNL     1      16.691  25.603   8.888  1.00  0.00     0.160 C 
BRANCH  25  26
HETATM   26  N5  UNL     1      17.523  25.602   7.756  1.00  0.00    -0.390 N 
HETATM   27  C12 UNL     1      18.208  24.381   7.486  1.00  0.00     0.149 C 
BRANCH  26  28
HETATM   28  C13 UNL     1      18.229  26.792   7.450  1.00  0.00     0.117 C 
HETATM   29  C14 UNL     1      18.292  27.140   5.967  1.00  0.00     0.026 C 
ENDBRANCH  26  28
ENDBRANCH  25  26
ENDBRANCH  22  25
ENDBRANCH  13  14
ENDBRANCH  12  13
ENDBRANCH  11  12
ENDBRANCH  10  11
ENDBRANCH   4  10
BRANCH   9  30
HETATM   30  N8  UNL     1      19.228  30.307  14.471  1.00  0.00    -0.369 NA
BRANCH  30  31
HETATM   31  C16 UNL     1      18.461  31.337  14.813  1.00  0.00     0.111 A 
HETATM   32  C17 UNL     1      18.800  32.665  14.454  1.00  0.00     0.045 A 
HETATM   33  C18 UNL     1      18.010  33.719  14.778  1.00  0.00     0.011 A 
HETATM   34  C19 UNL     1      16.813  33.540  15.490  1.00  0.00    -0.052 A 
HETATM   35  C26 UNL     1      16.447  32.275  15.856  1.00  0.00    -0.052 A 
HETATM   36  C27 UNL     1      15.181  31.968  16.558  1.00  0.00     0.049 C 
HETATM   37  C28 UNL     1      17.257  31.229  15.520  1.00  0.00     0.052 A 
BRANCH  34  38
HETATM   38  C20 UNL     1      16.059  34.735  15.824  1.00  0.00     0.043 C 
BRANCH  38  39
HETATM   39  C21 UNL     1      16.435  35.524  17.017  1.00  0.00    -0.007 C 
HETATM   40  C22 UNL     1      17.421  34.973  17.969  1.00  0.00     0.032 C 
HETATM   41  C23 UNL     1      17.568  35.919  19.155  1.00  0.00     0.232 C 
HETATM   42  N9  UNL     1      16.663  37.017  19.070  1.00  0.00    -0.075 N 
HETATM   43  C24 UNL     1      16.839  37.793  17.854  1.00  0.00     0.232 C 
ATOM     44  H92 UNL     1      15.697  36.704  19.168  1.00  0.00     0.277 HD
ATOM     45  H91 UNL     1      16.730  37.612  19.896  1.00  0.00     0.277 HD
HETATM   46  C25 UNL     1      16.901  36.933  16.630  1.00  0.00     0.032 C 
ENDBRANCH  38  39
ENDBRANCH  34  38
ENDBRANCH  30  31
ENDBRANCH   9  30
TORSDOF 12
ENDMDL
MODEL 4
REMARK VINA RESULT: -8.527459316      2.583      8.168
REMARK  12 active torsions:
REMARK  status: ('A' for Active; 'I' for Inactive)
REMARK    1  A    between atoms: C3_4  and  C4_5 
REMARK    2  A    between atoms: C4_5  and  C5_6 
REMARK    3  A    between atoms: C5_6  and  C6_7 
REMARK    4  A    between atoms: C6_7  and  C7_8 
REMARK    5  A    between atoms: C7_8  and  C8_9 
REMARK       I    between atoms: N4_15  and  C10_17 
REMARK    6  A    between atoms: C10_17  and  C11_19 
REMARK    7  A    between atoms: C11_19  and  N5_20 
REMARK    8  A    between atoms: N5_20  and  C13_22 
REMARK    9  A    between atoms: C15_29  and  N8_30 
REMARK   10  A    between atoms: N8_30  and  C16_31 
REMARK   11  A    between atoms: C19_34  and  C20_35 
REMARK   12  A    between atoms: C20_35  and  C21_36 
ROOT
HETATM    1  C1  UNL     1      20.120  31.823  12.464  1.00  0.00     0.037 C 
HETATM    2  C2  UNL     1      19.208  31.655  13.256  1.00  0.00     0.011 C 
HETATM    3  N1  UNL     1      18.172  31.462  14.164  1.00  0.00    -0.216 N 
HETATM    4  C3  UNL     1      17.796  32.335  15.109  1.00  0.00     0.114 A 
HETATM    5  N6  UNL     1      16.790  31.767  15.750  1.00  0.00    -0.284 N 
ATOM      6  H6  UNL     1      16.288  32.188  16.531  1.00  0.00     0.188 HD
HETATM    7  N7  UNL     1      16.523  30.570  15.236  1.00  0.00    -0.257 N 
ATOM      8  H7  UNL     1      15.789  29.939  15.557  1.00  0.00     0.191 HD
HETATM    9  C15 UNL     1      17.392  30.321  14.208  1.00  0.00     0.290 A 
ENDROOT
BRANCH   4  10
HETATM   10  C4  UNL     1      18.454  33.684  15.278  1.00  0.00     0.079 C 
BRANCH  10  11
HETATM   11  C5  UNL     1      19.243  33.761  16.570  1.00  0.00     0.008 C 
BRANCH  11  12
HETATM   12  C6  UNL     1      20.592  33.184  16.288  1.00  0.00     0.007 C 
BRANCH  12  13
HETATM   13  C7  UNL     1      21.084  32.041  17.020  1.00  0.00     0.066 C 
BRANCH  13  14
HETATM   14  C8  UNL     1      20.842  30.721  16.398  1.00  0.00     0.069 A 
HETATM   15  N2  UNL     1      20.168  29.656  16.763  1.00  0.00    -0.296 N 
HETATM   16  N3  UNL     1      20.168  28.594  16.054  1.00  0.00    -0.279 N 
ATOM     17  H2  UNL     1      19.633  29.677  17.631  1.00  0.00     0.187 HD
HETATM   18  C9  UNL     1      20.870  28.585  14.925  1.00  0.00     0.168 A 
ATOM     19  H3  UNL     1      19.641  27.771  16.347  1.00  0.00     0.189 HD
HETATM   20  N4  UNL     1      21.054  27.603  14.045  1.00  0.00    -0.301 N 
HETATM   21  S1  UNL     1      21.536  30.149  14.895  1.00  0.00    -0.038 SA
HETATM   22  C10 UNL     1      21.857  27.866  12.910  1.00  0.00     0.262 C 
ATOM     23  H4  UNL     1      20.627  26.687  14.184  1.00  0.00     0.171 HD
HETATM   24  O1  UNL     1      21.275  28.577  12.009  1.00  0.00    -0.267 OA
BRANCH  22  25
HETATM   25  C11 UNL     1      23.216  27.461  12.619  1.00  0.00     0.160 C 
BRANCH  25  26
HETATM   26  N5  UNL     1      23.505  26.194  12.085  1.00  0.00    -0.390 N 
HETATM   27  C12 UNL     1      24.801  26.040  11.510  1.00  0.00     0.149 C 
BRANCH  26  28
HETATM   28  C13 UNL     1      22.455  25.486  11.450  1.00  0.00     0.117 C 
HETATM   29  C14 UNL     1      22.901  24.503  10.373  1.00  0.00     0.026 C 
ENDBRANCH  26  28
ENDBRANCH  25  26
ENDBRANCH  22  25
ENDBRANCH  13  14
ENDBRANCH  12  13
ENDBRANCH  11  12
ENDBRANCH  10  11
ENDBRANCH   4  10
BRANCH   9  30
HETATM   30  N8  UNL     1      17.515  29.368  13.536  1.00  0.00    -0.369 NA
BRANCH  30  31
HETATM   31  C16 UNL     1      17.656  28.278  12.790  1.00  0.00     0.111 A 
HETATM   32  C17 UNL     1      17.582  26.980  13.354  1.00  0.00     0.045 A 
HETATM   33  C18 UNL     1      17.701  25.861  12.597  1.00  0.00     0.011 A 
HETATM   34  C19 UNL     1      17.906  25.940  11.210  1.00  0.00    -0.052 A 
HETATM   35  C26 UNL     1      17.983  27.172  10.624  1.00  0.00    -0.052 A 
HETATM   36  C27 UNL     1      18.140  27.369   9.166  1.00  0.00     0.049 C 
HETATM   37  C28 UNL     1      17.860  28.285  11.405  1.00  0.00     0.052 A 
BRANCH  34  38
HETATM   38  C20 UNL     1      18.062  24.687  10.494  1.00  0.00     0.043 C 
BRANCH  38  39
HETATM   39  C21 UNL     1      16.868  24.008   9.943  1.00  0.00    -0.007 C 
HETATM   40  C22 UNL     1      16.871  23.568   8.534  1.00  0.00     0.032 C 
HETATM   41  C23 UNL     1      15.507  22.988   8.178  1.00  0.00     0.232 C 
HETATM   42  N9  UNL     1      14.584  23.110   9.258  1.00  0.00    -0.075 N 
HETATM   43  C24 UNL     1      15.048  22.451  10.467  1.00  0.00     0.232 C 
ATOM     44  H92 UNL     1      14.357  24.088   9.438  1.00  0.00     0.277 HD
ATOM     45  H91 UNL     1      13.659  22.773   8.989  1.00  0.00     0.277 HD
HETATM   46  C25 UNL     1      16.462  22.806  10.805  1.00  0.00     0.032 C 
ENDBRANCH  38  39
ENDBRANCH  34  38
ENDBRANCH  30  31
ENDBRANCH   9  30
TORSDOF 12
ENDMDL
MODEL 5
REMARK VINA RESULT: -8.516103691      2.304      8.025
REMARK  12 active torsions:
REMARK  status: ('A' for Active; 'I' for Inactive)
REMARK    1  A    between atoms: C3_4  and  C4_5 
REMARK    2  A    between atoms: C4_5  and  C5_6 
REMARK    3  A    between atoms: C5_6  and  C6_7 
REMARK    4  A    between atoms: C6_7  and  C7_8 
REMARK    5  A    between atoms: C7_8  and  C8_9 
REMARK       I    between atoms: N4_15  and  C10_17 
REMARK    6  A    between atoms: C10_17  and  C11_19 
REMARK    7  A    between atoms: C11_19  and  N5_20 
REMARK    8  A    between atoms: N5_20  and  C13_22 
REMARK    9  A    between atoms: C15_29  and  N8_30 
REMARK   10  A    between atoms: N8_30  and  C16_31 
REMARK   11  A    between atoms: C19_34  and  C20_35 
REMARK   12  A    between atoms: C20_35  and  C21_36 
ROOT
HETATM    1  C1  UNL     1      20.052  31.927  12.623  1.00  0.00     0.037 C 
HETATM    2  C2  UNL     1      19.146  31.645  13.389  1.00  0.00     0.011 C 
HETATM    3  N1  UNL     1      18.117  31.322  14.267  1.00  0.00    -0.216 N 
HETATM    4  C3  UNL     1      17.732  32.063  15.316  1.00  0.00     0.114 A 
HETATM    5  N6  UNL     1      16.736  31.402  15.882  1.00  0.00    -0.284 N 
ATOM      6  H6  UNL     1      16.231  31.713  16.711  1.00  0.00     0.188 HD
HETATM    7  N7  UNL     1      16.486  30.276  15.221  1.00  0.00    -0.257 N 
ATOM      8  H7  UNL     1      15.764  29.597  15.461  1.00  0.00     0.191 HD
HETATM    9  C15 UNL     1      17.355  30.173  14.168  1.00  0.00     0.290 A 
ENDROOT
BRANCH   4  10
HETATM   10  C4  UNL     1      18.369  33.389  15.654  1.00  0.00     0.079 C 
BRANCH  10  11
HETATM   11  C5  UNL     1      19.183  33.308  16.930  1.00  0.00     0.008 C 
BRANCH  11  12
HETATM   12  C6  UNL     1      20.597  33.050  16.524  1.00  0.00     0.007 C 
BRANCH  12  13
HETATM   13  C7  UNL     1      21.313  31.893  17.005  1.00  0.00     0.066 C 
BRANCH  13  14
HETATM   14  C8  UNL     1      20.960  30.604  16.370  1.00  0.00     0.069 A 
HETATM   15  N2  UNL     1      20.223  29.583  16.738  1.00  0.00    -0.296 N 
HETATM   16  N3  UNL     1      20.126  28.536  16.013  1.00  0.00    -0.279 N 
ATOM     17  H2  UNL     1      19.716  29.626  17.622  1.00  0.00     0.187 HD
HETATM   18  C9  UNL     1      20.793  28.498  14.863  1.00  0.00     0.168 A 
ATOM     19  H3  UNL     1      19.551  27.748  16.309  1.00  0.00     0.189 HD
HETATM   20  N4  UNL     1      20.880  27.521  13.962  1.00  0.00    -0.301 N 
HETATM   21  S1  UNL     1      21.568  30.011  14.837  1.00  0.00    -0.038 SA
HETATM   22  C10 UNL     1      21.667  27.746  12.808  1.00  0.00     0.262 C 
ATOM     23  H4  UNL     1      20.394  26.635  14.101  1.00  0.00     0.171 HD
HETATM   24  O1  UNL     1      21.111  28.513  11.937  1.00  0.00    -0.267 OA
BRANCH  22  25
HETATM   25  C11 UNL     1      22.985  27.252  12.469  1.00  0.00     0.160 C 
BRANCH  25  26
HETATM   26  N5  UNL     1      23.177  25.943  11.997  1.00  0.00    -0.390 N 
HETATM   27  C12 UNL     1      24.425  25.689  11.355  1.00  0.00     0.149 C 
BRANCH  26  28
HETATM   28  C13 UNL     1      22.056  25.256  11.469  1.00  0.00     0.117 C 
HETATM   29  C14 UNL     1      22.281  24.605  10.109  1.00  0.00     0.026 C 
ENDBRANCH  26  28
ENDBRANCH  25  26
ENDBRANCH  22  25
ENDBRANCH  13  14
ENDBRANCH  12  13
ENDBRANCH  11  12
ENDBRANCH  10  11
ENDBRANCH   4  10
BRANCH   9  30
HETATM   30  N8  UNL     1      17.490  29.315  13.380  1.00  0.00    -0.369 NA
BRANCH  30  31
HETATM   31  C16 UNL     1      17.627  28.333  12.496  1.00  0.00     0.111 A 
HETATM   32  C17 UNL     1      17.691  28.592  11.105  1.00  0.00     0.045 A 
HETATM   33  C18 UNL     1      17.857  27.598  10.197  1.00  0.00     0.011 A 
HETATM   34  C19 UNL     1      17.971  26.258  10.598  1.00  0.00    -0.052 A 
HETATM   35  C26 UNL     1      17.915  25.962  11.932  1.00  0.00    -0.052 A 
HETATM   36  C27 UNL     1      18.080  24.592  12.467  1.00  0.00     0.049 C 
HETATM   37  C28 UNL     1      17.748  26.978  12.828  1.00  0.00     0.052 A 
BRANCH  34  38
HETATM   38  C20 UNL     1      18.103  25.263   9.549  1.00  0.00     0.043 C 
BRANCH  38  39
HETATM   39  C21 UNL     1      18.457  25.692   8.179  1.00  0.00    -0.007 C 
HETATM   40  C22 UNL     1      19.596  25.051   7.491  1.00  0.00     0.032 C 
HETATM   41  C23 UNL     1      19.821  25.725   6.142  1.00  0.00     0.232 C 
HETATM   42  N9  UNL     1      18.943  26.832   5.952  1.00  0.00    -0.075 N 
HETATM   43  C24 UNL     1      17.543  26.455   6.035  1.00  0.00     0.232 C 
ATOM     44  H92 UNL     1      19.159  27.587   6.603  1.00  0.00     0.277 HD
ATOM     45  H91 UNL     1      19.142  27.311   5.072  1.00  0.00     0.277 HD
HETATM   46  C25 UNL     1      17.246  25.618   7.240  1.00  0.00     0.032 C 
ENDBRANCH  38  39
ENDBRANCH  34  38
ENDBRANCH  30  31
ENDBRANCH   9  30
TORSDOF 12
ENDMDL
