MODEL 1
REMARK VINA RESULT: -8.538414517      0.000      0.000
REMARK  13 active torsions:
REMARK  status: ('A' for Active; 'I' for Inactive)
REMARK    1  A    between atoms: C2_2  and  O1_3 
REMARK    2  A    between atoms: O1_3  and  C3_4 
REMARK    3  A    between atoms: C5_6  and  N1_7 
REMARK    4  A    between atoms: C11_14  and  N2_15 
REMARK    5  A    between atoms: C12_17  and  C13_19 
REMARK    6  A    between atoms: C13_19  and  C14_20 
REMARK    7  A    between atoms: C14_20  and  N3_21 
REMARK    8  A    between atoms: C16_24  and  C17_25 
REMARK       I    between atoms: C17_25  and  N4_27 
REMARK    9  A    between atoms: N4_27  and  C18_28 
REMARK   10  A    between atoms: C20_30  and  C21_31 
REMARK   11  A    between atoms: N6_37  and  C25_38 
REMARK   12  A    between atoms: C25_38  and  C26_39 
REMARK   13  A    between atoms: C26_39  and  O4_40 
ROOT
HETATM    1  C3  UNL     1      18.049  30.891  13.900  1.00  0.00     0.090 A 
HETATM    2  C4  UNL     1      17.300  31.326  14.965  1.00  0.00     0.067 A 
HETATM    3  C5  UNL     1      17.892  32.166  15.919  1.00  0.00     0.035 A 
HETATM    4  C10 UNL     1      19.239  32.523  15.805  1.00  0.00     0.060 A 
HETATM    5  C11 UNL     1      20.021  32.092  14.734  1.00  0.00     0.054 A 
HETATM    6  C16 UNL     1      19.383  31.323  13.850  1.00  0.00     0.106 A 
ENDROOT
BRANCH   6   7
HETATM    7  C17 UNL     1      20.225  30.904  12.654  1.00  0.00     0.333 C 
HETATM    8  O3  UNL     1      20.723  31.817  11.917  1.00  0.00    -0.251 OA
HETATM    9  N4  UNL     1      20.302  29.584  12.464  1.00  0.00    -0.346 NA
BRANCH   9  10
HETATM   10  C18 UNL     1      20.427  28.424  12.316  1.00  0.00     0.201 A 
HETATM   11  C19 UNL     1      19.386  27.552  11.838  1.00  0.00     0.092 A 
HETATM   12  C20 UNL     1      19.738  26.243  11.892  1.00  0.00     0.038 A 
HETATM   13  N5  UNL     1      21.001  26.272  12.412  1.00  0.00    -0.299 N 
HETATM   14  N6  UNL     1      21.392  27.553  12.659  1.00  0.00    -0.263 N 
ATOM     15  H5  UNL     1      21.573  25.447  12.592  1.00  0.00     0.187 HD
BRANCH  12  16
HETATM   16  C21 UNL     1      18.947  25.077  11.397  1.00  0.00    -0.007 C 
HETATM   17  C22 UNL     1      19.573  23.778  11.790  1.00  0.00     0.021 C 
HETATM   18  C23 UNL     1      18.929  25.225   9.882  1.00  0.00     0.021 C 
HETATM   19  C24 UNL     1      17.553  25.212  11.909  1.00  0.00     0.021 C 
ENDBRANCH  12  16
BRANCH  14  20
HETATM   20  C25 UNL     1      22.749  27.888  13.073  1.00  0.00     0.178 C 
BRANCH  20  21
HETATM   21  C26 UNL     1      23.768  27.491  12.099  1.00  0.00     0.189 C 
BRANCH  21  22
HETATM   22  O4  UNL     1      24.037  26.143  12.269  1.00  0.00    -0.394 OA
HETATM   23  C27 UNL     1      24.195  25.393  11.145  1.00  0.00     0.201 C 
ENDBRANCH  21  22
ENDBRANCH  20  21
ENDBRANCH  14  20
ENDBRANCH   9  10
ENDBRANCH   6   7
BRANCH   1  24
HETATM   24  O1  UNL     1      17.554  30.067  12.938  1.00  0.00    -0.350 OA
BRANCH  24  25
HETATM   25  C2  UNL     1      16.270  29.565  12.902  1.00  0.00     0.171 C 
HETATM   26  C1  UNL     1      15.385  28.927  11.986  1.00  0.00     0.034 C 
ENDBRANCH  24  25
ENDBRANCH   1  24
BRANCH   5  27
HETATM   27  N2  UNL     1      21.410  32.315  14.641  1.00  0.00    -0.350 N 
HETATM   28  C12 UNL     1      22.330  33.150  15.193  1.00  0.00     0.079 C 
HETATM   29  S1  UNL     1      23.970  32.751  14.760  1.00  0.00    -0.065 SA
ATOM     30  H2  UNL     1      21.844  31.675  13.977  1.00  0.00     0.166 HD
BRANCH  28  31
HETATM   31  C13 UNL     1      22.367  34.295  16.139  1.00  0.00     0.088 C 
BRANCH  31  32
HETATM   32  C14 UNL     1      22.744  33.760  17.576  1.00  0.00     0.120 C 
BRANCH  32  33
HETATM   33  N3  UNL     1      21.515  33.894  18.285  1.00  0.00    -0.425 N 
HETATM   34  C15 UNL     1      21.076  35.236  18.628  1.00  0.00     0.139 C 
ATOM     35  H3  UNL     1      20.963  33.077  18.543  1.00  0.00     0.152 HD
ENDBRANCH  32  33
ENDBRANCH  31  32
ENDBRANCH  28  31
ENDBRANCH   5  27
BRANCH   3  36
HETATM   36  N1  UNL     1      17.010  32.943  16.772  1.00  0.00    -0.377 N 
HETATM   37  C6  UNL     1      15.624  32.937  16.850  1.00  0.00     0.149 C 
HETATM   38  C7  UNL     1      15.230  34.155  17.725  1.00  0.00     0.187 C 
HETATM   39  O2  UNL     1      15.752  35.302  17.188  1.00  0.00    -0.388 OA
HETATM   40  C8  UNL     1      17.143  35.267  17.102  1.00  0.00     0.187 C 
HETATM   41  C9  UNL     1      17.711  33.961  17.596  1.00  0.00     0.149 C 
ENDBRANCH   3  36
TORSDOF 13
ENDMDL
MODEL 2
REMARK VINA RESULT: -8.266174834      1.374      2.688
REMARK  13 active torsions:
REMARK  status: ('A' for Active; 'I' for Inactive)
REMARK    1  A    between atoms: C2_2  and  O1_3 
REMARK    2  A    between atoms: O1_3  and  C3_4 
REMARK    3  A    between atoms: C5_6  and  N1_7 
REMARK    4  A    between atoms: C11_14  and  N2_15 
REMARK    5  A    between atoms: C12_17  and  C13_19 
REMARK    6  A    between atoms: C13_19  and  C14_20 
REMARK    7  A    between atoms: C14_20  and  N3_21 
REMARK    8  A    between atoms: C16_24  and  C17_25 
REMARK       I    between atoms: C17_25  and  N4_27 
REMARK    9  A    between atoms: N4_27  and  C18_28 
REMARK   10  A    between atoms: C20_30  and  C21_31 
REMARK   11  A    between atoms: N6_37  and  C25_38 
REMARK   12  A    between atoms: C25_38  and  C26_39 
REMARK   13  A    between atoms: C26_39  and  O4_40 
ROOT
HETATM    1  C3  UNL     1      17.979  31.219  13.970  1.00  0.00     0.090 A 
HETATM    2  C4  UNL     1      17.239  31.593  15.064  1.00  0.00     0.067 A 
HETATM    3  C5  UNL     1      17.839  32.382  16.056  1.00  0.00     0.035 A 
HETATM    4  C10 UNL     1      19.183  32.748  15.949  1.00  0.00     0.060 A 
HETATM    5  C11 UNL     1      19.956  32.378  14.849  1.00  0.00     0.054 A 
HETATM    6  C16 UNL     1      19.311  31.656  13.931  1.00  0.00     0.106 A 
ENDROOT
BRANCH   6   7
HETATM    7  C17 UNL     1      20.142  31.305  12.706  1.00  0.00     0.333 C 
HETATM    8  O3  UNL     1      20.306  32.198  11.811  1.00  0.00    -0.251 OA
HETATM    9  N4  UNL     1      20.572  30.040  12.669  1.00  0.00    -0.346 NA
BRANCH   9  10
HETATM   10  C18 UNL     1      21.005  28.947  12.649  1.00  0.00     0.201 A 
HETATM   11  C19 UNL     1      22.274  28.589  12.069  1.00  0.00     0.092 A 
HETATM   12  C20 UNL     1      22.476  27.248  12.049  1.00  0.00     0.038 A 
HETATM   13  N5  UNL     1      21.335  26.743  12.606  1.00  0.00    -0.299 N 
HETATM   14  N6  UNL     1      20.481  27.747  12.951  1.00  0.00    -0.263 N 
ATOM     15  H5  UNL     1      21.149  25.750  12.746  1.00  0.00     0.187 HD
BRANCH  12  16
HETATM   16  C21 UNL     1      23.709  26.530  11.607  1.00  0.00    -0.007 C 
HETATM   17  C22 UNL     1      24.728  26.460  12.697  1.00  0.00     0.021 C 
HETATM   18  C23 UNL     1      24.238  27.339  10.431  1.00  0.00     0.021 C 
HETATM   19  C24 UNL     1      23.307  25.179  11.119  1.00  0.00     0.021 C 
ENDBRANCH  12  16
BRANCH  14  20
HETATM   20  C25 UNL     1      19.256  27.504  13.703  1.00  0.00     0.178 C 
BRANCH  20  21
HETATM   21  C26 UNL     1      18.270  26.712  12.966  1.00  0.00     0.189 C 
BRANCH  21  22
HETATM   22  O4  UNL     1      18.404  26.987  11.616  1.00  0.00    -0.394 OA
HETATM   23  C27 UNL     1      17.626  26.279  10.754  1.00  0.00     0.201 C 
ENDBRANCH  21  22
ENDBRANCH  20  21
ENDBRANCH  14  20
ENDBRANCH   9  10
ENDBRANCH   6   7
BRANCH   1  24
HETATM   24  O1  UNL     1      17.476  30.446  12.970  1.00  0.00    -0.350 OA
BRANCH  24  25
HETATM   25  C2  UNL     1      16.312  29.709  13.040  1.00  0.00     0.171 C 
HETATM   26  C1  UNL     1      15.438  28.988  12.177  1.00  0.00     0.034 C 
ENDBRANCH  24  25
ENDBRANCH   1  24
BRANCH   5  27
HETATM   27  N2  UNL     1      21.343  32.609  14.755  1.00  0.00    -0.350 N 
HETATM   28  C12 UNL     1      22.391  32.780  15.604  1.00  0.00     0.079 C 
HETATM   29  S1  UNL     1      23.932  32.840  14.795  1.00  0.00    -0.065 SA
ATOM     30  H2  UNL     1      21.644  32.664  13.782  1.00  0.00     0.166 HD
BRANCH  28  31
HETATM   31  C13 UNL     1      22.634  32.867  17.068  1.00  0.00     0.088 C 
BRANCH  31  32
HETATM   32  C14 UNL     1      22.333  34.340  17.550  1.00  0.00     0.120 C 
BRANCH  32  33
HETATM   33  N3  UNL     1      21.370  34.135  18.581  1.00  0.00    -0.425 N 
HETATM   34  C15 UNL     1      21.168  35.208  19.540  1.00  0.00     0.139 C 
ATOM     35  H3  UNL     1      20.842  33.265  18.643  1.00  0.00     0.152 HD
ENDBRANCH  32  33
ENDBRANCH  31  32
ENDBRANCH  28  31
ENDBRANCH   5  27
BRANCH   3  36
HETATM   36  N1  UNL     1      16.963  33.109  16.959  1.00  0.00    -0.377 N 
HETATM   37  C6  UNL     1      15.579  33.081  17.062  1.00  0.00     0.149 C 
HETATM   38  C7  UNL     1      15.187  34.254  17.996  1.00  0.00     0.187 C 
HETATM   39  O2  UNL     1      15.683  35.431  17.501  1.00  0.00    -0.388 OA
HETATM   40  C8  UNL     1      17.073  35.418  17.387  1.00  0.00     0.187 C 
HETATM   41  C9  UNL     1      17.666  34.100  17.813  1.00  0.00     0.149 C 
ENDBRANCH   3  36
TORSDOF 13
ENDMDL
MODEL 3
REMARK VINA RESULT: -8.002318766      2.817      5.133
REMARK  13 active torsions:
REMARK  status: ('A' for Active; 'I' for Inactive)
REMARK    1  A    between atoms: C2_2  and  O1_3 
REMARK    2  A    between atoms: O1_3  and  C3_4 
REMARK    3  A    between atoms: C5_6  and  N1_7 
REMARK    4  A    between atoms: C11_14  and  N2_15 
REMARK    5  A    between atoms: C12_17  and  C13_19 
REMARK    6  A    between atoms: C13_19  and  C14_20 
REMARK    7  A    between atoms: C14_20  and  N3_21 
REMARK    8  A    between atoms: C16_24  and  C17_25 
REMARK       I    between atoms: C17_25  and  N4_27 
REMARK    9  A    between atoms: N4_27  and  C18_28 
REMARK   10  A    between atoms: C20_30  and  C21_31 
REMARK   11  A    between atoms: N6_37  and  C25_38 
REMARK   12  A    between atoms: C25_38  and  C26_39 
REMARK   13  A    between atoms: C26_39  and  O4_40 
ROOT
HETATM    1  C3  UNL     1      21.444  32.829  16.498  1.00  0.00     0.090 A 
HETATM    2  C4  UNL     1      21.628  34.184  16.623  1.00  0.00     0.067 A 
HETATM    3  C5  UNL     1      20.508  35.012  16.786  1.00  0.00     0.035 A 
HETATM    4  C10 UNL     1      19.221  34.466  16.782  1.00  0.00     0.060 A 
HETATM    5  C11 UNL     1      19.009  33.094  16.654  1.00  0.00     0.054 A 
HETATM    6  C16 UNL     1      20.121  32.366  16.535  1.00  0.00     0.106 A 
ENDROOT
BRANCH   6   7
HETATM    7  C17 UNL     1      19.887  30.865  16.455  1.00  0.00     0.333 C 
HETATM    8  O3  UNL     1      19.950  30.186  17.532  1.00  0.00    -0.251 OA
HETATM    9  N4  UNL     1      19.697  30.397  15.218  1.00  0.00    -0.346 NA
BRANCH   9  10
HETATM   10  C18 UNL     1      19.472  29.978  14.143  1.00  0.00     0.201 A 
HETATM   11  C19 UNL     1      18.234  29.347  13.762  1.00  0.00     0.092 A 
HETATM   12  C20 UNL     1      18.280  28.826  12.511  1.00  0.00     0.038 A 
HETATM   13  N5  UNL     1      19.548  29.112  12.091  1.00  0.00    -0.299 N 
HETATM   14  N6  UNL     1      20.236  29.783  13.055  1.00  0.00    -0.263 N 
ATOM     15  H5  UNL     1      19.927  28.857  11.179  1.00  0.00     0.187 HD
BRANCH  12  16
HETATM   16  C21 UNL     1      17.158  28.185  11.761  1.00  0.00    -0.007 C 
HETATM   17  C22 UNL     1      15.876  28.929  11.944  1.00  0.00     0.021 C 
HETATM   18  C23 UNL     1      17.049  26.780  12.337  1.00  0.00     0.021 C 
HETATM   19  C24 UNL     1      17.558  28.086  10.328  1.00  0.00     0.021 C 
ENDBRANCH  12  16
BRANCH  14  20
HETATM   20  C25 UNL     1      21.560  30.346  12.819  1.00  0.00     0.178 C 
BRANCH  20  21
HETATM   21  C26 UNL     1      22.546  29.351  12.393  1.00  0.00     0.189 C 
BRANCH  21  22
HETATM   22  O4  UNL     1      22.208  28.130  12.950  1.00  0.00    -0.394 OA
HETATM   23  C27 UNL     1      22.663  27.011  12.324  1.00  0.00     0.201 C 
ENDBRANCH  21  22
ENDBRANCH  20  21
ENDBRANCH  14  20
ENDBRANCH   9  10
ENDBRANCH   6   7
BRANCH   1  24
HETATM   24  O1  UNL     1      22.476  31.959  16.327  1.00  0.00    -0.350 OA
BRANCH  24  25
HETATM   25  C2  UNL     1      23.373  31.983  15.280  1.00  0.00     0.171 C 
HETATM   26  C1  UNL     1      24.342  32.858  14.708  1.00  0.00     0.034 C 
ENDBRANCH  24  25
ENDBRANCH   1  24
BRANCH   5  27
HETATM   27  N2  UNL     1      17.734  32.510  16.514  1.00  0.00    -0.350 N 
HETATM   28  C12 UNL     1      16.437  32.916  16.542  1.00  0.00     0.079 C 
HETATM   29  S1  UNL     1      15.313  31.663  16.092  1.00  0.00    -0.065 SA
ATOM     30  H2  UNL     1      17.804  31.507  16.345  1.00  0.00     0.166 HD
BRANCH  28  31
HETATM   31  C13 UNL     1      15.667  34.163  16.783  1.00  0.00     0.088 C 
BRANCH  31  32
HETATM   32  C14 UNL     1      15.360  34.285  18.327  1.00  0.00     0.120 C 
BRANCH  32  33
HETATM   33  N3  UNL     1      15.881  35.573  18.643  1.00  0.00    -0.425 N 
HETATM   34  C15 UNL     1      16.011  36.533  17.560  1.00  0.00     0.139 C 
ATOM     35  H3  UNL     1      16.154  35.813  19.596  1.00  0.00     0.152 HD
ENDBRANCH  32  33
ENDBRANCH  31  32
ENDBRANCH  28  31
ENDBRANCH   5  27
BRANCH   3  36
HETATM   36  N1  UNL     1      20.725  36.340  17.332  1.00  0.00    -0.377 N 
HETATM   37  C6  UNL     1      21.865  37.132  17.302  1.00  0.00     0.149 C 
HETATM   38  C7  UNL     1      21.603  38.313  18.272  1.00  0.00     0.187 C 
HETATM   39  O2  UNL     1      21.293  37.832  19.517  1.00  0.00    -0.388 OA
HETATM   40  C8  UNL     1      20.159  37.021  19.509  1.00  0.00     0.187 C 
HETATM   41  C9  UNL     1      19.583  36.861  18.125  1.00  0.00     0.149 C 
ENDBRANCH   3  36
TORSDOF 13
ENDMDL
MODEL 4
REMARK VINA RESULT: -7.965420329      1.111      1.702
REMARK  13 active torsions:
REMARK  status: ('A' for Active; 'I' for Inactive)
REMARK    1  A    between atoms: C2_2  and  O1_3 
REMARK    2  A    between atoms: O1_3  and  C3_4 
REMARK    3  A    between atoms: C5_6  and  N1_7 
REMARK    4  A    between atoms: C11_14  and  N2_15 
REMARK    5  A    between atoms: C12_17  and  C13_19 
REMARK    6  A    between atoms: C13_19  and  C14_20 
REMARK    7  A    between atoms: C14_20  and  N3_21 
REMARK    8  A    between atoms: C16_24  and  C17_25 
REMARK       I    between atoms: C17_25  and  N4_27 
REMARK    9  A    between atoms: N4_27  and  C18_28 
REMARK   10  A    between atoms: C20_30  and  C21_31 
REMARK   11  A    between atoms: N6_37  and  C25_38 
REMARK   12  A    between atoms: C25_38  and  C26_39 
REMARK   13  A    between atoms: C26_39  and  O4_40 
ROOT
HETATM    1  C3  UNL     1      17.850  31.077  13.876  1.00  0.00     0.090 A 
HETATM    2  C4  UNL     1      17.132  31.502  14.967  1.00  0.00     0.067 A 
HETATM    3  C5  UNL     1      17.765  32.293  15.935  1.00  0.00     0.035 A 
HETATM    4  C10 UNL     1      19.120  32.612  15.809  1.00  0.00     0.060 A 
HETATM    5  C11 UNL     1      19.872  32.190  14.713  1.00  0.00     0.054 A 
HETATM    6  C16 UNL     1      19.196  31.469  13.817  1.00  0.00     0.106 A 
ENDROOT
BRANCH   6   7
HETATM    7  C17 UNL     1      20.004  31.062  12.594  1.00  0.00     0.333 C 
HETATM    8  O3  UNL     1      20.553  31.979  11.901  1.00  0.00    -0.251 OA
HETATM    9  N4  UNL     1      20.000  29.750  12.337  1.00  0.00    -0.346 NA
BRANCH   9  10
HETATM   10  C18 UNL     1      20.053  28.595  12.129  1.00  0.00     0.201 A 
HETATM   11  C19 UNL     1      19.035  27.849  11.435  1.00  0.00     0.092 A 
HETATM   12  C20 UNL     1      19.268  26.512  11.451  1.00  0.00     0.038 A 
HETATM   13  N5  UNL     1      20.428  26.398  12.162  1.00  0.00    -0.299 N 
HETATM   14  N6  UNL     1      20.877  27.622  12.556  1.00  0.00    -0.263 N 
ATOM     15  H5  UNL     1      20.896  25.515  12.370  1.00  0.00     0.187 HD
BRANCH  12  16
HETATM   16  C21 UNL     1      18.476  25.452  10.759  1.00  0.00    -0.007 C 
HETATM   17  C22 UNL     1      17.321  26.029  10.005  1.00  0.00     0.021 C 
HETATM   18  C23 UNL     1      17.985  24.535  11.870  1.00  0.00     0.021 C 
HETATM   19  C24 UNL     1      19.402  24.684   9.877  1.00  0.00     0.021 C 
ENDBRANCH  12  16
BRANCH  14  20
HETATM   20  C25 UNL     1      22.172  27.808  13.198  1.00  0.00     0.178 C 
BRANCH  20  21
HETATM   21  C26 UNL     1      22.086  28.481  14.495  1.00  0.00     0.189 C 
BRANCH  21  22
HETATM   22  O4  UNL     1      21.054  27.910  15.220  1.00  0.00    -0.394 OA
HETATM   23  C27 UNL     1      20.189  28.753  15.846  1.00  0.00     0.201 C 
ENDBRANCH  21  22
ENDBRANCH  20  21
ENDBRANCH  14  20
ENDBRANCH   9  10
ENDBRANCH   6   7
BRANCH   1  24
HETATM   24  O1  UNL     1      17.313  30.299  12.898  1.00  0.00    -0.350 OA
BRANCH  24  25
HETATM   25  C2  UNL     1      16.097  29.653  12.971  1.00  0.00     0.171 C 
HETATM   26  C1  UNL     1      15.220  28.905  12.134  1.00  0.00     0.034 C 
ENDBRANCH  24  25
ENDBRANCH   1  24
BRANCH   5  27
HETATM   27  N2  UNL     1      21.265  32.373  14.603  1.00  0.00    -0.350 N 
HETATM   28  C12 UNL     1      22.218  33.166  15.160  1.00  0.00     0.079 C 
HETATM   29  S1  UNL     1      23.839  32.728  14.691  1.00  0.00    -0.065 SA
ATOM     30  H2  UNL     1      21.668  31.736  13.917  1.00  0.00     0.166 HD
BRANCH  28  31
HETATM   31  C13 UNL     1      22.305  34.287  16.131  1.00  0.00     0.088 C 
BRANCH  31  32
HETATM   32  C14 UNL     1      22.704  33.709  17.545  1.00  0.00     0.120 C 
BRANCH  32  33
HETATM   33  N3  UNL     1      21.512  33.898  18.302  1.00  0.00    -0.425 N 
HETATM   34  C15 UNL     1      21.080  35.264  18.552  1.00  0.00     0.139 C 
ATOM     35  H3  UNL     1      20.979  33.104  18.656  1.00  0.00     0.152 HD
ENDBRANCH  32  33
ENDBRANCH  31  32
ENDBRANCH  28  31
ENDBRANCH   5  27
BRANCH   3  36
HETATM   36  N1  UNL     1      16.922  33.071  16.827  1.00  0.00    -0.377 N 
HETATM   37  C6  UNL     1      15.539  33.083  16.948  1.00  0.00     0.149 C 
HETATM   38  C7  UNL     1      15.191  34.294  17.852  1.00  0.00     0.187 C 
HETATM   39  O2  UNL     1      15.712  35.441  17.316  1.00  0.00    -0.388 OA
HETATM   40  C8  UNL     1      17.099  35.387  17.185  1.00  0.00     0.187 C 
HETATM   41  C9  UNL     1      17.663  34.066  17.643  1.00  0.00     0.149 C 
ENDBRANCH   3  36
TORSDOF 13
ENDMDL
MODEL 5
REMARK VINA RESULT: -7.948180977      2.205      9.268
REMARK  13 active torsions:
REMARK  status: ('A' for Active; 'I' for Inactive)
REMARK    1  A    between atoms: C2_2  and  O1_3 
REMARK    2  A    between atoms: O1_3  and  C3_4 
REMARK    3  A    between atoms: C5_6  and  N1_7 
REMARK    4  A    between atoms: C11_14  and  N2_15 
REMARK    5  A    between atoms: C12_17  and  C13_19 
REMARK    6  A    between atoms: C13_19  and  C14_20 
REMARK    7  A    between atoms: C14_20  and  N3_21 
REMARK    8  A    between atoms: C16_24  and  C17_25 
REMARK       I    between atoms: C17_25  and  N4_27 
REMARK    9  A    between atoms: N4_27  and  C18_28 
REMARK   10  A    between atoms: C20_30  and  C21_31 
REMARK   11  A    between atoms: N6_37  and  C25_38 
REMARK   12  A    between atoms: C25_38  and  C26_39 
REMARK   13  A    between atoms: C26_39  and  O4_40 
ROOT
HETATM    1  C3  UNL     1      22.150  30.503  13.462  1.00  0.00     0.090 A 
HETATM    2  C4  UNL     1      22.811  29.302  13.388  1.00  0.00     0.067 A 
HETATM    3  C5  UNL     1      22.101  28.155  13.006  1.00  0.00     0.035 A 
HETATM    4  C10 UNL     1      20.730  28.229  12.743  1.00  0.00     0.060 A 
HETATM    5  C11 UNL     1      20.036  29.436  12.816  1.00  0.00     0.054 A 
HETATM    6  C16 UNL     1      20.781  30.490  13.153  1.00  0.00     0.106 A 
ENDROOT
BRANCH   6   7
HETATM    7  C17 UNL     1      20.032  31.813  13.173  1.00  0.00     0.333 C 
HETATM    8  O3  UNL     1      19.770  32.375  12.060  1.00  0.00    -0.251 OA
HETATM    9  N4  UNL     1      19.775  32.289  14.395  1.00  0.00    -0.346 NA
BRANCH   9  10
HETATM   10  C18 UNL     1      19.492  32.692  15.462  1.00  0.00     0.201 A 
HETATM   11  C19 UNL     1      20.105  33.837  16.085  1.00  0.00     0.092 A 
HETATM   12  C20 UNL     1      19.703  34.009  17.369  1.00  0.00     0.038 A 
HETATM   13  N5  UNL     1      18.839  32.971  17.575  1.00  0.00    -0.299 N 
HETATM   14  N6  UNL     1      18.726  32.206  16.454  1.00  0.00    -0.263 N 
ATOM     15  H5  UNL     1      18.346  32.793  18.450  1.00  0.00     0.187 HD
BRANCH  12  16
HETATM   16  C21 UNL     1      20.061  35.135  18.281  1.00  0.00    -0.007 C 
HETATM   17  C22 UNL     1      21.420  34.954  18.876  1.00  0.00     0.021 C 
HETATM   18  C23 UNL     1      18.995  35.119  19.368  1.00  0.00     0.021 C 
HETATM   19  C24 UNL     1      19.944  36.409  17.513  1.00  0.00     0.021 C 
ENDBRANCH  12  16
BRANCH  14  20
HETATM   20  C25 UNL     1      17.757  31.123  16.344  1.00  0.00     0.178 C 
BRANCH  20  21
HETATM   21  C26 UNL     1      16.419  31.577  15.958  1.00  0.00     0.189 C 
BRANCH  21  22
HETATM   22  O4  UNL     1      16.093  32.685  16.723  1.00  0.00    -0.394 OA
HETATM   23  C27 UNL     1      15.693  33.803  16.061  1.00  0.00     0.201 C 
ENDBRANCH  21  22
ENDBRANCH  20  21
ENDBRANCH  14  20
ENDBRANCH   9  10
ENDBRANCH   6   7
BRANCH   1  24
HETATM   24  O1  UNL     1      22.762  31.659  13.834  1.00  0.00    -0.350 OA
BRANCH  24  25
HETATM   25  C2  UNL     1      23.168  31.970  15.116  1.00  0.00     0.171 C 
HETATM   26  C1  UNL     1      23.560  33.108  15.878  1.00  0.00     0.034 C 
ENDBRANCH  24  25
ENDBRANCH   1  24
BRANCH   5  27
HETATM   27  N2  UNL     1      18.636  29.541  12.689  1.00  0.00    -0.350 N 
HETATM   28  C12 UNL     1      17.607  28.761  12.265  1.00  0.00     0.079 C 
HETATM   29  S1  UNL     1      16.041  29.465  12.561  1.00  0.00    -0.065 SA
ATOM     30  H2  UNL     1      18.304  30.454  13.000  1.00  0.00     0.166 HD
BRANCH  28  31
HETATM   31  C13 UNL     1      17.403  27.416  11.667  1.00  0.00     0.088 C 
BRANCH  31  32
HETATM   32  C14 UNL     1      17.524  26.327  12.803  1.00  0.00     0.120 C 
BRANCH  32  33
HETATM   33  N3  UNL     1      18.481  25.422  12.260  1.00  0.00    -0.425 N 
HETATM   34  C15 UNL     1      18.538  25.287  10.814  1.00  0.00     0.139 C 
ATOM     35  H3  UNL     1      19.104  24.887  12.865  1.00  0.00     0.152 HD
ENDBRANCH  32  33
ENDBRANCH  31  32
ENDBRANCH  28  31
ENDBRANCH   5  27
BRANCH   3  36
HETATM   36  N1  UNL     1      22.866  27.018  12.525  1.00  0.00    -0.377 N 
HETATM   37  C6  UNL     1      24.227  26.913  12.269  1.00  0.00     0.149 C 
HETATM   38  C7  UNL     1      24.428  25.570  11.520  1.00  0.00     0.187 C 
HETATM   39  O2  UNL     1      23.647  25.543  10.395  1.00  0.00    -0.388 OA
HETATM   40  C8  UNL     1      22.289  25.674  10.685  1.00  0.00     0.187 C 
HETATM   41  C9  UNL     1      22.036  25.842  12.161  1.00  0.00     0.149 C 
ENDBRANCH   3  36
TORSDOF 13
ENDMDL
