MODEL 1
REMARK VINA RESULT: -8.072031989      0.000      0.000
REMARK  9 active torsions:
REMARK  status: ('A' for Active; 'I' for Inactive)
REMARK    1  A    between atoms: C2_2  and  C3_3 
REMARK    2  A    between atoms: C5_5  and  C6_6 
REMARK    3  A    between atoms: C6_6  and  C7_7 
REMARK    4  A    between atoms: C7_7  and  C8_8 
REMARK    5  A    between atoms: C8_8  and  O1_9 
REMARK    6  A    between atoms: C8_8  and  C9_11 
REMARK    7  A    between atoms: C9_11  and  C10_12 
REMARK    8  A    between atoms: C10_12  and  C11_13 
REMARK    9  A    between atoms: C11_13  and  O2_14 
ROOT
HETATM    1  C6  UNL     1      20.263   3.958   9.125  1.00  0.00     0.041 C 
ENDROOT
BRANCH   1   2
HETATM    2  C5  UNL     1      20.389   4.633  10.412  1.00  0.00    -0.057 A 
HETATM    3  C4  UNL     1      19.623   5.746  10.702  1.00  0.00     0.019 A 
HETATM    4  C3  UNL     1      19.721   6.380  11.922  1.00  0.00    -0.031 A 
HETATM    5  C15 UNL     1      20.601   5.892  12.874  1.00  0.00    -0.052 A 
HETATM    6  C14 UNL     1      21.379   4.778  12.608  1.00  0.00     0.008 A 
HETATM    7  C16 UNL     1      20.694   6.592  14.195  1.00  0.00     0.049 C 
HETATM    8  C13 UNL     1      21.261   4.153  11.361  1.00  0.00     0.007 A 
BRANCH   4   9
HETATM    9  C2  UNL     1      18.913   7.563  12.246  1.00  0.00     0.002 C 
HETATM   10  C1  UNL     1      18.188   8.222  11.381  1.00  0.00     0.012 C 
ENDBRANCH   4   9
ENDBRANCH   1   2
BRANCH   1  11
HETATM   11  C7  UNL     1      20.597   4.723   7.910  1.00  0.00     0.036 C 
BRANCH  11  12
HETATM   12  C8  UNL     1      19.494   5.252   7.084  1.00  0.00     0.118 C 
BRANCH  12  13
HETATM   13  O1  UNL     1      18.217   5.016   7.513  1.00  0.00    -0.396 OA
ATOM     14  H1  UNL     1      17.515   5.143   6.887  1.00  0.00     0.210 HD
ENDBRANCH  12  13
BRANCH  12  15
HETATM   15  C9  UNL     1      19.624   6.725   6.758  1.00  0.00     0.034 C 
BRANCH  15  16
HETATM   16  C10 UNL     1      20.787   7.247   7.591  1.00  0.00     0.029 C 
BRANCH  16  17
HETATM   17  C11 UNL     1      20.430   8.464   8.369  1.00  0.00     0.167 C 
BRANCH  17  18
HETATM   18  O2  UNL     1      19.664   9.366   7.687  1.00  0.00    -0.396 OA
HETATM   19  C12 UNL     1      19.687  10.592   8.323  1.00  0.00     0.201 C 
ENDBRANCH  17  18
ENDBRANCH  16  17
ENDBRANCH  15  16
ENDBRANCH  12  15
ENDBRANCH  11  12
ENDBRANCH   1  11
TORSDOF 9
ENDMDL
MODEL 2
REMARK VINA RESULT: -7.748422267      2.115      3.120
REMARK  9 active torsions:
REMARK  status: ('A' for Active; 'I' for Inactive)
REMARK    1  A    between atoms: C2_2  and  C3_3 
REMARK    2  A    between atoms: C5_5  and  C6_6 
REMARK    3  A    between atoms: C6_6  and  C7_7 
REMARK    4  A    between atoms: C7_7  and  C8_8 
REMARK    5  A    between atoms: C8_8  and  O1_9 
REMARK    6  A    between atoms: C8_8  and  C9_11 
REMARK    7  A    between atoms: C9_11  and  C10_12 
REMARK    8  A    between atoms: C10_12  and  C11_13 
REMARK    9  A    between atoms: C11_13  and  O2_14 
ROOT
HETATM    1  C6  UNL     1      21.080   4.688  11.721  1.00  0.00     0.041 C 
ENDROOT
BRANCH   1   2
HETATM    2  C5  UNL     1      21.166   5.823  12.634  1.00  0.00    -0.057 A 
HETATM    3  C4  UNL     1      22.021   6.876  12.369  1.00  0.00     0.019 A 
HETATM    4  C3  UNL     1      22.096   7.962  13.214  1.00  0.00    -0.031 A 
HETATM    5  C15 UNL     1      21.300   7.998  14.348  1.00  0.00    -0.052 A 
HETATM    6  C14 UNL     1      20.436   6.956  14.634  1.00  0.00     0.008 A 
HETATM    7  C16 UNL     1      21.394   9.186  15.256  1.00  0.00     0.049 C 
HETATM    8  C13 UNL     1      20.379   5.865  13.760  1.00  0.00     0.007 A 
BRANCH   4   9
HETATM    9  C2  UNL     1      22.999   9.089  12.948  1.00  0.00     0.002 C 
HETATM   10  C1  UNL     1      23.407   9.443  11.758  1.00  0.00     0.012 C 
ENDBRANCH   4   9
ENDBRANCH   1   2
BRANCH   1  11
HETATM   11  C7  UNL     1      20.127   4.776  10.600  1.00  0.00     0.036 C 
BRANCH  11  12
HETATM   12  C8  UNL     1      20.641   5.145   9.265  1.00  0.00     0.118 C 
BRANCH  12  13
HETATM   13  O1  UNL     1      20.706   4.156   8.322  1.00  0.00    -0.396 OA
ATOM     14  H1  UNL     1      20.122   4.226   7.576  1.00  0.00     0.210 HD
ENDBRANCH  12  13
BRANCH  12  15
HETATM   15  C9  UNL     1      19.951   6.345   8.653  1.00  0.00     0.034 C 
BRANCH  15  16
HETATM   16  C10 UNL     1      20.709   7.572   9.144  1.00  0.00     0.029 C 
BRANCH  16  17
HETATM   17  C11 UNL     1      19.838   8.519   9.891  1.00  0.00     0.167 C 
BRANCH  17  18
HETATM   18  O2  UNL     1      18.596   8.033  10.184  1.00  0.00    -0.396 OA
HETATM   19  C12 UNL     1      18.361   8.106  11.544  1.00  0.00     0.201 C 
ENDBRANCH  17  18
ENDBRANCH  16  17
ENDBRANCH  15  16
ENDBRANCH  12  15
ENDBRANCH  11  12
ENDBRANCH   1  11
TORSDOF 9
ENDMDL
MODEL 3
REMARK VINA RESULT: -7.704878842      3.022      5.586
REMARK  9 active torsions:
REMARK  status: ('A' for Active; 'I' for Inactive)
REMARK    1  A    between atoms: C2_2  and  C3_3 
REMARK    2  A    between atoms: C5_5  and  C6_6 
REMARK    3  A    between atoms: C6_6  and  C7_7 
REMARK    4  A    between atoms: C7_7  and  C8_8 
REMARK    5  A    between atoms: C8_8  and  O1_9 
REMARK    6  A    between atoms: C8_8  and  C9_11 
REMARK    7  A    between atoms: C9_11  and  C10_12 
REMARK    8  A    between atoms: C10_12  and  C11_13 
REMARK    9  A    between atoms: C11_13  and  O2_14 
ROOT
HETATM    1  C6  UNL     1      21.096   4.884  12.376  1.00  0.00     0.041 C 
ENDROOT
BRANCH   1   2
HETATM    2  C5  UNL     1      20.836   5.105  10.958  1.00  0.00    -0.057 A 
HETATM    3  C4  UNL     1      20.792   6.386  10.442  1.00  0.00     0.019 A 
HETATM    4  C3  UNL     1      20.566   6.605   9.100  1.00  0.00    -0.031 A 
HETATM    5  C15 UNL     1      20.382   5.522   8.254  1.00  0.00    -0.052 A 
HETATM    6  C14 UNL     1      20.422   4.230   8.748  1.00  0.00     0.008 A 
HETATM    7  C16 UNL     1      20.139   5.778   6.799  1.00  0.00     0.049 C 
HETATM    8  C13 UNL     1      20.653   4.034  10.115  1.00  0.00     0.007 A 
BRANCH   4   9
HETATM    9  C2  UNL     1      20.517   7.959   8.534  1.00  0.00     0.002 C 
HETATM   10  C1  UNL     1      20.944   9.032   9.147  1.00  0.00     0.012 C 
ENDBRANCH   4   9
ENDBRANCH   1   2
BRANCH   1  11
HETATM   11  C7  UNL     1      20.476   5.809  13.342  1.00  0.00     0.036 C 
BRANCH  11  12
HETATM   12  C8  UNL     1      21.318   6.855  13.957  1.00  0.00     0.118 C 
BRANCH  12  13
HETATM   13  O1  UNL     1      22.524   7.119  13.368  1.00  0.00    -0.396 OA
ATOM     14  H1  UNL     1      23.103   7.728  13.811  1.00  0.00     0.210 HD
ENDBRANCH  12  13
BRANCH  12  15
HETATM   15  C9  UNL     1      20.599   8.168  14.182  1.00  0.00     0.034 C 
BRANCH  15  16
HETATM   16  C10 UNL     1      21.294   8.843  15.357  1.00  0.00     0.029 C 
BRANCH  16  17
HETATM   17  C11 UNL     1      22.086  10.032  14.944  1.00  0.00     0.167 C 
BRANCH  17  18
HETATM   18  O2  UNL     1      23.358   9.749  14.536  1.00  0.00    -0.396 OA
HETATM   19  C12 UNL     1      23.669  10.471  13.400  1.00  0.00     0.201 C 
ENDBRANCH  17  18
ENDBRANCH  16  17
ENDBRANCH  15  16
ENDBRANCH  12  15
ENDBRANCH  11  12
ENDBRANCH   1  11
TORSDOF 9
ENDMDL
MODEL 4
REMARK VINA RESULT: -7.687953187      3.107      5.072
REMARK  9 active torsions:
REMARK  status: ('A' for Active; 'I' for Inactive)
REMARK    1  A    between atoms: C2_2  and  C3_3 
REMARK    2  A    between atoms: C5_5  and  C6_6 
REMARK    3  A    between atoms: C6_6  and  C7_7 
REMARK    4  A    between atoms: C7_7  and  C8_8 
REMARK    5  A    between atoms: C8_8  and  O1_9 
REMARK    6  A    between atoms: C8_8  and  C9_11 
REMARK    7  A    between atoms: C9_11  and  C10_12 
REMARK    8  A    between atoms: C10_12  and  C11_13 
REMARK    9  A    between atoms: C11_13  and  O2_14 
ROOT
HETATM    1  C6  UNL     1      19.999   6.918  13.289  1.00  0.00     0.041 C 
ENDROOT
BRANCH   1   2
HETATM    2  C5  UNL     1      20.797   8.070  13.693  1.00  0.00    -0.057 A 
HETATM    3  C4  UNL     1      21.411   8.868  12.745  1.00  0.00     0.019 A 
HETATM    4  C3  UNL     1      22.152   9.970  13.115  1.00  0.00    -0.031 A 
HETATM    5  C15 UNL     1      22.283  10.282  14.459  1.00  0.00    -0.052 A 
HETATM    6  C14 UNL     1      21.678   9.498  15.426  1.00  0.00     0.008 A 
HETATM    7  C16 UNL     1      23.091  11.484  14.843  1.00  0.00     0.049 C 
HETATM    8  C13 UNL     1      20.931   8.385  15.024  1.00  0.00     0.007 A 
BRANCH   4   9
HETATM    9  C2  UNL     1      22.809  10.829  12.122  1.00  0.00     0.002 C 
HETATM   10  C1  UNL     1      23.773  10.439  11.330  1.00  0.00     0.012 C 
ENDBRANCH   4   9
ENDBRANCH   1   2
BRANCH   1  11
HETATM   11  C7  UNL     1      20.655   5.598  13.267  1.00  0.00     0.036 C 
BRANCH  11  12
HETATM   12  C8  UNL     1      21.108   5.056  11.970  1.00  0.00     0.118 C 
BRANCH  12  13
HETATM   13  O1  UNL     1      21.722   3.834  11.978  1.00  0.00    -0.396 OA
ATOM     14  H1  UNL     1      22.078   3.518  11.156  1.00  0.00     0.210 HD
ENDBRANCH  12  13
BRANCH  12  15
HETATM   15  C9  UNL     1      20.035   5.044  10.903  1.00  0.00     0.034 C 
BRANCH  15  16
HETATM   16  C10 UNL     1      20.495   4.054   9.841  1.00  0.00     0.029 C 
BRANCH  16  17
HETATM   17  C11 UNL     1      20.403   4.609   8.465  1.00  0.00     0.167 C 
BRANCH  17  18
HETATM   18  O2  UNL     1      19.292   4.222   7.772  1.00  0.00    -0.396 OA
HETATM   19  C12 UNL     1      18.934   5.194   6.858  1.00  0.00     0.201 C 
ENDBRANCH  17  18
ENDBRANCH  16  17
ENDBRANCH  15  16
ENDBRANCH  12  15
ENDBRANCH  11  12
ENDBRANCH   1  11
TORSDOF 9
ENDMDL
MODEL 5
REMARK VINA RESULT: -7.602887548      3.455      5.878
REMARK  9 active torsions:
REMARK  status: ('A' for Active; 'I' for Inactive)
REMARK    1  A    between atoms: C2_2  and  C3_3 
REMARK    2  A    between atoms: C5_5  and  C6_6 
REMARK    3  A    between atoms: C6_6  and  C7_7 
REMARK    4  A    between atoms: C7_7  and  C8_8 
REMARK    5  A    between atoms: C8_8  and  O1_9 
REMARK    6  A    between atoms: C8_8  and  C9_11 
REMARK    7  A    between atoms: C9_11  and  C10_12 
REMARK    8  A    between atoms: C10_12  and  C11_13 
REMARK    9  A    between atoms: C11_13  and  O2_14 
ROOT
HETATM    1  C6  UNL     1      21.241   6.602  13.501  1.00  0.00     0.041 C 
ENDROOT
BRANCH   1   2
HETATM    2  C5  UNL     1      21.041   6.001  12.188  1.00  0.00    -0.057 A 
HETATM    3  C4  UNL     1      20.764   6.790  11.087  1.00  0.00     0.019 A 
HETATM    4  C3  UNL     1      20.592   6.234   9.838  1.00  0.00    -0.031 A 
HETATM    5  C15 UNL     1      20.698   4.861   9.683  1.00  0.00    -0.052 A 
HETATM    6  C14 UNL     1      20.974   4.050  10.770  1.00  0.00     0.008 A 
HETATM    7  C16 UNL     1      20.508   4.274   8.318  1.00  0.00     0.049 C 
HETATM    8  C13 UNL     1      21.145   4.639  12.027  1.00  0.00     0.007 A 
BRANCH   4   9
HETATM    9  C2  UNL     1      20.299   7.058   8.658  1.00  0.00     0.002 C 
HETATM   10  C1  UNL     1      20.660   8.307   8.521  1.00  0.00     0.012 C 
ENDBRANCH   4   9
ENDBRANCH   1   2
BRANCH   1  11
HETATM   11  C7  UNL     1      20.747   7.974  13.714  1.00  0.00     0.036 C 
BRANCH  11  12
HETATM   12  C8  UNL     1      21.716   9.088  13.669  1.00  0.00     0.118 C 
BRANCH  12  13
HETATM   13  O1  UNL     1      21.536  10.040  12.704  1.00  0.00    -0.396 OA
ATOM     14  H1  UNL     1      20.689  10.468  12.665  1.00  0.00     0.210 HD
ENDBRANCH  12  13
BRANCH  12  15
HETATM   15  C9  UNL     1      21.909   9.786  14.999  1.00  0.00     0.034 C 
BRANCH  15  16
HETATM   16  C10 UNL     1      23.409   9.995  15.160  1.00  0.00     0.029 C 
BRANCH  16  17
HETATM   17  C11 UNL     1      23.807  11.419  15.000  1.00  0.00     0.167 C 
BRANCH  17  18
HETATM   18  O2  UNL     1      23.704  11.894  13.724  1.00  0.00    -0.396 OA
HETATM   19  C12 UNL     1      24.793  11.494  12.974  1.00  0.00     0.201 C 
ENDBRANCH  17  18
ENDBRANCH  16  17
ENDBRANCH  15  16
ENDBRANCH  12  15
ENDBRANCH  11  12
ENDBRANCH   1  11
TORSDOF 9
ENDMDL
