MODEL 1
REMARK VINA RESULT: -7.578211238      0.000      0.000
REMARK  6 active torsions:
REMARK  status: ('A' for Active; 'I' for Inactive)
REMARK    1  A    between atoms: C2_2  and  C3_3 
REMARK    2  A    between atoms: C3_3  and  C4_4 
REMARK    3  A    between atoms: C10_10  and  O1_11 
REMARK    4  A    between atoms: C10_10  and  C11_13 
REMARK    5  A    between atoms: C11_13  and  C12_14 
REMARK    6  A    between atoms: C12_14  and  C13_15 
ROOT
HETATM    1  C3  UNL     1      20.814   6.337  12.535  1.00  0.00    -0.041 C 
HETATM    2  C6  UNL     1      19.340   6.488  12.231  1.00  0.00     0.009 C 
HETATM    3  C7  UNL     1      18.934   7.502  11.233  1.00  0.00     0.001 C 
HETATM    4  C8  UNL     1      19.332   8.914  11.494  1.00  0.00     0.003 C 
HETATM    5  C9  UNL     1      20.463   9.385  10.628  1.00  0.00     0.038 C 
HETATM    6  C10 UNL     1      21.756   9.535  11.441  1.00  0.00     0.058 C 
HETATM    7  C15 UNL     1      22.368   8.231  11.795  1.00  0.00     0.038 C 
HETATM    8  C16 UNL     1      21.685   6.982  11.475  1.00  0.00     0.012 C 
ENDROOT
BRANCH   6   9
HETATM    9  O1  UNL     1      21.394  10.306  12.549  1.00  0.00    -0.390 OA
ATOM     10  H1  UNL     1      22.215  10.512  12.981  1.00  0.00     0.210 HD
ENDBRANCH   6   9
BRANCH   6  11
HETATM   11  C11 UNL     1      22.634  10.421  10.585  1.00  0.00     0.045 C 
BRANCH  11  12
HETATM   12  C12 UNL     1      21.965  11.561   9.911  1.00  0.00     0.081 C 
BRANCH  12  13
HETATM   13  C13 UNL     1      22.501  12.820  10.530  1.00  0.00     0.123 C 
HETATM   14  C14 UNL     1      23.699  13.512  10.006  1.00  0.00     0.091 C 
HETATM   15  O2  UNL     1      21.888  13.256  11.509  1.00  0.00    -0.298 OA
ENDBRANCH  12  13
ENDBRANCH  11  12
ENDBRANCH   6  11
BRANCH   1  16
HETATM   16  C2  UNL     1      21.170   6.739  13.911  1.00  0.00     0.005 C 
HETATM   17  C1  UNL     1      20.289   7.639  14.690  1.00  0.00     0.006 C 
ENDBRANCH   1  16
BRANCH   1  18
HETATM   18  C4  UNL     1      21.063   4.855  12.386  1.00  0.00     0.005 C 
HETATM   19  C5  UNL     1      21.050   4.262  11.044  1.00  0.00     0.006 C 
ENDBRANCH   1  18
TORSDOF 6
ENDMDL
MODEL 2
REMARK VINA RESULT: -7.573507630      2.272      5.916
REMARK  6 active torsions:
REMARK  status: ('A' for Active; 'I' for Inactive)
REMARK    1  A    between atoms: C2_2  and  C3_3 
REMARK    2  A    between atoms: C3_3  and  C4_4 
REMARK    3  A    between atoms: C10_10  and  O1_11 
REMARK    4  A    between atoms: C10_10  and  C11_13 
REMARK    5  A    between atoms: C11_13  and  C12_14 
REMARK    6  A    between atoms: C12_14  and  C13_15 
ROOT
HETATM    1  C3  UNL     1      22.850  10.004  12.761  1.00  0.00    -0.041 C 
HETATM    2  C6  UNL     1      22.702  10.542  14.167  1.00  0.00     0.009 C 
HETATM    3  C7  UNL     1      22.345   9.592  15.243  1.00  0.00     0.001 C 
HETATM    4  C8  UNL     1      21.080   8.823  15.082  1.00  0.00     0.003 C 
HETATM    5  C9  UNL     1      21.297   7.386  14.707  1.00  0.00     0.038 C 
HETATM    6  C10 UNL     1      20.897   7.130  13.247  1.00  0.00     0.058 C 
HETATM    7  C15 UNL     1      21.869   7.691  12.278  1.00  0.00     0.038 C 
HETATM    8  C16 UNL     1      22.995   8.496  12.739  1.00  0.00     0.012 C 
ENDROOT
BRANCH   6   9
HETATM    9  O1  UNL     1      19.612   7.666  13.129  1.00  0.00    -0.390 OA
ATOM     10  H1  UNL     1      19.375   7.532  12.219  1.00  0.00     0.210 HD
ENDBRANCH   6   9
BRANCH   6  11
HETATM   11  C11 UNL     1      20.733   5.629  13.165  1.00  0.00     0.045 C 
BRANCH  11  12
HETATM   12  C12 UNL     1      21.409   4.951  12.032  1.00  0.00     0.081 C 
BRANCH  12  13
HETATM   13  C13 UNL     1      20.395   4.794  10.936  1.00  0.00     0.123 C 
HETATM   14  C14 UNL     1      20.649   3.971   9.734  1.00  0.00     0.091 C 
HETATM   15  O2  UNL     1      19.326   5.394  11.087  1.00  0.00    -0.298 OA
ENDBRANCH  12  13
ENDBRANCH  11  12
ENDBRANCH   6  11
BRANCH   1  16
HETATM   16  C2  UNL     1      21.818  10.508  11.832  1.00  0.00     0.005 C 
HETATM   17  C1  UNL     1      22.198  11.208  10.584  1.00  0.00     0.006 C 
ENDBRANCH   1  16
BRANCH   1  18
HETATM   18  C4  UNL     1      24.196  10.525  12.316  1.00  0.00     0.005 C 
HETATM   19  C5  UNL     1      24.955  11.399  13.217  1.00  0.00     0.006 C 
ENDBRANCH   1  18
TORSDOF 6
ENDMDL
MODEL 3
REMARK VINA RESULT: -7.486698746      3.307      5.036
REMARK  6 active torsions:
REMARK  status: ('A' for Active; 'I' for Inactive)
REMARK    1  A    between atoms: C2_2  and  C3_3 
REMARK    2  A    between atoms: C3_3  and  C4_4 
REMARK    3  A    between atoms: C10_10  and  O1_11 
REMARK    4  A    between atoms: C10_10  and  C11_13 
REMARK    5  A    between atoms: C11_13  and  C12_14 
REMARK    6  A    between atoms: C12_14  and  C13_15 
ROOT
HETATM    1  C3  UNL     1      19.881   5.867   8.792  1.00  0.00    -0.041 C 
HETATM    2  C6  UNL     1      20.523   4.517   9.026  1.00  0.00     0.009 C 
HETATM    3  C7  UNL     1      20.637   4.031  10.419  1.00  0.00     0.001 C 
HETATM    4  C8  UNL     1      21.383   4.888  11.382  1.00  0.00     0.003 C 
HETATM    5  C9  UNL     1      20.493   5.619  12.344  1.00  0.00     0.038 C 
HETATM    6  C10 UNL     1      20.444   7.119  12.022  1.00  0.00     0.058 C 
HETATM    7  C15 UNL     1      19.642   7.421  10.811  1.00  0.00     0.038 C 
HETATM    8  C16 UNL     1      19.094   6.341   9.998  1.00  0.00     0.012 C 
ENDROOT
BRANCH   6   9
HETATM    9  O1  UNL     1      21.783   7.507  11.920  1.00  0.00    -0.390 OA
ATOM     10  H1  UNL     1      21.939   7.602  10.987  1.00  0.00     0.210 HD
ENDBRANCH   6   9
BRANCH   6  11
HETATM   11  C11 UNL     1      19.920   7.755  13.290  1.00  0.00     0.045 C 
BRANCH  11  12
HETATM   12  C12 UNL     1      20.465   7.233  14.566  1.00  0.00     0.081 C 
BRANCH  12  13
HETATM   13  C13 UNL     1      21.671   8.060  14.907  1.00  0.00     0.123 C 
HETATM   14  C14 UNL     1      21.563   9.432  15.451  1.00  0.00     0.091 C 
HETATM   15  O2  UNL     1      22.772   7.535  14.710  1.00  0.00    -0.298 OA
ENDBRANCH  12  13
ENDBRANCH  11  12
ENDBRANCH   6  11
BRANCH   1  16
HETATM   16  C2  UNL     1      20.823   6.879   8.272  1.00  0.00     0.005 C 
HETATM   17  C1  UNL     1      20.380   7.889   7.284  1.00  0.00     0.006 C 
ENDBRANCH   1  16
BRANCH   1  18
HETATM   18  C4  UNL     1      18.836   5.591   7.737  1.00  0.00     0.005 C 
HETATM   19  C5  UNL     1      19.092   4.548   6.737  1.00  0.00     0.006 C 
ENDBRANCH   1  18
TORSDOF 6
ENDMDL
MODEL 4
REMARK VINA RESULT: -7.463890234      1.616      1.799
REMARK  6 active torsions:
REMARK  status: ('A' for Active; 'I' for Inactive)
REMARK    1  A    between atoms: C2_2  and  C3_3 
REMARK    2  A    between atoms: C3_3  and  C4_4 
REMARK    3  A    between atoms: C10_10  and  O1_11 
REMARK    4  A    between atoms: C10_10  and  C11_13 
REMARK    5  A    between atoms: C11_13  and  C12_14 
REMARK    6  A    between atoms: C12_14  and  C13_15 
ROOT
HETATM    1  C3  UNL     1      20.844   6.402  12.611  1.00  0.00    -0.041 C 
HETATM    2  C6  UNL     1      19.422   6.622  12.144  1.00  0.00     0.009 C 
HETATM    3  C7  UNL     1      19.177   7.665  11.123  1.00  0.00     0.001 C 
HETATM    4  C8  UNL     1      19.603   9.054  11.451  1.00  0.00     0.003 C 
HETATM    5  C9  UNL     1      20.845   9.484  10.726  1.00  0.00     0.038 C 
HETATM    6  C10 UNL     1      22.042   9.567  11.684  1.00  0.00     0.058 C 
HETATM    7  C15 UNL     1      22.552   8.233  12.083  1.00  0.00     0.038 C 
HETATM    8  C16 UNL     1      21.857   7.019  11.668  1.00  0.00     0.012 C 
ENDROOT
BRANCH   6   9
HETATM    9  O1  UNL     1      21.590  10.340  12.757  1.00  0.00    -0.390 OA
ATOM     10  H1  UNL     1      21.905   9.890  13.532  1.00  0.00     0.210 HD
ENDBRANCH   6   9
BRANCH   6  11
HETATM   11  C11 UNL     1      23.049  10.423  10.948  1.00  0.00     0.045 C 
BRANCH  11  12
HETATM   12  C12 UNL     1      24.478  10.178  11.260  1.00  0.00     0.081 C 
BRANCH  12  13
HETATM   13  C13 UNL     1      25.288  10.814  10.167  1.00  0.00     0.123 C 
HETATM   14  C14 UNL     1      25.268  12.271   9.912  1.00  0.00     0.091 C 
HETATM   15  O2  UNL     1      25.980  10.055   9.482  1.00  0.00    -0.298 OA
ENDBRANCH  12  13
ENDBRANCH  11  12
ENDBRANCH   6  11
BRANCH   1  16
HETATM   16  C2  UNL     1      21.057   6.771  14.025  1.00  0.00     0.005 C 
HETATM   17  C1  UNL     1      20.123   7.687  14.719  1.00  0.00     0.006 C 
ENDBRANCH   1  16
BRANCH   1  18
HETATM   18  C4  UNL     1      21.044   4.912  12.466  1.00  0.00     0.005 C 
HETATM   19  C5  UNL     1      21.058   4.322  11.123  1.00  0.00     0.006 C 
ENDBRANCH   1  18
TORSDOF 6
ENDMDL
MODEL 5
REMARK VINA RESULT: -7.433793414      1.537      2.108
REMARK  6 active torsions:
REMARK  status: ('A' for Active; 'I' for Inactive)
REMARK    1  A    between atoms: C2_2  and  C3_3 
REMARK    2  A    between atoms: C3_3  and  C4_4 
REMARK    3  A    between atoms: C10_10  and  O1_11 
REMARK    4  A    between atoms: C10_10  and  C11_13 
REMARK    5  A    between atoms: C11_13  and  C12_14 
REMARK    6  A    between atoms: C12_14  and  C13_15 
ROOT
HETATM    1  C3  UNL     1      20.430   7.124  11.498  1.00  0.00    -0.041 C 
HETATM    2  C6  UNL     1      20.157   6.567  10.118  1.00  0.00     0.009 C 
HETATM    3  C7  UNL     1      20.733   7.276   8.954  1.00  0.00     0.001 C 
HETATM    4  C8  UNL     1      20.363   8.709   8.777  1.00  0.00     0.003 C 
HETATM    5  C9  UNL     1      21.466   9.659   9.141  1.00  0.00     0.038 C 
HETATM    6  C10 UNL     1      21.151  10.395  10.452  1.00  0.00     0.058 C 
HETATM    7  C15 UNL     1      21.294   9.528  11.647  1.00  0.00     0.038 C 
HETATM    8  C16 UNL     1      21.585   8.106  11.500  1.00  0.00     0.012 C 
ENDROOT
BRANCH   6   9
HETATM    9  O1  UNL     1      19.860  10.901  10.276  1.00  0.00    -0.390 OA
ATOM     10  H1  UNL     1      19.977  11.690   9.759  1.00  0.00     0.210 HD
ENDBRANCH   6   9
BRANCH   6  11
HETATM   11  C11 UNL     1      22.076  11.592  10.438  1.00  0.00     0.045 C 
BRANCH  11  12
HETATM   12  C12 UNL     1      22.942  11.744   9.244  1.00  0.00     0.081 C 
BRANCH  12  13
HETATM   13  C13 UNL     1      23.716  13.019   9.415  1.00  0.00     0.123 C 
HETATM   14  C14 UNL     1      24.803  13.416   8.492  1.00  0.00     0.091 C 
HETATM   15  O2  UNL     1      23.400  13.730  10.373  1.00  0.00    -0.298 OA
ENDBRANCH  12  13
ENDBRANCH  11  12
ENDBRANCH   6  11
BRANCH   1  16
HETATM   16  C2  UNL     1      19.219   7.640  12.168  1.00  0.00     0.005 C 
HETATM   17  C1  UNL     1      18.050   8.092  11.380  1.00  0.00     0.006 C 
ENDBRANCH   1  16
BRANCH   1  18
HETATM   18  C4  UNL     1      20.939   5.932  12.273  1.00  0.00     0.005 C 
HETATM   19  C5  UNL     1      21.066   4.640  11.591  1.00  0.00     0.006 C 
ENDBRANCH   1  18
TORSDOF 6
ENDMDL
