MODEL 1
REMARK VINA RESULT: -8.275281297      0.000      0.000
REMARK  8 active torsions:
REMARK  status: ('A' for Active; 'I' for Inactive)
REMARK    1  A    between atoms: C2_2  and  C3_3 
REMARK    2  A    between atoms: C3_3  and  C4_4 
REMARK    3  A    between atoms: C4_4  and  C5_5 
REMARK    4  A    between atoms: C5_5  and  C6_6 
REMARK    5  A    between atoms: C6_6  and  C7_7 
REMARK    6  A    between atoms: C7_7  and  C8_9 
REMARK    7  A    between atoms: C10_11  and  C11_12 
REMARK    8  A    between atoms: C13_14  and  O2_15 
ROOT
HETATM    1  C8  UNL     1      20.275   6.270  10.364  1.00  0.00     0.016 A 
HETATM    2  C9  UNL     1      20.306   7.617   9.955  1.00  0.00     0.025 A 
HETATM    3  C10 UNL     1      20.476   8.003   8.643  1.00  0.00    -0.024 A 
HETATM    4  C13 UNL     1      20.622   7.002   7.710  1.00  0.00     0.072 A 
HETATM    5  C14 UNL     1      20.599   5.671   8.055  1.00  0.00     0.044 A 
HETATM    6  C15 UNL     1      20.422   5.304   9.408  1.00  0.00    -0.045 A 
HETATM    7  C16 UNL     1      20.411   3.873   9.711  1.00  0.00     0.049 C 
ENDROOT
BRANCH   1   8
HETATM    8  C7  UNL     1      20.083   5.933  11.747  1.00  0.00     0.160 C 
HETATM    9  O1  UNL     1      18.969   6.151  12.295  1.00  0.00    -0.292 OA
BRANCH   8  10
HETATM   10  C6  UNL     1      21.092   5.324  12.658  1.00  0.00     0.084 C 
BRANCH  10  11
HETATM   11  C5  UNL     1      20.887   5.804  14.074  1.00  0.00     0.008 C 
BRANCH  11  12
HETATM   12  C4  UNL     1      21.626   7.087  14.358  1.00  0.00     0.004 C 
BRANCH  12  13
HETATM   13  C3  UNL     1      20.735   8.226  14.701  1.00  0.00     0.026 C 
BRANCH  13  14
HETATM   14  C2  UNL     1      21.525   9.219  15.492  1.00  0.00    -0.037 C 
HETATM   15  C1  UNL     1      22.285  10.155  14.948  1.00  0.00     0.007 C 
ENDBRANCH  13  14
ENDBRANCH  12  13
ENDBRANCH  11  12
ENDBRANCH  10  11
ENDBRANCH   8  10
ENDBRANCH   1   8
BRANCH   3  16
HETATM   16  C11 UNL     1      20.503   9.440   8.261  1.00  0.00     0.037 C 
HETATM   17  C12 UNL     1      21.563  10.209   9.015  1.00  0.00     0.010 C 
ENDBRANCH   3  16
BRANCH   4  18
HETATM   18  O2  UNL     1      20.794   7.406   6.390  1.00  0.00    -0.360 OA
ATOM     19  H2  UNL     1      20.218   7.008   5.748  1.00  0.00     0.217 HD
ENDBRANCH   4  18
TORSDOF 8
ENDMDL
MODEL 2
REMARK VINA RESULT: -8.255030569      1.646      3.627
REMARK  8 active torsions:
REMARK  status: ('A' for Active; 'I' for Inactive)
REMARK    1  A    between atoms: C2_2  and  C3_3 
REMARK    2  A    between atoms: C3_3  and  C4_4 
REMARK    3  A    between atoms: C4_4  and  C5_5 
REMARK    4  A    between atoms: C5_5  and  C6_6 
REMARK    5  A    between atoms: C6_6  and  C7_7 
REMARK    6  A    between atoms: C7_7  and  C8_9 
REMARK    7  A    between atoms: C10_11  and  C11_12 
REMARK    8  A    between atoms: C13_14  and  O2_15 
ROOT
HETATM    1  C8  UNL     1      20.580   7.948   9.990  1.00  0.00     0.016 A 
HETATM    2  C9  UNL     1      20.655   6.672  10.582  1.00  0.00     0.025 A 
HETATM    3  C10 UNL     1      20.646   5.501   9.855  1.00  0.00    -0.024 A 
HETATM    4  C13 UNL     1      20.558   5.616   8.485  1.00  0.00     0.072 A 
HETATM    5  C14 UNL     1      20.482   6.837   7.856  1.00  0.00     0.044 A 
HETATM    6  C15 UNL     1      20.495   8.021   8.628  1.00  0.00    -0.045 A 
HETATM    7  C16 UNL     1      20.407   9.287   7.900  1.00  0.00     0.049 C 
ENDROOT
BRANCH   1   8
HETATM    8  C7  UNL     1      20.605   9.131  10.804  1.00  0.00     0.160 C 
HETATM    9  O1  UNL     1      19.525   9.716  11.090  1.00  0.00    -0.292 OA
BRANCH   8  10
HETATM   10  C6  UNL     1      21.812   9.782  11.382  1.00  0.00     0.084 C 
BRANCH  10  11
HETATM   11  C5  UNL     1      22.290   9.030  12.601  1.00  0.00     0.008 C 
BRANCH  11  12
HETATM   12  C4  UNL     1      21.800   9.649  13.885  1.00  0.00     0.004 C 
BRANCH  12  13
HETATM   13  C3  UNL     1      21.351   8.654  14.894  1.00  0.00     0.026 C 
BRANCH  13  14
HETATM   14  C2  UNL     1      20.367   7.736  14.241  1.00  0.00    -0.037 C 
HETATM   15  C1  UNL     1      20.336   6.429  14.443  1.00  0.00     0.007 C 
ENDBRANCH  13  14
ENDBRANCH  12  13
ENDBRANCH  11  12
ENDBRANCH  10  11
ENDBRANCH   8  10
ENDBRANCH   1   8
BRANCH   3  16
HETATM   16  C11 UNL     1      20.726   4.177  10.526  1.00  0.00     0.037 C 
HETATM   17  C12 UNL     1      21.483   4.248  11.832  1.00  0.00     0.010 C 
ENDBRANCH   3  16
BRANCH   4  18
HETATM   18  O2  UNL     1      20.549   4.427   7.764  1.00  0.00    -0.360 OA
ATOM     19  H2  UNL     1      21.395   4.092   7.491  1.00  0.00     0.217 HD
ENDBRANCH   4  18
TORSDOF 8
ENDMDL
MODEL 3
REMARK VINA RESULT: -8.188975869      1.939      2.568
REMARK  8 active torsions:
REMARK  status: ('A' for Active; 'I' for Inactive)
REMARK    1  A    between atoms: C2_2  and  C3_3 
REMARK    2  A    between atoms: C3_3  and  C4_4 
REMARK    3  A    between atoms: C4_4  and  C5_5 
REMARK    4  A    between atoms: C5_5  and  C6_6 
REMARK    5  A    between atoms: C6_6  and  C7_7 
REMARK    6  A    between atoms: C7_7  and  C8_9 
REMARK    7  A    between atoms: C10_11  and  C11_12 
REMARK    8  A    between atoms: C13_14  and  O2_15 
ROOT
HETATM    1  C8  UNL     1      20.853   6.384  10.933  1.00  0.00     0.016 A 
HETATM    2  C9  UNL     1      20.384   6.836   9.684  1.00  0.00     0.025 A 
HETATM    3  C10 UNL     1      20.015   5.986   8.664  1.00  0.00    -0.024 A 
HETATM    4  C13 UNL     1      20.123   4.635   8.906  1.00  0.00     0.072 A 
HETATM    5  C14 UNL     1      20.574   4.140  10.107  1.00  0.00     0.044 A 
HETATM    6  C15 UNL     1      20.944   5.036  11.135  1.00  0.00    -0.045 A 
HETATM    7  C16 UNL     1      21.421   4.447  12.387  1.00  0.00     0.049 C 
ENDROOT
BRANCH   1   8
HETATM    8  C7  UNL     1      21.211   7.323  11.959  1.00  0.00     0.160 C 
HETATM    9  O1  UNL     1      22.391   7.765  12.018  1.00  0.00    -0.292 OA
BRANCH   8  10
HETATM   10  C6  UNL     1      20.312   7.866  13.014  1.00  0.00     0.084 C 
BRANCH  10  11
HETATM   11  C5  UNL     1      20.839   7.527  14.387  1.00  0.00     0.008 C 
BRANCH  11  12
HETATM   12  C4  UNL     1      21.081   8.755  15.228  1.00  0.00     0.004 C 
BRANCH  12  13
HETATM   13  C3  UNL     1      22.502   9.188  15.257  1.00  0.00     0.026 C 
BRANCH  13  14
HETATM   14  C2  UNL     1      22.569  10.611  14.803  1.00  0.00    -0.037 C 
HETATM   15  C1  UNL     1      22.585  10.977  13.532  1.00  0.00     0.007 C 
ENDBRANCH  13  14
ENDBRANCH  12  13
ENDBRANCH  11  12
ENDBRANCH  10  11
ENDBRANCH   8  10
ENDBRANCH   1   8
BRANCH   3  16
HETATM   16  C11 UNL     1      19.527   6.513   7.362  1.00  0.00     0.037 C 
HETATM   17  C12 UNL     1      20.662   6.907   6.446  1.00  0.00     0.010 C 
ENDBRANCH   3  16
BRANCH   4  18
HETATM   18  O2  UNL     1      19.748   3.789   7.867  1.00  0.00    -0.360 OA
ATOM     19  H2  UNL     1      19.736   2.859   8.063  1.00  0.00     0.217 HD
ENDBRANCH   4  18
TORSDOF 8
ENDMDL
MODEL 4
REMARK VINA RESULT: -8.118512417      0.956      2.518
REMARK  8 active torsions:
REMARK  status: ('A' for Active; 'I' for Inactive)
REMARK    1  A    between atoms: C2_2  and  C3_3 
REMARK    2  A    between atoms: C3_3  and  C4_4 
REMARK    3  A    between atoms: C4_4  and  C5_5 
REMARK    4  A    between atoms: C5_5  and  C6_6 
REMARK    5  A    between atoms: C6_6  and  C7_7 
REMARK    6  A    between atoms: C7_7  and  C8_9 
REMARK    7  A    between atoms: C10_11  and  C11_12 
REMARK    8  A    between atoms: C13_14  and  O2_15 
ROOT
HETATM    1  C8  UNL     1      20.210   6.696  10.668  1.00  0.00     0.016 A 
HETATM    2  C9  UNL     1      20.148   5.880   9.521  1.00  0.00     0.025 A 
HETATM    3  C10 UNL     1      20.321   6.364   8.242  1.00  0.00    -0.024 A 
HETATM    4  C13 UNL     1      20.563   7.713   8.110  1.00  0.00     0.072 A 
HETATM    5  C14 UNL     1      20.635   8.553   9.196  1.00  0.00     0.044 A 
HETATM    6  C15 UNL     1      20.454   8.029  10.496  1.00  0.00    -0.045 A 
HETATM    7  C16 UNL     1      20.537   8.975  11.609  1.00  0.00     0.049 C 
ENDROOT
BRANCH   1   8
HETATM    8  C7  UNL     1      20.031   6.128  11.975  1.00  0.00     0.160 C 
HETATM    9  O1  UNL     1      18.892   6.147  12.515  1.00  0.00    -0.292 OA
BRANCH   8  10
HETATM   10  C6  UNL     1      21.082   5.485  12.811  1.00  0.00     0.084 C 
BRANCH  10  11
HETATM   11  C5  UNL     1      20.963   5.931  14.249  1.00  0.00     0.008 C 
BRANCH  11  12
HETATM   12  C4  UNL     1      21.707   7.215  14.515  1.00  0.00     0.004 C 
BRANCH  12  13
HETATM   13  C3  UNL     1      20.848   8.302  15.050  1.00  0.00     0.026 C 
BRANCH  13  14
HETATM   14  C2  UNL     1      21.724   9.460  15.408  1.00  0.00    -0.037 C 
HETATM   15  C1  UNL     1      23.046   9.416  15.384  1.00  0.00     0.007 C 
ENDBRANCH  13  14
ENDBRANCH  12  13
ENDBRANCH  11  12
ENDBRANCH  10  11
ENDBRANCH   8  10
ENDBRANCH   1   8
BRANCH   3  16
HETATM   16  C11 UNL     1      20.245   5.462   7.062  1.00  0.00     0.037 C 
HETATM   17  C12 UNL     1      18.824   5.058   6.746  1.00  0.00     0.010 C 
ENDBRANCH   3  16
BRANCH   4  18
HETATM   18  O2  UNL     1      20.735   8.187   6.813  1.00  0.00    -0.360 OA
ATOM     19  H2  UNL     1      21.613   8.463   6.577  1.00  0.00     0.217 HD
ENDBRANCH   4  18
TORSDOF 8
ENDMDL
MODEL 5
REMARK VINA RESULT: -8.028178478      2.217      5.334
REMARK  8 active torsions:
REMARK  status: ('A' for Active; 'I' for Inactive)
REMARK    1  A    between atoms: C2_2  and  C3_3 
REMARK    2  A    between atoms: C3_3  and  C4_4 
REMARK    3  A    between atoms: C4_4  and  C5_5 
REMARK    4  A    between atoms: C5_5  and  C6_6 
REMARK    5  A    between atoms: C6_6  and  C7_7 
REMARK    6  A    between atoms: C7_7  and  C8_9 
REMARK    7  A    between atoms: C10_11  and  C11_12 
REMARK    8  A    between atoms: C13_14  and  O2_15 
ROOT
HETATM    1  C8  UNL     1      20.626   8.268  12.292  1.00  0.00     0.016 A 
HETATM    2  C9  UNL     1      21.059   8.870  13.489  1.00  0.00     0.025 A 
HETATM    3  C10 UNL     1      22.157   9.700  13.562  1.00  0.00    -0.024 A 
HETATM    4  C13 UNL     1      22.844   9.933  12.391  1.00  0.00     0.072 A 
HETATM    5  C14 UNL     1      22.463   9.371  11.195  1.00  0.00     0.044 A 
HETATM    6  C15 UNL     1      21.333   8.525  11.151  1.00  0.00    -0.045 A 
HETATM    7  C16 UNL     1      20.982   7.955   9.849  1.00  0.00     0.049 C 
ENDROOT
BRANCH   1   8
HETATM    8  C7  UNL     1      19.467   7.421  12.281  1.00  0.00     0.160 C 
HETATM    9  O1  UNL     1      18.337   7.909  12.005  1.00  0.00    -0.292 OA
BRANCH   8  10
HETATM   10  C6  UNL     1      19.435   5.960  12.568  1.00  0.00     0.084 C 
BRANCH  10  11
HETATM   11  C5  UNL     1      20.836   5.401  12.638  1.00  0.00     0.008 C 
BRANCH  11  12
HETATM   12  C4  UNL     1      21.177   4.557  11.436  1.00  0.00     0.004 C 
BRANCH  12  13
HETATM   13  C3  UNL     1      20.062   4.426  10.463  1.00  0.00     0.026 C 
BRANCH  13  14
HETATM   14  C2  UNL     1      20.648   4.206   9.104  1.00  0.00    -0.037 C 
HETATM   15  C1  UNL     1      20.075   4.608   7.982  1.00  0.00     0.007 C 
ENDBRANCH  13  14
ENDBRANCH  12  13
ENDBRANCH  11  12
ENDBRANCH  10  11
ENDBRANCH   8  10
ENDBRANCH   1   8
BRANCH   3  16
HETATM   16  C11 UNL     1      22.576  10.310  14.851  1.00  0.00     0.037 C 
HETATM   17  C12 UNL     1      23.456   9.385  15.659  1.00  0.00     0.010 C 
ENDBRANCH   3  16
BRANCH   4  18
HETATM   18  O2  UNL     1      23.950  10.772  12.480  1.00  0.00    -0.360 OA
ATOM     19  H2  UNL     1      24.604  10.682  11.796  1.00  0.00     0.217 HD
ENDBRANCH   4  18
TORSDOF 8
ENDMDL
