MODEL 1
REMARK VINA RESULT: -7.707024840      0.000      0.000
REMARK  8 active torsions:
REMARK  status: ('A' for Active; 'I' for Inactive)
REMARK    1  A    between atoms: C2_2  and  C4_4 
REMARK    2  A    between atoms: C4_4  and  C5_5 
REMARK    3  A    between atoms: C5_5  and  C6_6 
REMARK    4  A    between atoms: C5_5  and  C12_15 
REMARK    5  A    between atoms: C6_6  and  C7_7 
REMARK    6  A    between atoms: C10_10  and  C11_11 
REMARK    7  A    between atoms: C11_11  and  O1_12 
REMARK    8  A    between atoms: C12_15  and  C13_16 
ROOT
HETATM    1  C5  UNL     1      20.874   6.599  12.400  1.00  0.00    -0.007 C 
ENDROOT
BRANCH   1   2
HETATM    2  C4  UNL     1      19.375   6.851  12.255  1.00  0.00     0.009 C 
BRANCH   2   3
HETATM    3  C2  UNL     1      19.019   8.280  11.992  1.00  0.00    -0.022 C 
HETATM    4  C1  UNL     1      17.542   8.283  11.608  1.00  0.00     0.009 C 
HETATM    5  C3  UNL     1      19.767   8.912  10.871  1.00  0.00     0.009 C 
ENDBRANCH   2   3
ENDBRANCH   1   2
BRANCH   1   6
HETATM    6  C6  UNL     1      21.093   5.223  11.888  1.00  0.00     0.069 C 
BRANCH   6   7
HETATM    7  C7  UNL     1      20.798   5.029  10.438  1.00  0.00     0.053 A 
HETATM    8  C8  UNL     1      20.461   3.935   9.709  1.00  0.00     0.035 A 
HETATM    9  C9  UNL     1      20.300   4.320   8.393  1.00  0.00     0.037 A 
HETATM   10  C10 UNL     1      20.562   5.680   8.410  1.00  0.00     0.076 A 
HETATM   11  O2  UNL     1      20.847   6.061   9.617  1.00  0.00    -0.317 OA
BRANCH  10  12
HETATM   12  C11 UNL     1      20.512   6.554   7.201  1.00  0.00     0.229 C 
BRANCH  12  13
HETATM   13  O1  UNL     1      21.103   7.791   7.457  1.00  0.00    -0.394 OA
ATOM     14  H1  UNL     1      21.074   8.346   6.686  1.00  0.00     0.209 HD
ENDBRANCH  12  13
ENDBRANCH  10  12
ENDBRANCH   6   7
ENDBRANCH   1   6
BRANCH   1  15
HETATM   15  C12 UNL     1      21.321   6.833  13.776  1.00  0.00     0.013 C 
BRANCH  15  16
HETATM   16  C13 UNL     1      22.127   7.987  14.187  1.00  0.00    -0.051 C 
HETATM   17  C14 UNL     1      21.197   8.995  14.965  1.00  0.00     0.014 C 
HETATM   18  C15 UNL     1      23.246   7.764  15.169  1.00  0.00     0.014 C 
HETATM   19  C16 UNL     1      22.680   8.808  13.049  1.00  0.00     0.014 C 
ENDBRANCH  15  16
ENDBRANCH   1  15
TORSDOF 8
ENDMDL
MODEL 2
REMARK VINA RESULT: -7.700902647      2.382      5.580
REMARK  8 active torsions:
REMARK  status: ('A' for Active; 'I' for Inactive)
REMARK    1  A    between atoms: C2_2  and  C4_4 
REMARK    2  A    between atoms: C4_4  and  C5_5 
REMARK    3  A    between atoms: C5_5  and  C6_6 
REMARK    4  A    between atoms: C5_5  and  C12_15 
REMARK    5  A    between atoms: C6_6  and  C7_7 
REMARK    6  A    between atoms: C10_10  and  C11_11 
REMARK    7  A    between atoms: C11_11  and  O1_12 
REMARK    8  A    between atoms: C12_15  and  C13_16 
ROOT
HETATM    1  C5  UNL     1      20.058   6.789  10.164  1.00  0.00    -0.007 C 
ENDROOT
BRANCH   1   2
HETATM    2  C4  UNL     1      19.808   5.982  11.435  1.00  0.00     0.009 C 
BRANCH   2   3
HETATM    3  C2  UNL     1      21.042   5.706  12.235  1.00  0.00    -0.022 C 
HETATM    4  C1  UNL     1      21.452   4.276  11.899  1.00  0.00     0.009 C 
HETATM    5  C3  UNL     1      20.856   5.776  13.711  1.00  0.00     0.009 C 
ENDBRANCH   2   3
ENDBRANCH   1   2
BRANCH   1   6
HETATM    6  C6  UNL     1      19.755   8.198  10.525  1.00  0.00     0.069 C 
BRANCH   6   7
HETATM    7  C7  UNL     1      20.346   9.227   9.621  1.00  0.00     0.053 A 
HETATM    8  C8  UNL     1      19.939   9.750   8.437  1.00  0.00     0.035 A 
HETATM    9  C9  UNL     1      20.872  10.681   8.026  1.00  0.00     0.037 A 
HETATM   10  C10 UNL     1      21.825  10.662   9.032  1.00  0.00     0.076 A 
HETATM   11  O2  UNL     1      21.487   9.804   9.945  1.00  0.00    -0.317 OA
BRANCH  10  12
HETATM   12  C11 UNL     1      23.050  11.515   9.035  1.00  0.00     0.229 C 
BRANCH  12  13
HETATM   13  O1  UNL     1      24.181  10.759   9.343  1.00  0.00    -0.394 OA
ATOM     14  H1  UNL     1      24.443  10.896  10.246  1.00  0.00     0.209 HD
ENDBRANCH  12  13
ENDBRANCH  10  12
ENDBRANCH   6   7
ENDBRANCH   1   6
BRANCH   1  15
HETATM   15  C12 UNL     1      19.290   6.255   9.036  1.00  0.00     0.013 C 
BRANCH  15  16
HETATM   16  C13 UNL     1      19.897   5.597   7.874  1.00  0.00    -0.051 C 
HETATM   17  C14 UNL     1      18.747   5.155   6.890  1.00  0.00     0.014 C 
HETATM   18  C15 UNL     1      20.787   6.414   6.975  1.00  0.00     0.014 C 
HETATM   19  C16 UNL     1      20.624   4.312   8.184  1.00  0.00     0.014 C 
ENDBRANCH  15  16
ENDBRANCH   1  15
TORSDOF 8
ENDMDL
MODEL 3
REMARK VINA RESULT: -7.682137576      2.760      4.586
REMARK  8 active torsions:
REMARK  status: ('A' for Active; 'I' for Inactive)
REMARK    1  A    between atoms: C2_2  and  C4_4 
REMARK    2  A    between atoms: C4_4  and  C5_5 
REMARK    3  A    between atoms: C5_5  and  C6_6 
REMARK    4  A    between atoms: C5_5  and  C12_15 
REMARK    5  A    between atoms: C6_6  and  C7_7 
REMARK    6  A    between atoms: C10_10  and  C11_11 
REMARK    7  A    between atoms: C11_11  and  O1_12 
REMARK    8  A    between atoms: C12_15  and  C13_16 
ROOT
HETATM    1  C5  UNL     1      20.392   7.786  11.798  1.00  0.00    -0.007 C 
ENDROOT
BRANCH   1   2
HETATM    2  C4  UNL     1      20.933   6.685  10.888  1.00  0.00     0.009 C 
BRANCH   2   3
HETATM    3  C2  UNL     1      20.366   5.329  11.167  1.00  0.00    -0.022 C 
HETATM    4  C1  UNL     1      21.270   4.703  12.225  1.00  0.00     0.009 C 
HETATM    5  C3  UNL     1      20.353   4.407   9.998  1.00  0.00     0.009 C 
ENDBRANCH   2   3
ENDBRANCH   1   2
BRANCH   1   6
HETATM    6  C6  UNL     1      19.736   8.761  10.890  1.00  0.00     0.069 C 
BRANCH   6   7
HETATM    7  C7  UNL     1      20.653   9.748  10.248  1.00  0.00     0.053 A 
HETATM    8  C8  UNL     1      21.201   9.819   9.009  1.00  0.00     0.035 A 
HETATM    9  C9  UNL     1      21.983  10.954   8.941  1.00  0.00     0.037 A 
HETATM   10  C10 UNL     1      21.853  11.522  10.198  1.00  0.00     0.076 A 
HETATM   11  O2  UNL     1      21.070  10.794  10.934  1.00  0.00    -0.317 OA
BRANCH  10  12
HETATM   12  C11 UNL     1      22.526  12.788  10.614  1.00  0.00     0.229 C 
BRANCH  12  13
HETATM   13  O1  UNL     1      21.692  13.547  11.436  1.00  0.00    -0.394 OA
ATOM     14  H1  UNL     1      20.792  13.252  11.367  1.00  0.00     0.209 HD
ENDBRANCH  12  13
ENDBRANCH  10  12
ENDBRANCH   6   7
ENDBRANCH   1   6
BRANCH   1  15
HETATM   15  C12 UNL     1      21.449   8.338  12.649  1.00  0.00     0.013 C 
BRANCH  15  16
HETATM   16  C13 UNL     1      21.425   8.288  14.114  1.00  0.00    -0.051 C 
HETATM   17  C14 UNL     1      22.645   7.417  14.607  1.00  0.00     0.014 C 
HETATM   18  C15 UNL     1      21.625   9.572  14.877  1.00  0.00     0.014 C 
HETATM   19  C16 UNL     1      20.223   7.594  14.704  1.00  0.00     0.014 C 
ENDBRANCH  15  16
ENDBRANCH   1  15
TORSDOF 8
ENDMDL
MODEL 4
REMARK VINA RESULT: -7.620205541      2.603      5.806
REMARK  8 active torsions:
REMARK  status: ('A' for Active; 'I' for Inactive)
REMARK    1  A    between atoms: C2_2  and  C4_4 
REMARK    2  A    between atoms: C4_4  and  C5_5 
REMARK    3  A    between atoms: C5_5  and  C6_6 
REMARK    4  A    between atoms: C5_5  and  C12_15 
REMARK    5  A    between atoms: C6_6  and  C7_7 
REMARK    6  A    between atoms: C10_10  and  C11_11 
REMARK    7  A    between atoms: C11_11  and  O1_12 
REMARK    8  A    between atoms: C12_15  and  C13_16 
ROOT
HETATM    1  C5  UNL     1      19.995   6.857  10.240  1.00  0.00    -0.007 C 
ENDROOT
BRANCH   1   2
HETATM    2  C4  UNL     1      19.770   5.982  11.470  1.00  0.00     0.009 C 
BRANCH   2   3
HETATM    3  C2  UNL     1      21.004   5.733  12.277  1.00  0.00    -0.022 C 
HETATM    4  C1  UNL     1      21.450   4.314  11.939  1.00  0.00     0.009 C 
HETATM    5  C3  UNL     1      20.808   5.794  13.752  1.00  0.00     0.009 C 
ENDBRANCH   2   3
ENDBRANCH   1   2
BRANCH   1   6
HETATM    6  C6  UNL     1      19.628   8.233  10.662  1.00  0.00     0.069 C 
BRANCH   6   7
HETATM    7  C7  UNL     1      20.576   9.303  10.235  1.00  0.00     0.053 A 
HETATM    8  C8  UNL     1      21.116   9.623   9.032  1.00  0.00     0.035 A 
HETATM    9  C9  UNL     1      21.941  10.717   9.201  1.00  0.00     0.037 A 
HETATM   10  C10 UNL     1      21.843  11.001  10.553  1.00  0.00     0.076 A 
HETATM   11  O2  UNL     1      21.039  10.159  11.126  1.00  0.00    -0.317 OA
BRANCH  10  12
HETATM   12  C11 UNL     1      22.568  12.121  11.224  1.00  0.00     0.229 C 
BRANCH  12  13
HETATM   13  O1  UNL     1      21.780  13.271  11.261  1.00  0.00    -0.394 OA
ATOM     14  H1  UNL     1      21.936  13.813  10.497  1.00  0.00     0.209 HD
ENDBRANCH  12  13
ENDBRANCH  10  12
ENDBRANCH   6   7
ENDBRANCH   1   6
BRANCH   1  15
HETATM   15  C12 UNL     1      19.261   6.343   9.081  1.00  0.00     0.013 C 
BRANCH  15  16
HETATM   16  C13 UNL     1      19.901   5.684   7.938  1.00  0.00    -0.051 C 
HETATM   17  C14 UNL     1      18.778   5.221   6.932  1.00  0.00     0.014 C 
HETATM   18  C15 UNL     1      20.800   6.505   7.051  1.00  0.00     0.014 C 
HETATM   19  C16 UNL     1      20.636   4.410   8.272  1.00  0.00     0.014 C 
ENDBRANCH  15  16
ENDBRANCH   1  15
TORSDOF 8
ENDMDL
MODEL 5
REMARK VINA RESULT: -7.523672712      2.911      4.843
REMARK  8 active torsions:
REMARK  status: ('A' for Active; 'I' for Inactive)
REMARK    1  A    between atoms: C2_2  and  C4_4 
REMARK    2  A    between atoms: C4_4  and  C5_5 
REMARK    3  A    between atoms: C5_5  and  C6_6 
REMARK    4  A    between atoms: C5_5  and  C12_15 
REMARK    5  A    between atoms: C6_6  and  C7_7 
REMARK    6  A    between atoms: C10_10  and  C11_11 
REMARK    7  A    between atoms: C11_11  and  O1_12 
REMARK    8  A    between atoms: C12_15  and  C13_16 
ROOT
HETATM    1  C5  UNL     1      21.210   8.589  12.394  1.00  0.00    -0.007 C 
ENDROOT
BRANCH   1   2
HETATM    2  C4  UNL     1      20.461   7.261  12.465  1.00  0.00     0.009 C 
BRANCH   2   3
HETATM    3  C2  UNL     1      21.240   6.154  13.102  1.00  0.00    -0.022 C 
HETATM    4  C1  UNL     1      21.185   4.983  12.126  1.00  0.00     0.009 C 
HETATM    5  C3  UNL     1      20.690   5.672  14.399  1.00  0.00     0.009 C 
ENDBRANCH   2   3
ENDBRANCH   1   2
BRANCH   1   6
HETATM    6  C6  UNL     1      21.555   8.771  10.961  1.00  0.00     0.069 C 
BRANCH   6   7
HETATM    7  C7  UNL     1      22.271  10.038  10.634  1.00  0.00     0.053 A 
HETATM    8  C8  UNL     1      21.885  11.339  10.648  1.00  0.00     0.035 A 
HETATM    9  C9  UNL     1      22.955  12.116  10.251  1.00  0.00     0.037 A 
HETATM   10  C10 UNL     1      23.963  11.197  10.013  1.00  0.00     0.076 A 
HETATM   11  O2  UNL     1      23.531   9.995  10.247  1.00  0.00    -0.317 OA
BRANCH  10  12
HETATM   12  C11 UNL     1      25.336  11.565   9.556  1.00  0.00     0.229 C 
BRANCH  12  13
HETATM   13  O1  UNL     1      26.051  10.431   9.168  1.00  0.00    -0.394 OA
ATOM     14  H1  UNL     1      26.899  10.671   8.814  1.00  0.00     0.209 HD
ENDBRANCH  12  13
ENDBRANCH  10  12
ENDBRANCH   6   7
ENDBRANCH   1   6
BRANCH   1  15
HETATM   15  C12 UNL     1      22.347   8.609  13.318  1.00  0.00     0.013 C 
BRANCH  15  16
HETATM   16  C13 UNL     1      22.387   9.411  14.544  1.00  0.00    -0.051 C 
HETATM   17  C14 UNL     1      23.667   9.001  15.370  1.00  0.00     0.014 C 
HETATM   18  C15 UNL     1      22.556  10.902  14.418  1.00  0.00     0.014 C 
HETATM   19  C16 UNL     1      21.245   9.165  15.499  1.00  0.00     0.014 C 
ENDBRANCH  15  16
ENDBRANCH   1  15
TORSDOF 8
ENDMDL
