MODEL 1
REMARK VINA RESULT: -8.109189435      0.000      0.000
REMARK  3 active torsions:
REMARK  status: ('A' for Active; 'I' for Inactive)
REMARK    1  A    between atoms: C2_7  and  C3_8 
REMARK    2  A    between atoms: C3_8  and  N3_9 
REMARK    3  A    between atoms: C12_22  and  O3_23 
ROOT
HETATM    1  N1  UNL     1      23.427  13.615  10.542  1.00  0.00    -0.384 N 
ATOM      2  H11 UNL     1      24.304  14.062  10.277  1.00  0.00     0.157 HD
ATOM      3  H12 UNL     1      22.825  14.381  10.843  1.00  0.00     0.157 HD
HETATM    4  C1  UNL     1      23.100  12.441  10.528  1.00  0.00     0.129 A 
HETATM    5  N2  UNL     1      21.882  11.821  10.896  1.00  0.00    -0.329 N 
ATOM      6  H2  UNL     1      21.048  12.290  11.248  1.00  0.00     0.168 HD
HETATM    7  C2  UNL     1      22.036  10.418  10.684  1.00  0.00     0.112 A 
HETATM    8  N4  UNL     1      23.205  10.139  10.234  1.00  0.00    -0.340 N 
ATOM      9  H4  UNL     1      23.537   9.201  10.010  1.00  0.00     0.167 HD
HETATM   10  C11 UNL     1      23.970  11.334  10.092  1.00  0.00     0.099 A 
HETATM   11  C12 UNL     1      25.215  11.422   9.655  1.00  0.00     0.164 C 
ENDROOT
BRANCH   7  12
HETATM   12  C3  UNL     1      20.947   9.455  10.967  1.00  0.00     0.348 C 
BRANCH  12  13
HETATM   13  N3  UNL     1      21.146   8.196  10.264  1.00  0.00     0.098 N 
HETATM   14  C4  UNL     1      20.712   7.145  11.124  1.00  0.00     0.275 C 
HETATM   15  C5  UNL     1      20.621   5.796  10.496  1.00  0.00     0.065 C 
HETATM   16  C6  UNL     1      19.844   5.938   9.189  1.00  0.00     0.153 C 
HETATM   17  O1  UNL     1      19.725   4.738   8.523  1.00  0.00    -0.381 OA
HETATM   18  C9  UNL     1      20.600   6.901   8.340  1.00  0.00     0.178 C 
HETATM   19  C7  UNL     1      18.921   4.980   7.408  1.00  0.00     0.194 C 
HETATM   20  C8  UNL     1      19.458   6.024   6.505  1.00  0.00     0.194 C 
HETATM   21  O2  UNL     1      20.322   6.918   7.025  1.00  0.00    -0.379 OA
HETATM   22  C10 UNL     1      20.460   8.274   9.011  1.00  0.00     0.307 C 
ENDBRANCH  12  13
ENDBRANCH   7  12
BRANCH  11  23
HETATM   23  O3  UNL     1      25.873  10.258   9.289  1.00  0.00    -0.370 OA
ATOM     24  H3  UNL     1      26.464   9.855   9.914  1.00  0.00     0.216 HD
ENDBRANCH  11  23
TORSDOF 3
ENDMDL
MODEL 2
REMARK VINA RESULT: -7.875918490      1.366      1.377
REMARK  3 active torsions:
REMARK  status: ('A' for Active; 'I' for Inactive)
REMARK    1  A    between atoms: C2_7  and  C3_8 
REMARK    2  A    between atoms: C3_8  and  N3_9 
REMARK    3  A    between atoms: C12_22  and  O3_23 
ROOT
HETATM    1  N1  UNL     1      24.253  11.758  13.395  1.00  0.00    -0.384 N 
ATOM      2  H11 UNL     1      25.193  12.145  13.318  1.00  0.00     0.157 HD
ATOM      3  H12 UNL     1      23.866  12.177  14.241  1.00  0.00     0.157 HD
HETATM    4  C1  UNL     1      23.661  10.969  12.679  1.00  0.00     0.129 A 
HETATM    5  N2  UNL     1      22.356  10.431  12.787  1.00  0.00    -0.329 N 
ATOM      6  H2  UNL     1      21.677  10.633  13.521  1.00  0.00     0.168 HD
HETATM    7  C2  UNL     1      22.164   9.552  11.678  1.00  0.00     0.112 A 
HETATM    8  N4  UNL     1      23.205   9.510  10.930  1.00  0.00    -0.340 N 
ATOM      9  H4  UNL     1      23.294   8.949  10.083  1.00  0.00     0.167 HD
HETATM   10  C11 UNL     1      24.219  10.363  11.458  1.00  0.00     0.099 A 
HETATM   11  C12 UNL     1      25.421  10.565  10.944  1.00  0.00     0.164 C 
ENDROOT
BRANCH   7  12
HETATM   12  C3  UNL     1      20.899   8.811  11.473  1.00  0.00     0.348 C 
BRANCH  12  13
HETATM   13  N3  UNL     1      21.094   7.637  10.633  1.00  0.00     0.098 N 
HETATM   14  C4  UNL     1      20.567   6.511  11.330  1.00  0.00     0.275 C 
HETATM   15  C5  UNL     1      20.464   5.253  10.536  1.00  0.00     0.065 C 
HETATM   16  C6  UNL     1      19.778   5.588   9.213  1.00  0.00     0.153 C 
HETATM   17  O1  UNL     1      19.654   4.484   8.399  1.00  0.00    -0.381 OA
HETATM   18  C9  UNL     1      20.621   6.611   8.535  1.00  0.00     0.178 C 
HETATM   19  C7  UNL     1      18.932   4.896   7.277  1.00  0.00     0.194 C 
HETATM   20  C8  UNL     1      19.565   6.015   6.542  1.00  0.00     0.194 C 
HETATM   21  O2  UNL     1      20.428   6.799   7.218  1.00  0.00    -0.379 OA
HETATM   22  C10 UNL     1      20.492   7.898   9.361  1.00  0.00     0.307 C 
ENDBRANCH  12  13
ENDBRANCH   7  12
BRANCH  11  23
HETATM   23  O3  UNL     1      25.765   9.898   9.779  1.00  0.00    -0.370 OA
ATOM     24  H3  UNL     1      26.554   9.370   9.774  1.00  0.00     0.216 HD
ENDBRANCH  11  23
TORSDOF 3
ENDMDL
MODEL 3
REMARK VINA RESULT: -7.757588103      1.824      2.100
REMARK  3 active torsions:
REMARK  status: ('A' for Active; 'I' for Inactive)
REMARK    1  A    between atoms: C2_7  and  C3_8 
REMARK    2  A    between atoms: C3_8  and  N3_9 
REMARK    3  A    between atoms: C12_22  and  O3_23 
ROOT
HETATM    1  N1  UNL     1      25.009  10.633  10.854  1.00  0.00    -0.384 N 
ATOM      2  H11 UNL     1      25.457  11.535  10.693  1.00  0.00     0.157 HD
ATOM      3  H12 UNL     1      25.762   9.950  10.773  1.00  0.00     0.157 HD
HETATM    4  C1  UNL     1      23.846  10.358  11.093  1.00  0.00     0.129 A 
HETATM    5  N2  UNL     1      23.225   9.106  11.316  1.00  0.00    -0.329 N 
ATOM      6  H2  UNL     1      23.683   8.195  11.309  1.00  0.00     0.168 HD
HETATM    7  C2  UNL     1      21.839   9.354  11.551  1.00  0.00     0.112 A 
HETATM    8  N4  UNL     1      21.571  10.607  11.492  1.00  0.00    -0.340 N 
ATOM      9  H4  UNL     1      20.646  11.014  11.628  1.00  0.00     0.167 HD
HETATM   10  C11 UNL     1      22.758  11.345  11.209  1.00  0.00     0.099 A 
HETATM   11  C12 UNL     1      22.854  12.658  11.078  1.00  0.00     0.164 C 
ENDROOT
BRANCH   7  12
HETATM   12  C3  UNL     1      20.880   8.258  11.824  1.00  0.00     0.348 C 
BRANCH  12  13
HETATM   13  N3  UNL     1      21.044   7.154  10.889  1.00  0.00     0.098 N 
HETATM   14  C4  UNL     1      20.369   6.022  11.430  1.00  0.00     0.275 C 
HETATM   15  C5  UNL     1      20.228   4.857  10.511  1.00  0.00     0.065 C 
HETATM   16  C6  UNL     1      19.683   5.373   9.180  1.00  0.00     0.153 C 
HETATM   17  O1  UNL     1      19.535   4.365   8.254  1.00  0.00    -0.381 OA
HETATM   18  C9  UNL     1      20.662   6.373   8.671  1.00  0.00     0.178 C 
HETATM   19  C7  UNL     1      18.945   4.941   7.128  1.00  0.00     0.194 C 
HETATM   20  C8  UNL     1      19.728   6.062   6.556  1.00  0.00     0.194 C 
HETATM   21  O2  UNL     1      20.594   6.698   7.369  1.00  0.00    -0.379 OA
HETATM   22  C10 UNL     1      20.573   7.585   9.608  1.00  0.00     0.307 C 
ENDBRANCH  12  13
ENDBRANCH   7  12
BRANCH  11  23
HETATM   23  O3  UNL     1      21.708  13.424  11.224  1.00  0.00    -0.370 OA
ATOM     24  H3  UNL     1      21.638  13.998  11.978  1.00  0.00     0.216 HD
ENDBRANCH  11  23
TORSDOF 3
ENDMDL
MODEL 4
REMARK VINA RESULT: -7.558793286      3.986      4.968
REMARK  3 active torsions:
REMARK  status: ('A' for Active; 'I' for Inactive)
REMARK    1  A    between atoms: C2_7  and  C3_8 
REMARK    2  A    between atoms: C3_8  and  N3_9 
REMARK    3  A    between atoms: C12_22  and  O3_23 
ROOT
HETATM    1  N1  UNL     1      26.373  14.801  11.749  1.00  0.00    -0.384 N 
ATOM      2  H11 UNL     1      27.267  15.215  12.013  1.00  0.00     0.157 HD
ATOM      3  H12 UNL     1      25.805  15.587  11.433  1.00  0.00     0.157 HD
HETATM    4  C1  UNL     1      25.999  13.642  11.777  1.00  0.00     0.129 A 
HETATM    5  N2  UNL     1      24.759  13.067  11.410  1.00  0.00    -0.329 N 
ATOM      6  H2  UNL     1      23.946  13.565  11.047  1.00  0.00     0.168 HD
HETATM    7  C2  UNL     1      24.854  11.662  11.642  1.00  0.00     0.112 A 
HETATM    8  N4  UNL     1      26.007  11.342  12.103  1.00  0.00    -0.340 N 
ATOM      9  H4  UNL     1      26.299  10.394  12.342  1.00  0.00     0.167 HD
HETATM   10  C11 UNL     1      26.820  12.506  12.233  1.00  0.00     0.099 A 
HETATM   11  C12 UNL     1      28.065  12.549  12.676  1.00  0.00     0.164 C 
ENDROOT
BRANCH   7  12
HETATM   12  C3  UNL     1      23.727  10.741  11.364  1.00  0.00     0.348 C 
BRANCH  12  13
HETATM   13  N3  UNL     1      23.414   9.911  12.519  1.00  0.00     0.098 N 
HETATM   14  C4  UNL     1      22.704  10.719  13.455  1.00  0.00     0.275 C 
HETATM   15  C5  UNL     1      22.095   9.989  14.603  1.00  0.00     0.065 C 
HETATM   16  C6  UNL     1      21.321   8.797  14.043  1.00  0.00     0.153 C 
HETATM   17  O1  UNL     1      20.734   8.046  15.038  1.00  0.00    -0.381 OA
HETATM   18  C9  UNL     1      22.300   7.955  13.301  1.00  0.00     0.178 C 
HETATM   19  C7  UNL     1      19.984   7.057  14.399  1.00  0.00     0.194 C 
HETATM   20  C8  UNL     1      20.785   6.193  13.500  1.00  0.00     0.194 C 
HETATM   21  O2  UNL     1      21.946   6.688  13.028  1.00  0.00    -0.379 OA
HETATM   22  C10 UNL     1      22.706   8.757  12.056  1.00  0.00     0.307 C 
ENDBRANCH  12  13
ENDBRANCH   7  12
BRANCH  11  23
HETATM   23  O3  UNL     1      28.673  11.365  13.062  1.00  0.00    -0.370 OA
ATOM     24  H3  UNL     1      29.585  11.387  13.328  1.00  0.00     0.216 HD
ENDBRANCH  11  23
TORSDOF 3
ENDMDL
MODEL 5
REMARK VINA RESULT: -7.546113698      3.773      4.818
REMARK  3 active torsions:
REMARK  status: ('A' for Active; 'I' for Inactive)
REMARK    1  A    between atoms: C2_7  and  C3_8 
REMARK    2  A    between atoms: C3_8  and  N3_9 
REMARK    3  A    between atoms: C12_22  and  O3_23 
ROOT
HETATM    1  N1  UNL     1      27.782  12.021  12.791  1.00  0.00    -0.384 N 
ATOM      2  H11 UNL     1      28.482  12.759  12.864  1.00  0.00     0.157 HD
ATOM      3  H12 UNL     1      28.249  11.183  13.138  1.00  0.00     0.157 HD
HETATM    4  C1  UNL     1      26.632  12.057  12.389  1.00  0.00     0.129 A 
HETATM    5  N2  UNL     1      25.661  11.032  12.287  1.00  0.00    -0.329 N 
ATOM      6  H2  UNL     1      25.785  10.054  12.549  1.00  0.00     0.168 HD
HETATM    7  C2  UNL     1      24.476  11.619  11.751  1.00  0.00     0.112 A 
HETATM    8  N4  UNL     1      24.636  12.871  11.524  1.00  0.00    -0.340 N 
ATOM      9  H4  UNL     1      23.923  13.492  11.141  1.00  0.00     0.167 HD
HETATM   10  C11 UNL     1      25.957  13.267  11.887  1.00  0.00     0.099 A 
HETATM   11  C12 UNL     1      26.468  14.483  11.789  1.00  0.00     0.164 C 
ENDROOT
BRANCH   7  12
HETATM   12  C3  UNL     1      23.247  10.828  11.509  1.00  0.00     0.348 C 
BRANCH  12  13
HETATM   13  N3  UNL     1      23.062   9.798  12.521  1.00  0.00     0.098 N 
HETATM   14  C4  UNL     1      22.298  10.363  13.582  1.00  0.00     0.275 C 
HETATM   15  C5  UNL     1      21.808   9.398  14.607  1.00  0.00     0.065 C 
HETATM   16  C6  UNL     1      21.152   8.228  13.875  1.00  0.00     0.153 C 
HETATM   17  O1  UNL     1      20.682   7.270  14.745  1.00  0.00    -0.381 OA
HETATM   18  C9  UNL     1      22.195   7.630  12.995  1.00  0.00     0.178 C 
HETATM   19  C7  UNL     1      20.026   6.314  13.967  1.00  0.00     0.194 C 
HETATM   20  C8  UNL     1      20.888   5.699  12.931  1.00  0.00     0.194 C 
HETATM   21  O2  UNL     1      21.973   6.389  12.529  1.00  0.00    -0.379 OA
HETATM   22  C10 UNL     1      22.471   8.657  11.889  1.00  0.00     0.307 C 
ENDBRANCH  12  13
ENDBRANCH   7  12
BRANCH  11  23
HETATM   23  O3  UNL     1      25.669  15.499  11.288  1.00  0.00    -0.370 OA
ATOM     24  H3  UNL     1      25.067  15.937  11.878  1.00  0.00     0.216 HD
ENDBRANCH  11  23
TORSDOF 3
ENDMDL
