MODEL 1
REMARK VINA RESULT: -7.740344980      0.000      0.000
REMARK  7 active torsions:
REMARK  status: ('A' for Active; 'I' for Inactive)
REMARK    1  A    between atoms: C2_2  and  C3_3 
REMARK    2  A    between atoms: C3_3  and  C4_4 
REMARK    3  A    between atoms: C4_4  and  C5_5 
REMARK    4  A    between atoms: C5_5  and  C6_6 
REMARK    5  A    between atoms: C6_6  and  C7_8 
REMARK    6  A    between atoms: C12_14  and  C13_15 
REMARK    7  A    between atoms: C13_15  and  C14_16 
ROOT
HETATM    1  C7  UNL     1      20.095   7.600   9.653  1.00  0.00     0.048 A 
HETATM    2  C8  UNL     1      20.358   7.884   8.299  1.00  0.00     0.064 A 
HETATM    3  C9  UNL     1      20.434   9.259   7.682  1.00  0.00     0.077 C 
HETATM    4  O2  UNL     1      20.515   6.736   7.723  1.00  0.00    -0.319 OA
HETATM    5  C10 UNL     1      20.388   5.737   8.534  1.00  0.00     0.056 A 
HETATM    6  C11 UNL     1      20.505   4.278   8.201  1.00  0.00     0.077 C 
HETATM    7  C12 UNL     1      20.110   6.259   9.823  1.00  0.00    -0.012 A 
ENDROOT
BRANCH   1   8
HETATM    8  C6  UNL     1      19.767   8.648  10.575  1.00  0.00     0.162 C 
HETATM    9  O1  UNL     1      18.513   8.984  10.597  1.00  0.00    -0.292 OA
BRANCH   8  10
HETATM   10  C5  UNL     1      20.615   9.402  11.488  1.00  0.00     0.084 C 
BRANCH  10  11
HETATM   11  C4  UNL     1      22.053   8.869  11.468  1.00  0.00     0.008 C 
BRANCH  11  12
HETATM   12  C3  UNL     1      22.524   8.713  12.880  1.00  0.00     0.000 C 
BRANCH  12  13
HETATM   13  C2  UNL     1      21.839   9.627  13.847  1.00  0.00    -0.005 C 
HETATM   14  C1  UNL     1      21.436   8.961  15.131  1.00  0.00     0.005 C 
ENDBRANCH  12  13
ENDBRANCH  11  12
ENDBRANCH  10  11
ENDBRANCH   8  10
ENDBRANCH   1   8
BRANCH   7  15
HETATM   15  C13 UNL     1      19.960   5.381  10.999  1.00  0.00     0.046 C 
BRANCH  15  16
HETATM   16  C14 UNL     1      21.068   5.333  11.970  1.00  0.00    -0.018 C 
HETATM   17  C15 UNL     1      20.743   5.590  13.399  1.00  0.00     0.010 C 
HETATM   18  C16 UNL     1      21.740   3.938  11.933  1.00  0.00     0.010 C 
ENDBRANCH  15  16
ENDBRANCH   7  15
TORSDOF 7
ENDMDL
MODEL 2
REMARK VINA RESULT: -7.599350689      0.976      1.097
REMARK  7 active torsions:
REMARK  status: ('A' for Active; 'I' for Inactive)
REMARK    1  A    between atoms: C2_2  and  C3_3 
REMARK    2  A    between atoms: C3_3  and  C4_4 
REMARK    3  A    between atoms: C4_4  and  C5_5 
REMARK    4  A    between atoms: C5_5  and  C6_6 
REMARK    5  A    between atoms: C6_6  and  C7_8 
REMARK    6  A    between atoms: C12_14  and  C13_15 
REMARK    7  A    between atoms: C13_15  and  C14_16 
ROOT
HETATM    1  C7  UNL     1      20.219   8.347   9.599  1.00  0.00     0.048 A 
HETATM    2  C8  UNL     1      20.491   8.947   8.354  1.00  0.00     0.064 A 
HETATM    3  C9  UNL     1      20.777  10.410   8.121  1.00  0.00     0.077 C 
HETATM    4  O2  UNL     1      20.441   7.990   7.484  1.00  0.00    -0.319 OA
HETATM    5  C10 UNL     1      20.171   6.839   8.008  1.00  0.00     0.056 A 
HETATM    6  C11 UNL     1      20.036   5.526   7.292  1.00  0.00     0.077 C 
HETATM    7  C12 UNL     1      20.016   7.024   9.405  1.00  0.00    -0.012 A 
ENDROOT
BRANCH   1   8
HETATM    8  C6  UNL     1      20.093   9.139  10.787  1.00  0.00     0.162 C 
HETATM    9  O1  UNL     1      18.894   9.578  11.027  1.00  0.00    -0.292 OA
BRANCH   8  10
HETATM   10  C5  UNL     1      21.095   9.540  11.766  1.00  0.00     0.084 C 
BRANCH  10  11
HETATM   11  C4  UNL     1      22.157   8.448  11.942  1.00  0.00     0.008 C 
BRANCH  11  12
HETATM   12  C3  UNL     1      22.451   8.298  13.402  1.00  0.00     0.000 C 
BRANCH  12  13
HETATM   13  C2  UNL     1      21.254   8.488  14.279  1.00  0.00    -0.005 C 
HETATM   14  C1  UNL     1      21.530   9.296  15.515  1.00  0.00     0.005 C 
ENDBRANCH  12  13
ENDBRANCH  11  12
ENDBRANCH  10  11
ENDBRANCH   8  10
ENDBRANCH   1   8
BRANCH   7  15
HETATM   15  C13 UNL     1      19.754   5.892  10.313  1.00  0.00     0.046 C 
BRANCH  15  16
HETATM   16  C14 UNL     1      20.910   5.138  10.829  1.00  0.00    -0.018 C 
HETATM   17  C15 UNL     1      21.026   4.977  12.303  1.00  0.00     0.010 C 
HETATM   18  C16 UNL     1      20.905   3.703  10.246  1.00  0.00     0.010 C 
ENDBRANCH  15  16
ENDBRANCH   7  15
TORSDOF 7
ENDMDL
MODEL 3
REMARK VINA RESULT: -7.486967951      1.595      4.166
REMARK  7 active torsions:
REMARK  status: ('A' for Active; 'I' for Inactive)
REMARK    1  A    between atoms: C2_2  and  C3_3 
REMARK    2  A    between atoms: C3_3  and  C4_4 
REMARK    3  A    between atoms: C4_4  and  C5_5 
REMARK    4  A    between atoms: C5_5  and  C6_6 
REMARK    5  A    between atoms: C6_6  and  C7_8 
REMARK    6  A    between atoms: C12_14  and  C13_15 
REMARK    7  A    between atoms: C13_15  and  C14_16 
ROOT
HETATM    1  C7  UNL     1      20.935   9.012  10.356  1.00  0.00     0.048 A 
HETATM    2  C8  UNL     1      21.395   9.898   9.363  1.00  0.00     0.064 A 
HETATM    3  C9  UNL     1      20.632  10.322   8.133  1.00  0.00     0.077 C 
HETATM    4  O2  UNL     1      22.583  10.255   9.734  1.00  0.00    -0.319 OA
HETATM    5  C10 UNL     1      22.954   9.711  10.847  1.00  0.00     0.056 A 
HETATM    6  C11 UNL     1      24.263   9.903  11.557  1.00  0.00     0.077 C 
HETATM    7  C12 UNL     1      21.897   8.881  11.297  1.00  0.00    -0.012 A 
ENDROOT
BRANCH   1   8
HETATM    8  C6  UNL     1      19.678   8.337  10.215  1.00  0.00     0.162 C 
HETATM    9  O1  UNL     1      18.632   9.083  10.409  1.00  0.00    -0.292 OA
BRANCH   8  10
HETATM   10  C5  UNL     1      19.383   6.947   9.896  1.00  0.00     0.084 C 
BRANCH  10  11
HETATM   11  C4  UNL     1      20.512   6.323   9.066  1.00  0.00     0.008 C 
BRANCH  11  12
HETATM   12  C3  UNL     1      20.808   4.960   9.611  1.00  0.00     0.000 C 
BRANCH  12  13
HETATM   13  C2  UNL     1      20.312   4.750  11.006  1.00  0.00    -0.005 C 
HETATM   14  C1  UNL     1      21.401   4.466  12.001  1.00  0.00     0.005 C 
ENDBRANCH  12  13
ENDBRANCH  11  12
ENDBRANCH  10  11
ENDBRANCH   8  10
ENDBRANCH   1   8
BRANCH   7  15
HETATM   15  C13 UNL     1      21.975   8.151  12.576  1.00  0.00     0.046 C 
BRANCH  15  16
HETATM   16  C14 UNL     1      20.964   8.451  13.605  1.00  0.00    -0.018 C 
HETATM   17  C15 UNL     1      20.295   7.300  14.270  1.00  0.00     0.010 C 
HETATM   18  C16 UNL     1      21.604   9.283  14.744  1.00  0.00     0.010 C 
ENDBRANCH  15  16
ENDBRANCH   7  15
TORSDOF 7
ENDMDL
MODEL 4
REMARK VINA RESULT: -7.419026308      1.635      4.551
REMARK  7 active torsions:
REMARK  status: ('A' for Active; 'I' for Inactive)
REMARK    1  A    between atoms: C2_2  and  C3_3 
REMARK    2  A    between atoms: C3_3  and  C4_4 
REMARK    3  A    between atoms: C4_4  and  C5_5 
REMARK    4  A    between atoms: C5_5  and  C6_6 
REMARK    5  A    between atoms: C6_6  and  C7_8 
REMARK    6  A    between atoms: C12_14  and  C13_15 
REMARK    7  A    between atoms: C13_15  and  C14_16 
ROOT
HETATM    1  C7  UNL     1      20.902   9.079  11.306  1.00  0.00     0.048 A 
HETATM    2  C8  UNL     1      21.399   8.969   9.992  1.00  0.00     0.064 A 
HETATM    3  C9  UNL     1      20.655   8.402   8.809  1.00  0.00     0.077 C 
HETATM    4  O2  UNL     1      22.599   9.451  10.030  1.00  0.00    -0.319 OA
HETATM    5  C10 UNL     1      22.947   9.862  11.206  1.00  0.00     0.056 A 
HETATM    6  C11 UNL     1      24.261  10.470  11.602  1.00  0.00     0.077 C 
HETATM    7  C12 UNL     1      21.856   9.637  12.083  1.00  0.00    -0.012 A 
ENDROOT
BRANCH   1   8
HETATM    8  C6  UNL     1      19.618   8.542  11.654  1.00  0.00     0.162 C 
HETATM    9  O1  UNL     1      18.605   9.176  11.147  1.00  0.00    -0.292 OA
BRANCH   8  10
HETATM   10  C5  UNL     1      19.267   7.404  12.493  1.00  0.00     0.084 C 
BRANCH  10  11
HETATM   11  C4  UNL     1      19.620   6.082  11.800  1.00  0.00     0.008 C 
BRANCH  11  12
HETATM   12  C3  UNL     1      20.836   5.509  12.457  1.00  0.00     0.000 C 
BRANCH  12  13
HETATM   13  C2  UNL     1      21.390   4.309  11.755  1.00  0.00    -0.005 C 
HETATM   14  C1  UNL     1      20.807   4.083  10.389  1.00  0.00     0.005 C 
ENDBRANCH  12  13
ENDBRANCH  11  12
ENDBRANCH  10  11
ENDBRANCH   8  10
ENDBRANCH   1   8
BRANCH   7  15
HETATM   15  C13 UNL     1      21.903  10.046  13.499  1.00  0.00     0.046 C 
BRANCH  15  16
HETATM   16  C14 UNL     1      22.280   9.030  14.499  1.00  0.00    -0.018 C 
HETATM   17  C15 UNL     1      23.395   9.357  15.428  1.00  0.00     0.010 C 
HETATM   18  C16 UNL     1      21.062   8.700  15.398  1.00  0.00     0.010 C 
ENDBRANCH  15  16
ENDBRANCH   7  15
TORSDOF 7
ENDMDL
MODEL 5
REMARK VINA RESULT: -7.404500183      1.911      5.192
REMARK  7 active torsions:
REMARK  status: ('A' for Active; 'I' for Inactive)
REMARK    1  A    between atoms: C2_2  and  C3_3 
REMARK    2  A    between atoms: C3_3  and  C4_4 
REMARK    3  A    between atoms: C4_4  and  C5_5 
REMARK    4  A    between atoms: C5_5  and  C6_6 
REMARK    5  A    between atoms: C6_6  and  C7_8 
REMARK    6  A    between atoms: C12_14  and  C13_15 
REMARK    7  A    between atoms: C13_15  and  C14_16 
ROOT
HETATM    1  C7  UNL     1      20.553   8.477  12.610  1.00  0.00     0.048 A 
HETATM    2  C8  UNL     1      19.615   8.748  11.596  1.00  0.00     0.064 A 
HETATM    3  C9  UNL     1      18.298   8.040  11.396  1.00  0.00     0.077 C 
HETATM    4  O2  UNL     1      20.121   9.712  10.896  1.00  0.00    -0.319 OA
HETATM    5  C10 UNL     1      21.276  10.103  11.329  1.00  0.00     0.056 A 
HETATM    6  C11 UNL     1      22.138  11.190  10.756  1.00  0.00     0.077 C 
HETATM    7  C12 UNL     1      21.603   9.316  12.462  1.00  0.00    -0.012 A 
ENDROOT
BRANCH   1   8
HETATM    8  C6  UNL     1      20.360   7.385  13.519  1.00  0.00     0.162 C 
HETATM    9  O1  UNL     1      19.955   7.727  14.705  1.00  0.00    -0.292 OA
BRANCH   8  10
HETATM   10  C5  UNL     1      20.550   5.954  13.331  1.00  0.00     0.084 C 
BRANCH  10  11
HETATM   11  C4  UNL     1      21.505   5.676  12.162  1.00  0.00     0.008 C 
BRANCH  11  12
HETATM   12  C3  UNL     1      21.238   4.298  11.645  1.00  0.00     0.000 C 
BRANCH  12  13
HETATM   13  C2  UNL     1      20.614   4.277  10.285  1.00  0.00    -0.005 C 
HETATM   14  C1  UNL     1      20.661   5.599   9.575  1.00  0.00     0.005 C 
ENDBRANCH  12  13
ENDBRANCH  11  12
ENDBRANCH  10  11
ENDBRANCH   8  10
ENDBRANCH   1   8
BRANCH   7  15
HETATM   15  C13 UNL     1      22.839   9.544  13.234  1.00  0.00     0.046 C 
BRANCH  15  16
HETATM   16  C14 UNL     1      22.707  10.008  14.627  1.00  0.00    -0.018 C 
HETATM   17  C15 UNL     1      23.499   9.299  15.668  1.00  0.00     0.010 C 
HETATM   18  C16 UNL     1      23.119  11.498  14.725  1.00  0.00     0.010 C 
ENDBRANCH  15  16
ENDBRANCH   7  15
TORSDOF 7
ENDMDL
