MODEL 1
REMARK VINA RESULT: -9.020930424      0.000      0.000
REMARK  17 active torsions:
REMARK  status: ('A' for Active; 'I' for Inactive)
REMARK    1  A    between atoms: N1_1  and  C1_4 
REMARK    2  A    between atoms: N6_16  and  C5_17 
REMARK    3  A    between atoms: C5_17  and  C6_18 
REMARK    4  A    between atoms: C6_18  and  O1_19 
REMARK    5  A    between atoms: C6_18  and  C7_21 
REMARK    6  A    between atoms: C7_21  and  O2_22 
REMARK    7  A    between atoms: C7_21  and  C8_24 
REMARK    8  A    between atoms: C8_24  and  O3_25 
REMARK    9  A    between atoms: C8_24  and  C9_27 
REMARK   10  A    between atoms: C9_27  and  O4_28 
REMARK   11  A    between atoms: O4_28  and  C10_29 
REMARK   12  A    between atoms: C15_35  and  N7_36 
REMARK       I    between atoms: N7_36  and  C16_38 
REMARK   13  A    between atoms: C16_38  and  C17_40 
REMARK   14  A    between atoms: C18_42  and  N8_43 
REMARK       I    between atoms: N8_43  and  C19_45 
REMARK   15  A    between atoms: C19_45  and  C20_47 
REMARK   16  A    between atoms: N10_49  and  N11_50 
REMARK   17  A    between atoms: C21_53  and  N12_54 
ROOT
HETATM    1  C10 UNL     1      11.714  -0.254  -1.072  1.00  0.00     0.137 C 
HETATM    2  C11 UNL     1      12.520   0.870  -0.803  1.00  0.00     0.043 C 
HETATM    3  C12 UNL     1      12.544   2.061  -1.489  1.00  0.00     0.022 C 
HETATM    4  C13 UNL     1      11.630   2.510  -2.442  1.00  0.00     0.061 A 
HETATM    5  C14 UNL     1      11.633   3.879  -2.588  1.00  0.00     0.216 A 
HETATM    6  O5  UNL     1      12.437   4.534  -1.900  1.00  0.00    -0.285 OA
HETATM    7  C15 UNL     1      10.733   4.436  -3.499  1.00  0.00     0.131 A 
HETATM    8  C18 UNL     1       9.861   3.692  -4.244  1.00  0.00     0.141 A 
HETATM    9  N13 UNL     1       9.877   2.336  -4.084  1.00  0.00    -0.326 N 
ATOM     10  H13 UNL     1       9.232   1.770  -4.635  1.00  0.00     0.169 HD
HETATM   11  C22 UNL     1      10.699   1.724  -3.239  1.00  0.00     0.124 A 
HETATM   12  N14 UNL     1      10.602   0.380  -3.179  1.00  0.00    -0.306 N 
ATOM     13  H14 UNL     1      10.036  -0.027  -3.924  1.00  0.00     0.170 HD
HETATM   14  C23 UNL     1      11.113  -0.531  -2.318  1.00  0.00     0.280 C 
HETATM   15  O8  UNL     1      11.070  -1.737  -2.611  1.00  0.00    -0.265 OA
ENDROOT
BRANCH   1  16
HETATM   16  O4  UNL     1      11.553  -1.059  -0.071  1.00  0.00    -0.343 OA
BRANCH  16  17
HETATM   17  C9  UNL     1      11.355  -1.929   0.876  1.00  0.00     0.210 C 
BRANCH  17  18
HETATM   18  C8  UNL     1      12.256  -1.801   2.099  1.00  0.00     0.173 C 
BRANCH  18  19
HETATM   19  C7  UNL     1      11.580  -1.979   3.399  1.00  0.00     0.179 C 
BRANCH  19  20
HETATM   20  C6  UNL     1      11.756  -0.699   4.260  1.00  0.00     0.169 C 
BRANCH  20  21
HETATM   21  C5  UNL     1      10.474   0.074   4.138  1.00  0.00     0.186 C 
BRANCH  21  22
HETATM   22  N6  UNL     1      10.603   1.331   3.468  1.00  0.00    -0.257 N 
HETATM   23  C3  UNL     1      10.120   1.722   2.277  1.00  0.00     0.157 A 
HETATM   24  N3  UNL     1       9.358   1.112   1.365  1.00  0.00    -0.335 N 
HETATM   25  C4  UNL     1      10.549   3.022   2.045  1.00  0.00     0.139 A 
HETATM   26  C2  UNL     1       9.009   1.756   0.224  1.00  0.00     0.183 A 
ATOM     27  H3  UNL     1       9.037   0.157   1.526  1.00  0.00     0.168 HD
HETATM   28  N2  UNL     1       9.444   3.031   0.018  1.00  0.00    -0.337 N 
HETATM   29  C1  UNL     1      10.197   3.697   0.873  1.00  0.00     0.132 A 
ATOM     30  H2  UNL     1       9.172   3.498  -0.848  1.00  0.00     0.168 HD
HETATM   31  N4  UNL     1      11.274   3.383   3.095  1.00  0.00    -0.279 N 
HETATM   32  N5  UNL     1      11.297   2.373   3.932  1.00  0.00    -0.238 N 
ATOM     33  H4  UNL     1      11.732   4.284   3.228  1.00  0.00     0.189 HD
ATOM     34  H5  UNL     1      11.786   2.382   4.827  1.00  0.00     0.208 HD
BRANCH  29  35
HETATM   35  N1  UNL     1      10.602   4.881   0.675  1.00  0.00    -0.383 N 
ATOM     36  H12 UNL     1      11.598   5.068   0.555  1.00  0.00     0.157 HD
ATOM     37  H11 UNL     1       9.980   5.687   0.619  1.00  0.00     0.157 HD
ENDBRANCH  29  35
ENDBRANCH  21  22
ENDBRANCH  20  21
BRANCH  20  38
HETATM   38  O1  UNL     1      12.810   0.030   3.683  1.00  0.00    -0.391 OA
ATOM     39  H1  UNL     1      13.420  -0.564   3.262  1.00  0.00     0.210 HD
ENDBRANCH  20  38
ENDBRANCH  19  20
BRANCH  19  40
HETATM   40  O2  UNL     1      10.186  -2.045   3.204  1.00  0.00    -0.390 OA
ATOM     41  H2  UNL     1      10.018  -2.979   3.160  1.00  0.00     0.210 HD
ENDBRANCH  19  40
ENDBRANCH  18  19
BRANCH  18  42
HETATM   42  O3  UNL     1      13.448  -2.461   1.934  1.00  0.00    -0.391 OA
ATOM     43  H3  UNL     1      13.417  -3.280   1.454  1.00  0.00     0.210 HD
ENDBRANCH  18  42
ENDBRANCH  17  18
ENDBRANCH  16  17
ENDBRANCH   1  16
BRANCH   7  44
HETATM   44  N7  UNL     1      10.724   5.865  -3.646  1.00  0.00    -0.320 N 
HETATM   45  C16 UNL     1       9.951   6.662  -2.739  1.00  0.00     0.236 C 
HETATM   46  O6  UNL     1       9.285   6.135  -1.818  1.00  0.00    -0.272 OA
ATOM     47  H7  UNL     1      11.263   6.310  -4.389  1.00  0.00     0.169 HD
BRANCH  45  48
HETATM   48  C17 UNL     1       9.931   8.130  -2.884  1.00  0.00     0.217 C 
HETATM   49 CL1  UNL     1      11.567   8.716  -2.467  1.00  0.00    -0.121 Cl
ENDBRANCH  45  48
ENDBRANCH   7  44
BRANCH   8  50
HETATM   50  N8  UNL     1       8.967   4.340  -5.149  1.00  0.00    -0.309 N 
HETATM   51  C19 UNL     1       7.592   4.572  -4.882  1.00  0.00     0.247 C 
HETATM   52  O7  UNL     1       7.124   4.192  -3.794  1.00  0.00    -0.271 OA
ATOM     53  H8  UNL     1       9.340   4.658  -6.044  1.00  0.00     0.170 HD
BRANCH  51  54
HETATM   54  C20 UNL     1       6.823   5.263  -5.951  1.00  0.00     0.235 C 
HETATM   55  N9  UNL     1       5.440   4.930  -6.054  1.00  0.00    -0.126 NA
HETATM   56  N10 UNL     1       5.203   6.237  -6.484  1.00  0.00    -0.116 NA
HETATM   57  C21 UNL     1       6.299   6.634  -5.593  1.00  0.00     0.324 C 
BRANCH  56  58
HETATM   58  N11 UNL     1       4.000   6.800  -6.122  1.00  0.00    -0.347 NA
ATOM     59 2H11 UNL     1       3.206   6.198  -6.341  1.00  0.00     0.172 HD
ATOM     60 1H11 UNL     1       3.591   7.470  -6.774  1.00  0.00     0.172 HD
ENDBRANCH  56  58
BRANCH  57  61
HETATM   61  N12 UNL     1       7.095   7.712  -6.125  1.00  0.00    -0.058 N 
ATOM     62 3H12 UNL     1       7.985   7.363  -6.480  1.00  0.00     0.276 HD
ATOM     63 2H12 UNL     1       6.692   8.064  -6.993  1.00  0.00     0.276 HD
ATOM     64 1H12 UNL     1       7.244   8.473  -5.463  1.00  0.00     0.276 HD
ENDBRANCH  57  61
ENDBRANCH  51  54
ENDBRANCH   8  50
TORSDOF 17
ENDMDL
MODEL 2
REMARK VINA RESULT: -8.942804845      1.243      1.361
REMARK  17 active torsions:
REMARK  status: ('A' for Active; 'I' for Inactive)
REMARK    1  A    between atoms: N1_1  and  C1_4 
REMARK    2  A    between atoms: N6_16  and  C5_17 
REMARK    3  A    between atoms: C5_17  and  C6_18 
REMARK    4  A    between atoms: C6_18  and  O1_19 
REMARK    5  A    between atoms: C6_18  and  C7_21 
REMARK    6  A    between atoms: C7_21  and  O2_22 
REMARK    7  A    between atoms: C7_21  and  C8_24 
REMARK    8  A    between atoms: C8_24  and  O3_25 
REMARK    9  A    between atoms: C8_24  and  C9_27 
REMARK   10  A    between atoms: C9_27  and  O4_28 
REMARK   11  A    between atoms: O4_28  and  C10_29 
REMARK   12  A    between atoms: C15_35  and  N7_36 
REMARK       I    between atoms: N7_36  and  C16_38 
REMARK   13  A    between atoms: C16_38  and  C17_40 
REMARK   14  A    between atoms: C18_42  and  N8_43 
REMARK       I    between atoms: N8_43  and  C19_45 
REMARK   15  A    between atoms: C19_45  and  C20_47 
REMARK   16  A    between atoms: N10_49  and  N11_50 
REMARK   17  A    between atoms: C21_53  and  N12_54 
ROOT
HETATM    1  C10 UNL     1      11.534  -0.138  -1.535  1.00  0.00     0.137 C 
HETATM    2  C11 UNL     1      12.413   0.934  -1.285  1.00  0.00     0.043 C 
HETATM    3  C12 UNL     1      12.304   2.226  -1.744  1.00  0.00     0.022 C 
HETATM    4  C13 UNL     1      11.199   2.820  -2.353  1.00  0.00     0.061 A 
HETATM    5  C14 UNL     1      11.206   4.193  -2.261  1.00  0.00     0.216 A 
HETATM    6  O5  UNL     1      12.174   4.730  -1.690  1.00  0.00    -0.285 OA
HETATM    7  C15 UNL     1      10.128   4.886  -2.815  1.00  0.00     0.131 A 
HETATM    8  C18 UNL     1       9.078   4.269  -3.437  1.00  0.00     0.141 A 
HETATM    9  N13 UNL     1       9.093   2.906  -3.518  1.00  0.00    -0.326 N 
ATOM     10  H13 UNL     1       8.317   2.435  -3.981  1.00  0.00     0.169 HD
HETATM   11  C22 UNL     1      10.078   2.170  -3.018  1.00  0.00     0.124 A 
HETATM   12  N14 UNL     1       9.959   0.834  -3.164  1.00  0.00    -0.306 N 
ATOM     13  H14 UNL     1       9.216   0.553  -3.804  1.00  0.00     0.170 HD
HETATM   14  C23 UNL     1      10.638  -0.205  -2.623  1.00  0.00     0.280 C 
HETATM   15  O8  UNL     1      10.489  -1.343  -3.096  1.00  0.00    -0.265 OA
ENDROOT
BRANCH   1  16
HETATM   16  O4  UNL     1      11.599  -1.104  -0.676  1.00  0.00    -0.343 OA
BRANCH  16  17
HETATM   17  C9  UNL     1      11.585  -2.108   0.152  1.00  0.00     0.210 C 
BRANCH  17  18
HETATM   18  C8  UNL     1      12.562  -2.025   1.319  1.00  0.00     0.173 C 
BRANCH  18  19
HETATM   19  C7  UNL     1      11.990  -2.342   2.642  1.00  0.00     0.179 C 
BRANCH  19  20
HETATM   20  C6  UNL     1      10.560  -1.747   2.751  1.00  0.00     0.169 C 
BRANCH  20  21
HETATM   21  C5  UNL     1      10.627  -0.674   3.800  1.00  0.00     0.186 C 
BRANCH  21  22
HETATM   22  N6  UNL     1      11.075   0.597   3.320  1.00  0.00    -0.257 N 
HETATM   23  C3  UNL     1      10.486   1.445   2.462  1.00  0.00     0.157 A 
HETATM   24  N3  UNL     1       9.316   1.415   1.817  1.00  0.00    -0.335 N 
HETATM   25  C4  UNL     1      11.335   2.529   2.278  1.00  0.00     0.139 A 
HETATM   26  C2  UNL     1       8.963   2.431   0.993  1.00  0.00     0.183 A 
ATOM     27  H3  UNL     1       8.685   0.624   1.946  1.00  0.00     0.168 HD
HETATM   28  N2  UNL     1       9.813   3.483   0.827  1.00  0.00    -0.337 N 
HETATM   29  C1  UNL     1      10.983   3.583   1.430  1.00  0.00     0.132 A 
ATOM     30  H2  UNL     1       9.530   4.237   0.201  1.00  0.00     0.168 HD
HETATM   31  N4  UNL     1      12.408   2.311   3.025  1.00  0.00    -0.279 N 
HETATM   32  N5  UNL     1      12.241   1.163   3.639  1.00  0.00    -0.238 N 
ATOM     33  H4  UNL     1      13.218   2.924   3.109  1.00  0.00     0.189 HD
ATOM     34  H5  UNL     1      12.920   0.753   4.281  1.00  0.00     0.208 HD
BRANCH  29  35
HETATM   35  N1  UNL     1      11.772   4.561   1.269  1.00  0.00    -0.383 N 
ATOM     36  H12 UNL     1      12.777   4.401   1.198  1.00  0.00     0.157 HD
ATOM     37  H11 UNL     1      11.461   5.529   1.199  1.00  0.00     0.157 HD
ENDBRANCH  29  35
ENDBRANCH  21  22
ENDBRANCH  20  21
BRANCH  20  38
HETATM   38  O1  UNL     1       9.726  -2.789   3.187  1.00  0.00    -0.391 OA
ATOM     39  H1  UNL     1       9.967  -3.599   2.753  1.00  0.00     0.210 HD
ENDBRANCH  20  38
ENDBRANCH  19  20
BRANCH  19  40
HETATM   40  O2  UNL     1      11.768  -3.730   2.743  1.00  0.00    -0.390 OA
ATOM     41  H2  UNL     1      12.182  -3.956   3.567  1.00  0.00     0.210 HD
ENDBRANCH  19  40
ENDBRANCH  18  19
BRANCH  18  42
HETATM   42  O3  UNL     1      13.772  -2.600   1.021  1.00  0.00    -0.391 OA
ATOM     43  H3  UNL     1      13.874  -2.942   0.141  1.00  0.00     0.210 HD
ENDBRANCH  18  42
ENDBRANCH  17  18
ENDBRANCH  16  17
ENDBRANCH   1  16
BRANCH   7  44
HETATM   44  N7  UNL     1      10.125   6.319  -2.710  1.00  0.00    -0.320 N 
HETATM   45  C16 UNL     1       9.771   6.934  -1.465  1.00  0.00     0.236 C 
HETATM   46  O6  UNL     1       9.466   6.245  -0.463  1.00  0.00    -0.272 OA
ATOM     47  H7  UNL     1      10.374   6.894  -3.515  1.00  0.00     0.169 HD
BRANCH  45  48
HETATM   48  C17 UNL     1       9.761   8.405  -1.348  1.00  0.00     0.217 C 
HETATM   49 CL1  UNL     1      11.051   8.844  -0.191  1.00  0.00    -0.121 Cl
ENDBRANCH  45  48
ENDBRANCH   7  44
BRANCH   8  50
HETATM   50  N8  UNL     1       8.010   5.051  -3.971  1.00  0.00    -0.309 N 
HETATM   51  C19 UNL     1       7.631   5.055  -5.338  1.00  0.00     0.247 C 
HETATM   52  O7  UNL     1       8.261   4.335  -6.133  1.00  0.00    -0.271 OA
ATOM     53  H8  UNL     1       7.485   5.645  -3.328  1.00  0.00     0.170 HD
BRANCH  51  54
HETATM   54  C20 UNL     1       6.492   5.939  -5.702  1.00  0.00     0.235 C 
HETATM   55  N9  UNL     1       5.217   5.313  -5.826  1.00  0.00    -0.126 NA
HETATM   56  N10 UNL     1       4.638   6.501  -5.374  1.00  0.00    -0.116 NA
HETATM   57  C21 UNL     1       5.840   6.667  -4.550  1.00  0.00     0.324 C 
BRANCH  56  58
HETATM   58  N11 UNL     1       3.493   6.384  -4.619  1.00  0.00    -0.347 NA
ATOM     59 2H11 UNL     1       2.727   5.951  -5.135  1.00  0.00     0.172 HD
ATOM     60 1H11 UNL     1       2.899   7.211  -4.554  1.00  0.00     0.172 HD
ENDBRANCH  56  58
BRANCH  57  61
HETATM   61  N12 UNL     1       6.254   8.044  -4.430  1.00  0.00    -0.058 N 
ATOM     62 3H12 UNL     1       6.878   8.301  -5.195  1.00  0.00     0.276 HD
ATOM     63 2H12 UNL     1       5.476   8.673  -4.625  1.00  0.00     0.276 HD
ATOM     64 1H12 UNL     1       6.679   8.264  -3.529  1.00  0.00     0.276 HD
ENDBRANCH  57  61
ENDBRANCH  51  54
ENDBRANCH   8  50
TORSDOF 17
ENDMDL
MODEL 3
REMARK VINA RESULT: -8.878858002      3.323      4.903
REMARK  17 active torsions:
REMARK  status: ('A' for Active; 'I' for Inactive)
REMARK    1  A    between atoms: N1_1  and  C1_4 
REMARK    2  A    between atoms: N6_16  and  C5_17 
REMARK    3  A    between atoms: C5_17  and  C6_18 
REMARK    4  A    between atoms: C6_18  and  O1_19 
REMARK    5  A    between atoms: C6_18  and  C7_21 
REMARK    6  A    between atoms: C7_21  and  O2_22 
REMARK    7  A    between atoms: C7_21  and  C8_24 
REMARK    8  A    between atoms: C8_24  and  O3_25 
REMARK    9  A    between atoms: C8_24  and  C9_27 
REMARK   10  A    between atoms: C9_27  and  O4_28 
REMARK   11  A    between atoms: O4_28  and  C10_29 
REMARK   12  A    between atoms: C15_35  and  N7_36 
REMARK       I    between atoms: N7_36  and  C16_38 
REMARK   13  A    between atoms: C16_38  and  C17_40 
REMARK   14  A    between atoms: C18_42  and  N8_43 
REMARK       I    between atoms: N8_43  and  C19_45 
REMARK   15  A    between atoms: C19_45  and  C20_47 
REMARK   16  A    between atoms: N10_49  and  N11_50 
REMARK   17  A    between atoms: C21_53  and  N12_54 
ROOT
HETATM    1  C10 UNL     1      11.586   0.380   1.694  1.00  0.00     0.137 C 
HETATM    2  C11 UNL     1      11.592   1.691   2.210  1.00  0.00     0.043 C 
HETATM    3  C12 UNL     1      11.572   2.867   1.498  1.00  0.00     0.022 C 
HETATM    4  C13 UNL     1      11.310   3.031   0.138  1.00  0.00     0.061 A 
HETATM    5  C14 UNL     1      10.892   4.303  -0.181  1.00  0.00     0.216 A 
HETATM    6  O5  UNL     1      10.824   5.138   0.740  1.00  0.00    -0.285 OA
HETATM    7  C15 UNL     1      10.575   4.568  -1.515  1.00  0.00     0.131 A 
HETATM    8  C18 UNL     1      10.660   3.630  -2.507  1.00  0.00     0.141 A 
HETATM    9  N13 UNL     1      11.078   2.375  -2.168  1.00  0.00    -0.326 N 
ATOM     10  H13 UNL     1      11.148   1.668  -2.899  1.00  0.00     0.169 HD
HETATM   11  C22 UNL     1      11.399   2.038  -0.924  1.00  0.00     0.124 A 
HETATM   12  N14 UNL     1      11.790   0.762  -0.733  1.00  0.00    -0.306 N 
ATOM     13  H14 UNL     1      11.971   0.251  -1.597  1.00  0.00     0.170 HD
HETATM   14  C23 UNL     1      11.988   0.029   0.388  1.00  0.00     0.280 C 
HETATM   15  O8  UNL     1      12.574  -1.063   0.308  1.00  0.00    -0.265 OA
ENDROOT
BRANCH   1  16
HETATM   16  O4  UNL     1      11.178  -0.527   2.523  1.00  0.00    -0.343 OA
BRANCH  16  17
HETATM   17  C9  UNL     1      10.681  -1.413   3.335  1.00  0.00     0.210 C 
BRANCH  17  18
HETATM   18  C8  UNL     1      11.341  -2.787   3.310  1.00  0.00     0.173 C 
BRANCH  18  19
HETATM   19  C7  UNL     1      12.503  -2.943   4.205  1.00  0.00     0.179 C 
BRANCH  19  20
HETATM   20  C6  UNL     1      13.376  -4.136   3.729  1.00  0.00     0.169 C 
BRANCH  20  21
HETATM   21  C5  UNL     1      13.639  -3.911   2.267  1.00  0.00     0.186 C 
BRANCH  21  22
HETATM   22  N6  UNL     1      13.110  -4.924   1.407  1.00  0.00    -0.257 N 
HETATM   23  C3  UNL     1      12.324  -4.805   0.325  1.00  0.00     0.157 A 
HETATM   24  N3  UNL     1      11.818  -3.747  -0.315  1.00  0.00    -0.335 N 
HETATM   25  C4  UNL     1      12.044  -6.082  -0.145  1.00  0.00     0.139 A 
HETATM   26  C2  UNL     1      11.038  -3.919  -1.411  1.00  0.00     0.183 A 
ATOM     27  H3  UNL     1      12.019  -2.805   0.021  1.00  0.00     0.168 HD
HETATM   28  N2  UNL     1      10.775  -5.181  -1.852  1.00  0.00    -0.337 N 
HETATM   29  C1  UNL     1      11.241  -6.273  -1.273  1.00  0.00     0.132 A 
ATOM     30  H2  UNL     1      10.185  -5.290  -2.676  1.00  0.00     0.168 HD
HETATM   31  N4  UNL     1      12.664  -6.934   0.659  1.00  0.00    -0.279 N 
HETATM   32  N5  UNL     1      13.293  -6.235   1.574  1.00  0.00    -0.238 N 
ATOM     33  H4  UNL     1      12.653  -7.951   0.580  1.00  0.00     0.189 HD
ATOM     34  H5  UNL     1      13.854  -6.644   2.322  1.00  0.00     0.208 HD
BRANCH  29  35
HETATM   35  N1  UNL     1      10.990  -7.444  -1.684  1.00  0.00    -0.383 N 
ATOM     36  H12 UNL     1      10.323  -8.031  -1.182  1.00  0.00     0.157 HD
ATOM     37  H11 UNL     1      11.419  -7.853  -2.514  1.00  0.00     0.157 HD
ENDBRANCH  29  35
ENDBRANCH  21  22
ENDBRANCH  20  21
BRANCH  20  38
HETATM   38  O1  UNL     1      12.599  -5.294   3.901  1.00  0.00    -0.391 OA
ATOM     39  H1  UNL     1      11.688  -5.103   3.707  1.00  0.00     0.210 HD
ENDBRANCH  20  38
ENDBRANCH  19  20
BRANCH  19  40
HETATM   40  O2  UNL     1      13.365  -1.838   4.062  1.00  0.00    -0.390 OA
ATOM     41  H2  UNL     1      14.225  -2.239   4.007  1.00  0.00     0.210 HD
ENDBRANCH  19  40
ENDBRANCH  18  19
BRANCH  18  42
HETATM   42  O3  UNL     1      10.419  -3.804   3.321  1.00  0.00    -0.391 OA
ATOM     43  H3  UNL     1       9.522  -3.561   3.518  1.00  0.00     0.210 HD
ENDBRANCH  18  42
ENDBRANCH  17  18
ENDBRANCH  16  17
ENDBRANCH   1  16
BRANCH   7  44
HETATM   44  N7  UNL     1      10.127   5.891  -1.850  1.00  0.00    -0.320 N 
HETATM   45  C16 UNL     1      11.058   6.831  -2.402  1.00  0.00     0.236 C 
HETATM   46  O6  UNL     1      12.255   6.519  -2.602  1.00  0.00    -0.272 OA
ATOM     47  H7  UNL     1       9.156   6.160  -1.696  1.00  0.00     0.169 HD
BRANCH  45  48
HETATM   48  C17 UNL     1      10.609   8.194  -2.746  1.00  0.00     0.217 C 
HETATM   49 CL1  UNL     1      12.018   9.046  -3.442  1.00  0.00    -0.121 Cl
ENDBRANCH  45  48
ENDBRANCH   7  44
BRANCH   8  50
HETATM   50  N8  UNL     1      10.310   3.980  -3.846  1.00  0.00    -0.309 N 
HETATM   51  C19 UNL     1       9.305   3.323  -4.603  1.00  0.00     0.247 C 
HETATM   52  O7  UNL     1       8.681   2.384  -4.079  1.00  0.00    -0.271 OA
ATOM     53  H8  UNL     1      10.813   4.750  -4.286  1.00  0.00     0.170 HD
BRANCH  51  54
HETATM   54  C20 UNL     1       9.086   3.832  -5.983  1.00  0.00     0.235 C 
HETATM   55  N9  UNL     1       7.739   4.140  -6.341  1.00  0.00    -0.126 NA
HETATM   56  N10 UNL     1       8.235   5.151  -7.166  1.00  0.00    -0.116 NA
HETATM   57  C21 UNL     1       9.301   5.316  -6.172  1.00  0.00     0.324 C 
BRANCH  56  58
HETATM   58  N11 UNL     1       7.459   6.280  -7.298  1.00  0.00    -0.347 NA
ATOM     59 2H11 UNL     1       7.982   7.137  -7.117  1.00  0.00     0.172 HD
ATOM     60 1H11 UNL     1       6.882   6.537  -6.497  1.00  0.00     0.172 HD
ENDBRANCH  56  58
BRANCH  57  61
HETATM   61  N12 UNL     1      10.576   5.642  -6.762  1.00  0.00    -0.058 N 
ATOM     62 3H12 UNL     1      11.115   6.250  -6.144  1.00  0.00     0.276 HD
ATOM     63 2H12 UNL     1      11.188   4.827  -6.773  1.00  0.00     0.276 HD
ATOM     64 1H12 UNL     1      10.501   6.050  -7.694  1.00  0.00     0.276 HD
ENDBRANCH  57  61
ENDBRANCH  51  54
ENDBRANCH   8  50
TORSDOF 17
ENDMDL
MODEL 4
REMARK VINA RESULT: -8.785469957      3.244      5.025
REMARK  17 active torsions:
REMARK  status: ('A' for Active; 'I' for Inactive)
REMARK    1  A    between atoms: N1_1  and  C1_4 
REMARK    2  A    between atoms: N6_16  and  C5_17 
REMARK    3  A    between atoms: C5_17  and  C6_18 
REMARK    4  A    between atoms: C6_18  and  O1_19 
REMARK    5  A    between atoms: C6_18  and  C7_21 
REMARK    6  A    between atoms: C7_21  and  O2_22 
REMARK    7  A    between atoms: C7_21  and  C8_24 
REMARK    8  A    between atoms: C8_24  and  O3_25 
REMARK    9  A    between atoms: C8_24  and  C9_27 
REMARK   10  A    between atoms: C9_27  and  O4_28 
REMARK   11  A    between atoms: O4_28  and  C10_29 
REMARK   12  A    between atoms: C15_35  and  N7_36 
REMARK       I    between atoms: N7_36  and  C16_38 
REMARK   13  A    between atoms: C16_38  and  C17_40 
REMARK   14  A    between atoms: C18_42  and  N8_43 
REMARK       I    between atoms: N8_43  and  C19_45 
REMARK   15  A    between atoms: C19_45  and  C20_47 
REMARK   16  A    between atoms: N10_49  and  N11_50 
REMARK   17  A    between atoms: C21_53  and  N12_54 
ROOT
HETATM    1  C10 UNL     1      11.282   0.626   1.371  1.00  0.00     0.137 C 
HETATM    2  C11 UNL     1      12.208   0.456   0.323  1.00  0.00     0.043 C 
HETATM    3  C12 UNL     1      12.118   0.950  -0.957  1.00  0.00     0.022 C 
HETATM    4  C13 UNL     1      11.224   1.908  -1.436  1.00  0.00     0.061 A 
HETATM    5  C14 UNL     1      11.669   2.536  -2.578  1.00  0.00     0.216 A 
HETATM    6  O5  UNL     1      12.761   2.173  -3.050  1.00  0.00    -0.285 OA
HETATM    7  C15 UNL     1      10.861   3.535  -3.125  1.00  0.00     0.131 A 
HETATM    8  C18 UNL     1       9.663   3.913  -2.584  1.00  0.00     0.141 A 
HETATM    9  N13 UNL     1       9.242   3.275  -1.453  1.00  0.00    -0.326 N 
ATOM     10  H13 UNL     1       8.349   3.547  -1.041  1.00  0.00     0.169 HD
HETATM   11  C22 UNL     1       9.947   2.315  -0.867  1.00  0.00     0.124 A 
HETATM   12  N14 UNL     1       9.413   1.777   0.249  1.00  0.00    -0.306 N 
ATOM     13  H14 UNL     1       8.441   2.042   0.410  1.00  0.00     0.170 HD
HETATM   14  C23 UNL     1       9.921   0.953   1.195  1.00  0.00     0.280 C 
HETATM   15  O8  UNL     1       9.154   0.410   2.007  1.00  0.00    -0.265 OA
ENDROOT
BRANCH   1  16
HETATM   16  O4  UNL     1      11.769   0.453   2.558  1.00  0.00    -0.343 OA
BRANCH  16  17
HETATM   17  C9  UNL     1      12.326   0.227   3.712  1.00  0.00     0.210 C 
BRANCH  17  18
HETATM   18  C8  UNL     1      11.716  -0.899   4.539  1.00  0.00     0.173 C 
BRANCH  18  19
HETATM   19  C7  UNL     1      12.390  -2.206   4.416  1.00  0.00     0.179 C 
BRANCH  19  20
HETATM   20  C6  UNL     1      11.715  -3.041   3.293  1.00  0.00     0.169 C 
BRANCH  20  21
HETATM   21  C5  UNL     1      12.705  -3.111   2.166  1.00  0.00     0.186 C 
BRANCH  21  22
HETATM   22  N6  UNL     1      12.186  -3.674   0.957  1.00  0.00    -0.257 N 
HETATM   23  C3  UNL     1      12.164  -4.952   0.547  1.00  0.00     0.157 A 
HETATM   24  N3  UNL     1      12.568  -6.093   1.113  1.00  0.00    -0.335 N 
HETATM   25  C4  UNL     1      11.591  -4.987  -0.718  1.00  0.00     0.139 A 
HETATM   26  C2  UNL     1      12.420  -7.271   0.459  1.00  0.00     0.183 A 
ATOM     27  H3  UNL     1      12.989  -6.077   2.042  1.00  0.00     0.168 HD
HETATM   28  N2  UNL     1      11.856  -7.280  -0.782  1.00  0.00    -0.337 N 
HETATM   29  C1  UNL     1      11.433  -6.195  -1.403  1.00  0.00     0.132 A 
ATOM     30  H2  UNL     1      11.756  -8.176  -1.258  1.00  0.00     0.168 HD
HETATM   31  N4  UNL     1      11.281  -3.738  -1.037  1.00  0.00    -0.279 N 
HETATM   32  N5  UNL     1      11.638  -2.969  -0.035  1.00  0.00    -0.238 N 
ATOM     33  H4  UNL     1      10.845  -3.430  -1.906  1.00  0.00     0.189 HD
ATOM     34  H5  UNL     1      11.512  -1.957  -0.017  1.00  0.00     0.208 HD
BRANCH  29  35
HETATM   35  N1  UNL     1      10.914  -6.208  -2.559  1.00  0.00    -0.383 N 
ATOM     36  H12 UNL     1      10.920  -7.065  -3.113  1.00  0.00     0.157 HD
ATOM     37  H11 UNL     1      10.471  -5.395  -2.986  1.00  0.00     0.157 HD
ENDBRANCH  29  35
ENDBRANCH  21  22
ENDBRANCH  20  21
BRANCH  20  38
HETATM   38  O1  UNL     1      10.580  -2.320   2.888  1.00  0.00    -0.391 OA
ATOM     39  H1  UNL     1      10.350  -1.679   3.550  1.00  0.00     0.210 HD
ENDBRANCH  20  38
ENDBRANCH  19  20
BRANCH  19  40
HETATM   40  O2  UNL     1      13.701  -2.020   3.934  1.00  0.00    -0.390 OA
ATOM     41  H2  UNL     1      14.085  -2.886   4.013  1.00  0.00     0.210 HD
ENDBRANCH  19  40
ENDBRANCH  18  19
BRANCH  18  42
HETATM   42  O3  UNL     1      11.396  -0.492   5.810  1.00  0.00    -0.391 OA
ATOM     43  H3  UNL     1      11.237   0.437   5.930  1.00  0.00     0.210 HD
ENDBRANCH  18  42
ENDBRANCH  17  18
ENDBRANCH  16  17
ENDBRANCH   1  16
BRANCH   7  44
HETATM   44  N7  UNL     1      11.326   4.201  -4.310  1.00  0.00    -0.320 N 
HETATM   45  C16 UNL     1      10.991   3.665  -5.597  1.00  0.00     0.236 C 
HETATM   46  O6  UNL     1      10.297   2.629  -5.708  1.00  0.00    -0.272 OA
ATOM     47  H7  UNL     1      11.890   5.048  -4.237  1.00  0.00     0.169 HD
BRANCH  45  48
HETATM   48  C17 UNL     1      11.468   4.340  -6.820  1.00  0.00     0.217 C 
HETATM   49 CL1  UNL     1      12.728   3.293  -7.534  1.00  0.00    -0.121 Cl
ENDBRANCH  45  48
ENDBRANCH   7  44
BRANCH   8  50
HETATM   50  N8  UNL     1       8.901   4.950  -3.202  1.00  0.00    -0.309 N 
HETATM   51  C19 UNL     1       7.511   4.863  -3.474  1.00  0.00     0.247 C 
HETATM   52  O7  UNL     1       6.906   3.823  -3.158  1.00  0.00    -0.271 OA
ATOM     53  H8  UNL     1       9.386   5.808  -3.464  1.00  0.00     0.170 HD
BRANCH  51  54
HETATM   54  C20 UNL     1       6.894   6.049  -4.125  1.00  0.00     0.235 C 
HETATM   55  N9  UNL     1       7.649   6.667  -5.165  1.00  0.00    -0.126 NA
HETATM   56  N10 UNL     1       6.443   7.002  -5.783  1.00  0.00    -0.116 NA
HETATM   57  C21 UNL     1       5.918   5.745  -5.238  1.00  0.00     0.324 C 
BRANCH  56  58
HETATM   58  N11 UNL     1       6.436   7.024  -7.159  1.00  0.00    -0.347 NA
ATOM     59 2H11 UNL     1       5.497   6.925  -7.546  1.00  0.00     0.172 HD
ATOM     60 1H11 UNL     1       6.656   6.148  -7.634  1.00  0.00     0.172 HD
ENDBRANCH  56  58
BRANCH  57  61
HETATM   61  N12 UNL     1       4.536   5.839  -4.835  1.00  0.00    -0.058 N 
ATOM     62 3H12 UNL     1       4.418   5.517  -3.874  1.00  0.00     0.276 HD
ATOM     63 2H12 UNL     1       4.259   6.814  -4.723  1.00  0.00     0.276 HD
ATOM     64 1H12 UNL     1       3.896   5.352  -5.461  1.00  0.00     0.276 HD
ENDBRANCH  57  61
ENDBRANCH  51  54
ENDBRANCH   8  50
TORSDOF 17
ENDMDL
MODEL 5
REMARK VINA RESULT: -8.780734061      1.486      1.846
REMARK  17 active torsions:
REMARK  status: ('A' for Active; 'I' for Inactive)
REMARK    1  A    between atoms: N1_1  and  C1_4 
REMARK    2  A    between atoms: N6_16  and  C5_17 
REMARK    3  A    between atoms: C5_17  and  C6_18 
REMARK    4  A    between atoms: C6_18  and  O1_19 
REMARK    5  A    between atoms: C6_18  and  C7_21 
REMARK    6  A    between atoms: C7_21  and  O2_22 
REMARK    7  A    between atoms: C7_21  and  C8_24 
REMARK    8  A    between atoms: C8_24  and  O3_25 
REMARK    9  A    between atoms: C8_24  and  C9_27 
REMARK   10  A    between atoms: C9_27  and  O4_28 
REMARK   11  A    between atoms: O4_28  and  C10_29 
REMARK   12  A    between atoms: C15_35  and  N7_36 
REMARK       I    between atoms: N7_36  and  C16_38 
REMARK   13  A    between atoms: C16_38  and  C17_40 
REMARK   14  A    between atoms: C18_42  and  N8_43 
REMARK       I    between atoms: N8_43  and  C19_45 
REMARK   15  A    between atoms: C19_45  and  C20_47 
REMARK   16  A    between atoms: N10_49  and  N11_50 
REMARK   17  A    between atoms: C21_53  and  N12_54 
ROOT
HETATM    1  C10 UNL     1      11.545  -0.517  -1.036  1.00  0.00     0.137 C 
HETATM    2  C11 UNL     1      12.202   0.599  -0.483  1.00  0.00     0.043 C 
HETATM    3  C12 UNL     1      12.048   1.918  -0.838  1.00  0.00     0.022 C 
HETATM    4  C13 UNL     1      11.053   2.468  -1.647  1.00  0.00     0.061 A 
HETATM    5  C14 UNL     1      10.870   3.816  -1.436  1.00  0.00     0.216 A 
HETATM    6  O5  UNL     1      11.602   4.375  -0.598  1.00  0.00    -0.285 OA
HETATM    7  C15 UNL     1       9.877   4.460  -2.176  1.00  0.00     0.131 A 
HETATM    8  C18 UNL     1       9.088   3.820  -3.091  1.00  0.00     0.141 A 
HETATM    9  N13 UNL     1       9.289   2.483  -3.286  1.00  0.00    -0.326 N 
ATOM     10  H13 UNL     1       8.708   1.995  -3.967  1.00  0.00     0.169 HD
HETATM   11  C22 UNL     1      10.210   1.793  -2.624  1.00  0.00     0.124 A 
HETATM   12  N14 UNL     1      10.293   0.478  -2.912  1.00  0.00    -0.306 N 
ATOM     13  H14 UNL     1       9.763   0.202  -3.739  1.00  0.00     0.170 HD
HETATM   14  C23 UNL     1      10.947  -0.545  -2.314  1.00  0.00     0.280 C 
HETATM   15  O8  UNL     1      11.054  -1.630  -2.907  1.00  0.00    -0.265 OA
ENDROOT
BRANCH   1  16
HETATM   16  O4  UNL     1      11.523  -1.565  -0.276  1.00  0.00    -0.343 OA
BRANCH  16  17
HETATM   17  C9  UNL     1      11.544  -2.568   0.552  1.00  0.00     0.210 C 
BRANCH  17  18
HETATM   18  C8  UNL     1      12.642  -2.536   1.610  1.00  0.00     0.173 C 
BRANCH  18  19
HETATM   19  C7  UNL     1      12.296  -3.172   2.896  1.00  0.00     0.179 C 
BRANCH  19  20
HETATM   20  C6  UNL     1      11.983  -2.079   3.953  1.00  0.00     0.169 C 
BRANCH  20  21
HETATM   21  C5  UNL     1      12.442  -0.776   3.365  1.00  0.00     0.186 C 
BRANCH  21  22
HETATM   22  N6  UNL     1      11.385   0.128   3.029  1.00  0.00    -0.257 N 
HETATM   23  C3  UNL     1      11.414   1.462   2.876  1.00  0.00     0.157 A 
HETATM   24  N3  UNL     1      12.400   2.361   2.945  1.00  0.00    -0.335 N 
HETATM   25  C4  UNL     1      10.123   1.889   2.591  1.00  0.00     0.139 A 
HETATM   26  C2  UNL     1      12.142   3.676   2.740  1.00  0.00     0.183 A 
ATOM     27  H3  UNL     1      13.351   2.057   3.153  1.00  0.00     0.168 HD
HETATM   28  N2  UNL     1      10.868   4.071   2.464  1.00  0.00    -0.337 N 
HETATM   29  C1  UNL     1       9.844   3.242   2.379  1.00  0.00     0.132 A 
ATOM     30  H2  UNL     1      10.694   5.065   2.315  1.00  0.00     0.168 HD
HETATM   31  N4  UNL     1       9.353   0.810   2.578  1.00  0.00    -0.279 N 
HETATM   32  N5  UNL     1      10.113  -0.227   2.838  1.00  0.00    -0.238 N 
ATOM     33  H4  UNL     1       8.349   0.791   2.399  1.00  0.00     0.189 HD
ATOM     34  H5  UNL     1       9.773  -1.188   2.888  1.00  0.00     0.208 HD
BRANCH  29  35
HETATM   35  N1  UNL     1       8.661   3.615   2.126  1.00  0.00    -0.383 N 
ATOM     36  H12 UNL     1       8.384   4.584   2.286  1.00  0.00     0.157 HD
ATOM     37  H11 UNL     1       7.941   2.994   1.757  1.00  0.00     0.157 HD
ENDBRANCH  29  35
ENDBRANCH  21  22
ENDBRANCH  20  21
BRANCH  20  38
HETATM   38  O1  UNL     1      12.753  -2.388   5.087  1.00  0.00    -0.391 OA
ATOM     39  H1  UNL     1      13.081  -1.589   5.483  1.00  0.00     0.210 HD
ENDBRANCH  20  38
ENDBRANCH  19  20
BRANCH  19  40
HETATM   40  O2  UNL     1      11.071  -3.857   2.771  1.00  0.00    -0.390 OA
ATOM     41  H2  UNL     1      10.489  -3.366   3.340  1.00  0.00     0.210 HD
ENDBRANCH  19  40
ENDBRANCH  18  19
BRANCH  18  42
HETATM   42  O3  UNL     1      13.873  -2.846   1.086  1.00  0.00    -0.391 OA
ATOM     43  H3  UNL     1      14.408  -3.448   1.588  1.00  0.00     0.210 HD
ENDBRANCH  18  42
ENDBRANCH  17  18
ENDBRANCH  16  17
ENDBRANCH   1  16
BRANCH   7  44
HETATM   44  N7  UNL     1       9.675   5.864  -1.950  1.00  0.00    -0.320 N 
HETATM   45  C16 UNL     1       8.873   6.291  -0.840  1.00  0.00     0.236 C 
HETATM   46  O6  UNL     1       8.348   5.461  -0.062  1.00  0.00    -0.272 OA
ATOM     47  H7  UNL     1      10.098   6.552  -2.573  1.00  0.00     0.169 HD
BRANCH  45  48
HETATM   48  C17 UNL     1       8.655   7.730  -0.601  1.00  0.00     0.217 C 
HETATM   49 CL1  UNL     1      10.270   8.482  -0.447  1.00  0.00    -0.121 Cl
ENDBRANCH  45  48
ENDBRANCH   7  44
BRANCH   8  50
HETATM   50  N8  UNL     1       8.089   4.551  -3.802  1.00  0.00    -0.309 N 
HETATM   51  C19 UNL     1       7.982   4.584  -5.217  1.00  0.00     0.247 C 
HETATM   52  O7  UNL     1       8.803   3.940  -5.892  1.00  0.00    -0.271 OA
ATOM     53  H8  UNL     1       7.409   5.082  -3.258  1.00  0.00     0.170 HD
BRANCH  51  54
HETATM   54  C20 UNL     1       6.873   5.405  -5.772  1.00  0.00     0.235 C 
HETATM   55  N9  UNL     1       5.573   4.818  -5.745  1.00  0.00    -0.126 NA
HETATM   56  N10 UNL     1       5.046   6.100  -5.578  1.00  0.00    -0.116 NA
HETATM   57  C21 UNL     1       6.262   6.404  -4.817  1.00  0.00     0.324 C 
BRANCH  56  58
HETATM   58  N11 UNL     1       3.905   6.206  -4.814  1.00  0.00    -0.347 NA
ATOM     59 2H11 UNL     1       3.610   7.175  -4.686  1.00  0.00     0.172 HD
ATOM     60 1H11 UNL     1       4.027   6.176  -3.801  1.00  0.00     0.172 HD
ENDBRANCH  56  58
BRANCH  57  61
HETATM   61  N12 UNL     1       6.730   7.754  -5.018  1.00  0.00    -0.058 N 
ATOM     62 3H12 UNL     1       6.301   8.164  -5.848  1.00  0.00     0.276 HD
ATOM     63 2H12 UNL     1       6.351   8.377  -4.306  1.00  0.00     0.276 HD
ATOM     64 1H12 UNL     1       7.745   7.831  -5.061  1.00  0.00     0.276 HD
ENDBRANCH  57  61
ENDBRANCH  51  54
ENDBRANCH   8  50
TORSDOF 17
ENDMDL
