MODEL 1
REMARK VINA RESULT: -8.396199213      0.000      0.000
REMARK  20 active torsions:
REMARK  status: ('A' for Active; 'I' for Inactive)
REMARK    1  A    between atoms: C3_3  and  O1_4 
REMARK    2  A    between atoms: N1_8  and  O3_10 
REMARK    3  A    between atoms: C5_12  and  N2_13 
REMARK    4  A    between atoms: N2_13  and  C6_15 
REMARK    5  A    between atoms: C7_19  and  N4_20 
REMARK    6  A    between atoms: N4_20  and  C8_21 
REMARK    7  A    between atoms: N4_20  and  N6_25 
REMARK    8  A    between atoms: C8_21  and  C9_22 
REMARK    9  A    between atoms: N6_25  and  O5_27 
REMARK   10  A    between atoms: C10_29  and  N7_30 
REMARK   11  A    between atoms: N7_30  and  C11_32 
REMARK   12  A    between atoms: C11_32  and  O6_33 
REMARK   13  A    between atoms: C11_32  and  C12_35 
REMARK   14  A    between atoms: C12_35  and  N8_36 
REMARK   15  A    between atoms: C12_35  and  C13_40 
REMARK   16  A    between atoms: C13_40  and  C14_41 
REMARK   17  A    between atoms: C16_44  and  O7_45 
REMARK   18  A    between atoms: N9_47  and  S1_48 
REMARK   19  A    between atoms: C18_53  and  N10_54 
REMARK   20  A    between atoms: C19_58  and  O11_59 
ROOT
HETATM    1  C6  UNL     1       9.505   3.963   0.556  1.00  0.00     0.325 C 
HETATM    2  N3  UNL     1      10.688   3.068   0.350  1.00  0.00    -0.024 N 
ATOM      3  H31 UNL     1      11.013   2.595   1.192  1.00  0.00     0.282 HD
ATOM      4  H32 UNL     1      11.562   3.559   0.161  1.00  0.00     0.282 HD
HETATM    5  C7  UNL     1      10.255   2.179  -0.713  1.00  0.00     0.352 C 
HETATM    6  C10 UNL     1      10.214   2.993  -1.971  1.00  0.00     0.046 C 
HETATM    7  C15 UNL     1      10.218   4.475  -1.784  1.00  0.00     0.120 C 
HETATM    8  C16 UNL     1      11.593   5.082  -1.981  1.00  0.00     0.222 C 
HETATM    9  N9  UNL     1      11.862   5.893  -0.849  1.00  0.00    -0.161 NA
HETATM   10  C17 UNL     1      10.669   6.085  -0.126  1.00  0.00     0.156 C 
HETATM   11  C18 UNL     1       9.688   5.012  -0.489  1.00  0.00     0.194 C 
ENDROOT
BRANCH   1  12
HETATM   12  N2  UNL     1       9.381   4.310   1.912  1.00  0.00    -0.355 N 
ATOM     13  H2  UNL     1      10.035   5.026   2.226  1.00  0.00     0.162 HD
BRANCH  12  14
HETATM   14  C5  UNL     1       8.507   3.839   2.914  1.00  0.00     0.117 A 
HETATM   15  C4  UNL     1       8.796   2.848   3.849  1.00  0.00     0.199 A 
HETATM   16  O2  UNL     1       7.836   2.497   4.739  1.00  0.00    -0.266 OA
HETATM   17  N1  UNL     1       9.837   2.263   3.936  1.00  0.00    -0.245 N 
HETATM   18  C3  UNL     1       6.664   2.989   4.820  1.00  0.00     0.194 A 
HETATM   19  C2  UNL     1       6.294   3.971   3.939  1.00  0.00     0.032 A 
HETATM   20  C1  UNL     1       4.925   4.555   4.002  1.00  0.00     0.056 C 
HETATM   21  C19 UNL     1       7.209   4.388   3.000  1.00  0.00     0.107 A 
ATOM     22  H1  UNL     1      10.356   2.709   3.179  1.00  0.00     0.196 HD
BRANCH  18  23
HETATM   23  O1  UNL     1       5.748   2.549   5.794  1.00  0.00    -0.340 OA
ATOM     24  H1  UNL     1       6.011   1.883   6.417  1.00  0.00     0.220 HD
ENDBRANCH  18  23
BRANCH  21  25
HETATM   25  O11 UNL     1       6.830   5.381   2.115  1.00  0.00    -0.358 OA
ATOM     26  H11 UNL     1       7.468   6.048   1.891  1.00  0.00     0.217 HD
ENDBRANCH  21  25
BRANCH  17  27
HETATM   27  O3  UNL     1      10.696   1.464   4.348  1.00  0.00    -0.288 OA
ATOM     28  H3  UNL     1      11.219   0.674   4.418  1.00  0.00     0.244 HD
ENDBRANCH  17  27
ENDBRANCH  12  14
ENDBRANCH   1  12
BRANCH  11  29
HETATM   29  N10 UNL     1       8.404   5.643  -0.715  1.00  0.00    -0.065 N 
ATOM     30 3H10 UNL     1       7.726   5.016  -1.149  1.00  0.00     0.275 HD
ATOM     31 2H10 UNL     1       7.892   5.819   0.150  1.00  0.00     0.275 HD
ATOM     32 1H10 UNL     1       8.563   6.491  -1.260  1.00  0.00     0.275 HD
ENDBRANCH  11  29
BRANCH   5  33
HETATM   33  N4  UNL     1      11.279   1.112  -0.815  1.00  0.00    -0.264 N 
BRANCH  33  34
HETATM   34  C8  UNL     1      11.008  -0.190  -0.292  1.00  0.00     0.246 C 
BRANCH  34  35
HETATM   35  C9  UNL     1      11.122  -0.283   1.145  1.00  0.00     0.250 C 
HETATM   36  N5  UNL     1      11.981   0.632   1.835  1.00  0.00    -0.061 NA
HETATM   37  O4  UNL     1      10.502  -1.131   1.817  1.00  0.00    -0.275 OA
ENDBRANCH  34  35
ENDBRANCH  33  34
BRANCH  33  38
HETATM   38  N6  UNL     1      12.478   1.438  -1.422  1.00  0.00    -0.210 N 
ATOM     39  H6  UNL     1      12.533   1.416  -2.440  1.00  0.00     0.215 HD
BRANCH  38  40
HETATM   40  O5  UNL     1      13.514   1.763  -0.762  1.00  0.00    -0.275 OA
ATOM     41  H5  UNL     1      14.285   2.140  -1.170  1.00  0.00     0.246 HD
ENDBRANCH  38  40
ENDBRANCH  33  38
ENDBRANCH   5  33
BRANCH   6  42
HETATM   42  N7  UNL     1       9.334   2.574  -2.968  1.00  0.00    -0.365 N 
ATOM     43  H7  UNL     1       8.678   1.829  -2.736  1.00  0.00     0.161 HD
BRANCH  42  44
HETATM   44  C11 UNL     1       9.285   3.096  -4.253  1.00  0.00     0.248 C 
BRANCH  44  45
HETATM   45  O6  UNL     1       8.325   2.633  -5.116  1.00  0.00    -0.375 OA
ATOM     46  H6  UNL     1       8.409   2.829  -6.042  1.00  0.00     0.212 HD
ENDBRANCH  44  45
BRANCH  44  47
HETATM   47  C12 UNL     1      10.659   2.777  -4.906  1.00  0.00     0.233 C 
BRANCH  47  48
HETATM   48  N8  UNL     1      10.933   1.376  -4.821  1.00  0.00    -0.071 N 
ATOM     49  H83 UNL     1      10.253   0.890  -4.236  1.00  0.00     0.274 HD
ATOM     50  H82 UNL     1      10.744   0.896  -5.701  1.00  0.00     0.274 HD
ATOM     51  H81 UNL     1      11.889   1.223  -4.501  1.00  0.00     0.274 HD
ENDBRANCH  47  48
BRANCH  47  52
HETATM   52  C13 UNL     1      10.667   3.190  -6.351  1.00  0.00     0.068 C 
BRANCH  52  53
HETATM   53  C14 UNL     1      12.074   3.612  -6.710  1.00  0.00     0.224 C 
HETATM   54  F1  UNL     1      12.434   3.250  -7.985  1.00  0.00    -0.255 F 
ENDBRANCH  52  53
ENDBRANCH  47  52
ENDBRANCH  44  47
ENDBRANCH  42  44
ENDBRANCH   6  42
BRANCH   8  55
HETATM   55  O7  UNL     1      12.612   4.144  -2.088  1.00  0.00    -0.379 OA
ATOM     56  H7  UNL     1      13.443   4.509  -2.368  1.00  0.00     0.211 HD
ENDBRANCH   8  55
BRANCH   9  57
HETATM   57  S1  UNL     1      12.757   7.297  -1.210  1.00  0.00     0.187 S 
HETATM   58  O8  UNL     1      12.815   8.224  -0.005  1.00  0.00    -0.582 OA
HETATM   59  O9  UNL     1      14.182   6.906  -1.502  1.00  0.00    -0.582 OA
HETATM   60  O10 UNL     1      12.126   8.145  -2.529  1.00  0.00    -0.582 OA
ENDBRANCH   9  57
TORSDOF 20
ENDMDL
MODEL 2
REMARK VINA RESULT: -8.127471674      1.076      1.162
REMARK  20 active torsions:
REMARK  status: ('A' for Active; 'I' for Inactive)
REMARK    1  A    between atoms: C3_3  and  O1_4 
REMARK    2  A    between atoms: N1_8  and  O3_10 
REMARK    3  A    between atoms: C5_12  and  N2_13 
REMARK    4  A    between atoms: N2_13  and  C6_15 
REMARK    5  A    between atoms: C7_19  and  N4_20 
REMARK    6  A    between atoms: N4_20  and  C8_21 
REMARK    7  A    between atoms: N4_20  and  N6_25 
REMARK    8  A    between atoms: C8_21  and  C9_22 
REMARK    9  A    between atoms: N6_25  and  O5_27 
REMARK   10  A    between atoms: C10_29  and  N7_30 
REMARK   11  A    between atoms: N7_30  and  C11_32 
REMARK   12  A    between atoms: C11_32  and  O6_33 
REMARK   13  A    between atoms: C11_32  and  C12_35 
REMARK   14  A    between atoms: C12_35  and  N8_36 
REMARK   15  A    between atoms: C12_35  and  C13_40 
REMARK   16  A    between atoms: C13_40  and  C14_41 
REMARK   17  A    between atoms: C16_44  and  O7_45 
REMARK   18  A    between atoms: N9_47  and  S1_48 
REMARK   19  A    between atoms: C18_53  and  N10_54 
REMARK   20  A    between atoms: C19_58  and  O11_59 
ROOT
HETATM    1  C6  UNL     1       9.491   3.948   0.549  1.00  0.00     0.325 C 
HETATM    2  N3  UNL     1      10.679   3.054   0.377  1.00  0.00    -0.024 N 
ATOM      3  H31 UNL     1      10.992   2.595   1.232  1.00  0.00     0.282 HD
ATOM      4  H32 UNL     1      11.555   3.544   0.193  1.00  0.00     0.282 HD
HETATM    5  C7  UNL     1      10.265   2.145  -0.678  1.00  0.00     0.352 C 
HETATM    6  C10 UNL     1      10.241   2.938  -1.950  1.00  0.00     0.046 C 
HETATM    7  C15 UNL     1      10.239   4.423  -1.788  1.00  0.00     0.120 C 
HETATM    8  C16 UNL     1      11.616   5.030  -1.974  1.00  0.00     0.222 C 
HETATM    9  N9  UNL     1      11.865   5.861  -0.852  1.00  0.00    -0.161 NA
HETATM   10  C17 UNL     1      10.660   6.062  -0.151  1.00  0.00     0.156 C 
HETATM   11  C18 UNL     1       9.688   4.980  -0.511  1.00  0.00     0.194 C 
ENDROOT
BRANCH   1  12
HETATM   12  N2  UNL     1       9.345   4.317   1.897  1.00  0.00    -0.355 N 
ATOM     13  H2  UNL     1       9.988   5.046   2.207  1.00  0.00     0.162 HD
BRANCH  12  14
HETATM   14  C5  UNL     1       8.463   3.854   2.895  1.00  0.00     0.117 A 
HETATM   15  C4  UNL     1       8.735   2.853   3.824  1.00  0.00     0.199 A 
HETATM   16  O2  UNL     1       7.768   2.512   4.711  1.00  0.00    -0.266 OA
HETATM   17  N1  UNL     1       9.765   2.249   3.907  1.00  0.00    -0.245 N 
HETATM   18  C3  UNL     1       6.605   3.023   4.795  1.00  0.00     0.194 A 
HETATM   19  C2  UNL     1       6.252   4.018   3.920  1.00  0.00     0.032 A 
HETATM   20  C1  UNL     1       4.893   4.625   3.987  1.00  0.00     0.056 C 
HETATM   21  C19 UNL     1       7.174   4.425   2.984  1.00  0.00     0.107 A 
ATOM     22  H1  UNL     1      10.292   2.692   3.154  1.00  0.00     0.196 HD
BRANCH  18  23
HETATM   23  O1  UNL     1       5.681   2.593   5.766  1.00  0.00    -0.340 OA
ATOM     24  H1  UNL     1       5.272   3.231   6.338  1.00  0.00     0.220 HD
ENDBRANCH  18  23
BRANCH  21  25
HETATM   25  O11 UNL     1       6.813   5.431   2.106  1.00  0.00    -0.358 OA
ATOM     26  H11 UNL     1       6.411   6.214   2.463  1.00  0.00     0.217 HD
ENDBRANCH  21  25
BRANCH  17  27
HETATM   27  O3  UNL     1      10.611   1.434   4.314  1.00  0.00    -0.288 OA
ATOM     28  H3  UNL     1      11.444   0.988   4.416  1.00  0.00     0.244 HD
ENDBRANCH  17  27
ENDBRANCH  12  14
ENDBRANCH   1  12
BRANCH  11  29
HETATM   29  N10 UNL     1       8.406   5.604  -0.767  1.00  0.00    -0.065 N 
ATOM     30 3H10 UNL     1       8.486   6.469  -1.301  1.00  0.00     0.275 HD
ATOM     31 2H10 UNL     1       7.839   5.083  -1.437  1.00  0.00     0.275 HD
ATOM     32 1H10 UNL     1       7.937   5.735   0.130  1.00  0.00     0.275 HD
ENDBRANCH  11  29
BRANCH   5  33
HETATM   33  N4  UNL     1      11.293   1.080  -0.746  1.00  0.00    -0.264 N 
BRANCH  33  34
HETATM   34  C8  UNL     1      11.047  -0.190  -0.137  1.00  0.00     0.246 C 
BRANCH  34  35
HETATM   35  C9  UNL     1      11.084  -0.166   1.307  1.00  0.00     0.250 C 
HETATM   36  N5  UNL     1      12.058   0.652   1.966  1.00  0.00    -0.061 NA
HETATM   37  O4  UNL     1      10.299  -0.831   2.012  1.00  0.00    -0.275 OA
ENDBRANCH  34  35
ENDBRANCH  33  34
BRANCH  33  38
HETATM   38  N6  UNL     1      12.470   1.374  -1.408  1.00  0.00    -0.210 N 
ATOM     39  H6  UNL     1      12.499   1.273  -2.423  1.00  0.00     0.215 HD
BRANCH  38  40
HETATM   40  O5  UNL     1      13.518   1.764  -0.804  1.00  0.00    -0.275 OA
ATOM     41  H5  UNL     1      13.834   1.352  -0.008  1.00  0.00     0.246 HD
ENDBRANCH  38  40
ENDBRANCH  33  38
ENDBRANCH   5  33
BRANCH   6  42
HETATM   42  N7  UNL     1       9.379   2.500  -2.953  1.00  0.00    -0.365 N 
ATOM     43  H7  UNL     1       8.377   2.612  -2.797  1.00  0.00     0.161 HD
BRANCH  42  44
HETATM   44  C11 UNL     1       9.781   1.923  -4.150  1.00  0.00     0.248 C 
BRANCH  44  45
HETATM   45  O6  UNL     1      10.781   0.984  -4.126  1.00  0.00    -0.375 OA
ATOM     46  H6  UNL     1      11.023   0.554  -4.937  1.00  0.00     0.212 HD
ENDBRANCH  44  45
BRANCH  44  47
HETATM   47  C12 UNL     1      10.287   3.087  -5.046  1.00  0.00     0.233 C 
BRANCH  47  48
HETATM   48  N8  UNL     1      11.717   3.095  -5.085  1.00  0.00    -0.071 N 
ATOM     49  H83 UNL     1      12.101   2.155  -5.187  1.00  0.00     0.274 HD
ATOM     50  H82 UNL     1      12.073   3.497  -5.951  1.00  0.00     0.274 HD
ATOM     51  H81 UNL     1      12.089   3.571  -4.263  1.00  0.00     0.274 HD
ENDBRANCH  47  48
BRANCH  47  52
HETATM   52  C13 UNL     1       9.762   2.945  -6.447  1.00  0.00     0.068 C 
BRANCH  52  53
HETATM   53  C14 UNL     1       8.341   3.463  -6.469  1.00  0.00     0.224 C 
HETATM   54  F1  UNL     1       8.104   4.424  -5.517  1.00  0.00    -0.255 F 
ENDBRANCH  52  53
ENDBRANCH  47  52
ENDBRANCH  44  47
ENDBRANCH  42  44
ENDBRANCH   6  42
BRANCH   8  55
HETATM   55  O7  UNL     1      12.638   4.093  -2.049  1.00  0.00    -0.379 OA
ATOM     56  H7  UNL     1      13.482   4.421  -1.762  1.00  0.00     0.211 HD
ENDBRANCH   8  55
BRANCH   9  57
HETATM   57  S1  UNL     1      12.762   7.261  -1.222  1.00  0.00     0.187 S 
HETATM   58  O8  UNL     1      12.858   8.175  -0.010  1.00  0.00    -0.582 OA
HETATM   59  O9  UNL     1      14.176   6.861  -1.554  1.00  0.00    -0.582 OA
HETATM   60  O10 UNL     1      12.105   8.126  -2.517  1.00  0.00    -0.582 OA
ENDBRANCH   9  57
TORSDOF 20
ENDMDL
MODEL 3
REMARK VINA RESULT: -8.115631806      1.890      3.161
REMARK  20 active torsions:
REMARK  status: ('A' for Active; 'I' for Inactive)
REMARK    1  A    between atoms: C3_3  and  O1_4 
REMARK    2  A    between atoms: N1_8  and  O3_10 
REMARK    3  A    between atoms: C5_12  and  N2_13 
REMARK    4  A    between atoms: N2_13  and  C6_15 
REMARK    5  A    between atoms: C7_19  and  N4_20 
REMARK    6  A    between atoms: N4_20  and  C8_21 
REMARK    7  A    between atoms: N4_20  and  N6_25 
REMARK    8  A    between atoms: C8_21  and  C9_22 
REMARK    9  A    between atoms: N6_25  and  O5_27 
REMARK   10  A    between atoms: C10_29  and  N7_30 
REMARK   11  A    between atoms: N7_30  and  C11_32 
REMARK   12  A    between atoms: C11_32  and  O6_33 
REMARK   13  A    between atoms: C11_32  and  C12_35 
REMARK   14  A    between atoms: C12_35  and  N8_36 
REMARK   15  A    between atoms: C12_35  and  C13_40 
REMARK   16  A    between atoms: C13_40  and  C14_41 
REMARK   17  A    between atoms: C16_44  and  O7_45 
REMARK   18  A    between atoms: N9_47  and  S1_48 
REMARK   19  A    between atoms: C18_53  and  N10_54 
REMARK   20  A    between atoms: C19_58  and  O11_59 
ROOT
HETATM    1  C6  UNL     1       9.489   3.700   0.479  1.00  0.00     0.325 C 
HETATM    2  N3  UNL     1      10.372   2.876  -0.406  1.00  0.00    -0.024 N 
ATOM      3  H31 UNL     1      10.861   2.118   0.070  1.00  0.00     0.282 HD
ATOM      4  H32 UNL     1      11.212   3.356  -0.731  1.00  0.00     0.282 HD
HETATM    5  C7  UNL     1       9.477   2.444  -1.465  1.00  0.00     0.352 C 
HETATM    6  C10 UNL     1       9.178   3.652  -2.301  1.00  0.00     0.046 C 
HETATM    7  C15 UNL     1       9.498   4.970  -1.673  1.00  0.00     0.120 C 
HETATM    8  C16 UNL     1      10.822   5.534  -2.148  1.00  0.00     0.222 C 
HETATM    9  N9  UNL     1      11.572   5.877  -0.995  1.00  0.00    -0.161 NA
HETATM   10  C17 UNL     1      10.723   5.862   0.129  1.00  0.00     0.156 C 
HETATM   11  C18 UNL     1       9.509   5.040  -0.176  1.00  0.00     0.194 C 
ENDROOT
BRANCH   1  12
HETATM   12  N2  UNL     1       9.865   3.549   1.825  1.00  0.00    -0.355 N 
ATOM     13  H2  UNL     1      10.199   4.405   2.268  1.00  0.00     0.162 HD
BRANCH  12  14
HETATM   14  C5  UNL     1       9.859   2.420   2.670  1.00  0.00     0.117 A 
HETATM   15  C4  UNL     1       8.812   2.026   3.500  1.00  0.00     0.199 A 
HETATM   16  O2  UNL     1       8.974   0.919   4.265  1.00  0.00    -0.266 OA
HETATM   17  N1  UNL     1       7.763   2.593   3.605  1.00  0.00    -0.245 N 
HETATM   18  C3  UNL     1      10.005   0.174   4.309  1.00  0.00     0.194 A 
HETATM   19  C2  UNL     1      11.083   0.486   3.522  1.00  0.00     0.032 A 
HETATM   20  C1  UNL     1      12.308  -0.361   3.563  1.00  0.00     0.056 C 
HETATM   21  C19 UNL     1      11.006   1.596   2.714  1.00  0.00     0.107 A 
ATOM     22  H1  UNL     1       7.907   3.357   2.943  1.00  0.00     0.196 HD
BRANCH  18  23
HETATM   23  O1  UNL     1      10.058  -0.960   5.140  1.00  0.00    -0.340 OA
ATOM     24  H1  UNL     1       9.514  -1.713   4.941  1.00  0.00     0.220 HD
ENDBRANCH  18  23
BRANCH  21  25
HETATM   25  O11 UNL     1      12.096   1.905   1.921  1.00  0.00    -0.358 OA
ATOM     26  H11 UNL     1      12.054   2.689   1.387  1.00  0.00     0.217 HD
ENDBRANCH  21  25
BRANCH  17  27
HETATM   27  O3  UNL     1       6.613   2.857   3.995  1.00  0.00    -0.288 OA
ATOM     28  H3  UNL     1       5.859   2.924   4.570  1.00  0.00     0.244 HD
ENDBRANCH  17  27
ENDBRANCH  12  14
ENDBRANCH   1  12
BRANCH  11  29
HETATM   29  N10 UNL     1       8.349   5.776   0.283  1.00  0.00    -0.065 N 
ATOM     30 3H10 UNL     1       8.114   5.578   1.256  1.00  0.00     0.275 HD
ATOM     31 2H10 UNL     1       8.529   6.775   0.388  1.00  0.00     0.275 HD
ATOM     32 1H10 UNL     1       7.579   5.578  -0.357  1.00  0.00     0.275 HD
ENDBRANCH  11  29
BRANCH   5  33
HETATM   33  N4  UNL     1      10.214   1.431  -2.256  1.00  0.00    -0.264 N 
BRANCH  33  34
HETATM   34  C8  UNL     1      11.625   1.563  -2.446  1.00  0.00     0.246 C 
BRANCH  34  35
HETATM   35  C9  UNL     1      12.415   1.126  -1.318  1.00  0.00     0.250 C 
HETATM   36  N5  UNL     1      12.074  -0.102  -0.664  1.00  0.00    -0.061 NA
HETATM   37  O4  UNL     1      13.388   1.775  -0.885  1.00  0.00    -0.275 OA
ENDBRANCH  34  35
ENDBRANCH  33  34
BRANCH  33  38
HETATM   38  N6  UNL     1       9.485   0.385  -2.789  1.00  0.00    -0.210 N 
ATOM     39  H6  UNL     1       9.940  -0.520  -2.904  1.00  0.00     0.215 HD
BRANCH  38  40
HETATM   40  O5  UNL     1       8.269   0.506  -3.141  1.00  0.00    -0.275 OA
ATOM     41  H5  UNL     1       7.554   0.103  -2.662  1.00  0.00     0.246 HD
ENDBRANCH  38  40
ENDBRANCH  33  38
ENDBRANCH   5  33
BRANCH   6  42
HETATM   42  N7  UNL     1       7.969   3.660  -2.994  1.00  0.00    -0.365 N 
ATOM     43  H7  UNL     1       7.158   3.250  -2.532  1.00  0.00     0.161 HD
BRANCH  42  44
HETATM   44  C11 UNL     1       7.787   4.185  -4.266  1.00  0.00     0.248 C 
BRANCH  44  45
HETATM   45  O6  UNL     1       6.563   4.044  -4.868  1.00  0.00    -0.375 OA
ATOM     46  H6  UNL     1       5.999   4.806  -4.941  1.00  0.00     0.212 HD
ENDBRANCH  44  45
BRANCH  44  47
HETATM   47  C12 UNL     1       8.817   3.471  -5.184  1.00  0.00     0.233 C 
BRANCH  47  48
HETATM   48  N8  UNL     1       8.141   2.658  -6.146  1.00  0.00    -0.071 N 
ATOM     49  H83 UNL     1       7.398   3.169  -6.623  1.00  0.00     0.274 HD
ATOM     50  H82 UNL     1       8.728   2.456  -6.956  1.00  0.00     0.274 HD
ATOM     51  H81 UNL     1       7.794   1.805  -5.706  1.00  0.00     0.274 HD
ENDBRANCH  47  48
BRANCH  47  52
HETATM   52  C13 UNL     1       9.670   4.476  -5.906  1.00  0.00     0.068 C 
BRANCH  52  53
HETATM   53  C14 UNL     1      10.962   3.797  -6.302  1.00  0.00     0.224 C 
HETATM   54  F1  UNL     1      11.308   2.768  -5.461  1.00  0.00    -0.255 F 
ENDBRANCH  52  53
ENDBRANCH  47  52
ENDBRANCH  44  47
ENDBRANCH  42  44
ENDBRANCH   6  42
BRANCH   8  55
HETATM   55  O7  UNL     1      11.576   4.643  -2.901  1.00  0.00    -0.379 OA
ATOM     56  H7  UNL     1      12.513   4.736  -2.782  1.00  0.00     0.211 HD
ENDBRANCH   8  55
BRANCH   9  57
HETATM   57  S1  UNL     1      12.535   7.269  -1.193  1.00  0.00     0.187 S 
HETATM   58  O8  UNL     1      13.988   6.972  -0.852  1.00  0.00    -0.582 OA
HETATM   59  O9  UNL     1      12.523   7.669  -2.645  1.00  0.00    -0.582 OA
HETATM   60  O10 UNL     1      11.999   8.564  -0.249  1.00  0.00    -0.582 OA
ENDBRANCH   9  57
TORSDOF 20
ENDMDL
MODEL 4
REMARK VINA RESULT: -8.050612634      1.733      2.826
REMARK  20 active torsions:
REMARK  status: ('A' for Active; 'I' for Inactive)
REMARK    1  A    between atoms: C3_3  and  O1_4 
REMARK    2  A    between atoms: N1_8  and  O3_10 
REMARK    3  A    between atoms: C5_12  and  N2_13 
REMARK    4  A    between atoms: N2_13  and  C6_15 
REMARK    5  A    between atoms: C7_19  and  N4_20 
REMARK    6  A    between atoms: N4_20  and  C8_21 
REMARK    7  A    between atoms: N4_20  and  N6_25 
REMARK    8  A    between atoms: C8_21  and  C9_22 
REMARK    9  A    between atoms: N6_25  and  O5_27 
REMARK   10  A    between atoms: C10_29  and  N7_30 
REMARK   11  A    between atoms: N7_30  and  C11_32 
REMARK   12  A    between atoms: C11_32  and  O6_33 
REMARK   13  A    between atoms: C11_32  and  C12_35 
REMARK   14  A    between atoms: C12_35  and  N8_36 
REMARK   15  A    between atoms: C12_35  and  C13_40 
REMARK   16  A    between atoms: C13_40  and  C14_41 
REMARK   17  A    between atoms: C16_44  and  O7_45 
REMARK   18  A    between atoms: N9_47  and  S1_48 
REMARK   19  A    between atoms: C18_53  and  N10_54 
REMARK   20  A    between atoms: C19_58  and  O11_59 
ROOT
HETATM    1  C6  UNL     1       9.590   3.598   0.492  1.00  0.00     0.325 C 
HETATM    2  N3  UNL     1      10.604   2.842  -0.310  1.00  0.00    -0.024 N 
ATOM      3  H31 UNL     1      11.120   2.138   0.216  1.00  0.00     0.282 HD
ATOM      4  H32 UNL     1      11.420   3.389  -0.584  1.00  0.00     0.282 HD
HETATM    5  C7  UNL     1       9.830   2.318  -1.421  1.00  0.00     0.352 C 
HETATM    6  C10 UNL     1       9.489   3.483  -2.301  1.00  0.00     0.046 C 
HETATM    7  C15 UNL     1       9.647   4.832  -1.680  1.00  0.00     0.120 C 
HETATM    8  C16 UNL     1      10.948   5.504  -2.071  1.00  0.00     0.222 C 
HETATM    9  N9  UNL     1      11.579   5.928  -0.875  1.00  0.00    -0.161 NA
HETATM   10  C17 UNL     1      10.654   5.856   0.185  1.00  0.00     0.156 C 
HETATM   11  C18 UNL     1       9.542   4.925  -0.188  1.00  0.00     0.194 C 
ENDROOT
BRANCH   1  12
HETATM   12  N2  UNL     1       9.878   3.502   1.865  1.00  0.00    -0.355 N 
ATOM     13  H2  UNL     1      10.129   4.386   2.306  1.00  0.00     0.162 HD
BRANCH  12  14
HETATM   14  C5  UNL     1       9.879   2.393   2.736  1.00  0.00     0.117 A 
HETATM   15  C4  UNL     1       8.830   2.006   3.566  1.00  0.00     0.199 A 
HETATM   16  O2  UNL     1       8.999   0.920   4.360  1.00  0.00    -0.266 OA
HETATM   17  N1  UNL     1       7.772   2.561   3.647  1.00  0.00    -0.245 N 
HETATM   18  C3  UNL     1      10.039   0.190   4.432  1.00  0.00     0.194 A 
HETATM   19  C2  UNL     1      11.121   0.498   3.648  1.00  0.00     0.032 A 
HETATM   20  C1  UNL     1      12.357  -0.330   3.721  1.00  0.00     0.056 C 
HETATM   21  C19 UNL     1      11.036   1.587   2.812  1.00  0.00     0.107 A 
ATOM     22  H1  UNL     1       7.912   3.310   2.968  1.00  0.00     0.196 HD
BRANCH  18  23
HETATM   23  O1  UNL     1      10.099  -0.922   5.292  1.00  0.00    -0.340 OA
ATOM     24  H1  UNL     1      10.855  -1.497   5.262  1.00  0.00     0.220 HD
ENDBRANCH  18  23
BRANCH  21  25
HETATM   25  O11 UNL     1      12.130   1.891   2.022  1.00  0.00    -0.358 OA
ATOM     26  H11 UNL     1      12.687   2.613   2.287  1.00  0.00     0.217 HD
ENDBRANCH  21  25
BRANCH  17  27
HETATM   27  O3  UNL     1       6.615   2.818   4.020  1.00  0.00    -0.288 OA
ATOM     28  H3  UNL     1       5.668   2.896   4.001  1.00  0.00     0.244 HD
ENDBRANCH  17  27
ENDBRANCH  12  14
ENDBRANCH   1  12
BRANCH  11  29
HETATM   29  N10 UNL     1       8.291   5.563   0.171  1.00  0.00    -0.065 N 
ATOM     30 3H10 UNL     1       7.870   5.164   1.010  1.00  0.00     0.275 HD
ATOM     31 2H10 UNL     1       8.418   6.513   0.521  1.00  0.00     0.275 HD
ATOM     32 1H10 UNL     1       7.673   5.519  -0.640  1.00  0.00     0.275 HD
ENDBRANCH  11  29
BRANCH   5  33
HETATM   33  N4  UNL     1      10.708   1.362  -2.135  1.00  0.00    -0.264 N 
BRANCH  33  34
HETATM   34  C8  UNL     1      10.684  -0.025  -1.791  1.00  0.00     0.246 C 
BRANCH  34  35
HETATM   35  C9  UNL     1      11.479  -0.358  -0.632  1.00  0.00     0.250 C 
HETATM   36  N5  UNL     1      12.716   0.332  -0.415  1.00  0.00    -0.061 NA
HETATM   37  O4  UNL     1      11.135  -1.226   0.195  1.00  0.00    -0.275 OA
ENDBRANCH  34  35
ENDBRANCH  33  34
BRANCH  33  38
HETATM   38  N6  UNL     1      11.533   1.872  -3.121  1.00  0.00    -0.210 N 
ATOM     39  H6  UNL     1      11.120   2.137  -4.015  1.00  0.00     0.215 HD
BRANCH  38  40
HETATM   40  O5  UNL     1      12.784   2.023  -2.958  1.00  0.00    -0.275 OA
ATOM     41  H5  UNL     1      13.275   2.722  -3.375  1.00  0.00     0.246 HD
ENDBRANCH  38  40
ENDBRANCH  33  38
ENDBRANCH   5  33
BRANCH   6  42
HETATM   42  N7  UNL     1       8.338   3.373  -3.080  1.00  0.00    -0.365 N 
ATOM     43  H7  UNL     1       7.576   2.802  -2.716  1.00  0.00     0.161 HD
BRANCH  42  44
HETATM   44  C11 UNL     1       8.152   3.985  -4.312  1.00  0.00     0.248 C 
BRANCH  44  45
HETATM   45  O6  UNL     1       6.885   4.043  -4.834  1.00  0.00    -0.375 OA
ATOM     46  H6  UNL     1       6.147   4.081  -4.237  1.00  0.00     0.212 HD
ENDBRANCH  44  45
BRANCH  44  47
HETATM   47  C12 UNL     1       9.015   3.187  -5.329  1.00  0.00     0.233 C 
BRANCH  47  48
HETATM   48  N8  UNL     1       8.198   2.711  -6.402  1.00  0.00    -0.071 N 
ATOM     49  H83 UNL     1       7.218   2.966  -6.278  1.00  0.00     0.274 HD
ATOM     50  H82 UNL     1       8.376   3.216  -7.270  1.00  0.00     0.274 HD
ATOM     51  H81 UNL     1       8.318   1.704  -6.516  1.00  0.00     0.274 HD
ENDBRANCH  47  48
BRANCH  47  52
HETATM   52  C13 UNL     1      10.107   4.052  -5.891  1.00  0.00     0.068 C 
BRANCH  52  53
HETATM   53  C14 UNL     1      11.107   3.154  -6.583  1.00  0.00     0.224 C 
HETATM   54  F1  UNL     1      12.397   3.358  -6.157  1.00  0.00    -0.255 F 
ENDBRANCH  52  53
ENDBRANCH  47  52
ENDBRANCH  44  47
ENDBRANCH  42  44
ENDBRANCH   6  42
BRANCH   8  55
HETATM   55  O7  UNL     1      11.829   4.672  -2.749  1.00  0.00    -0.379 OA
ATOM     56  H7  UNL     1      12.349   5.117  -3.408  1.00  0.00     0.211 HD
ENDBRANCH   8  55
BRANCH   9  57
HETATM   57  S1  UNL     1      12.429   7.397  -1.032  1.00  0.00     0.187 S 
HETATM   58  O8  UNL     1      13.904   7.202  -0.717  1.00  0.00    -0.582 OA
HETATM   59  O9  UNL     1      12.367   7.845  -2.469  1.00  0.00    -0.582 OA
HETATM   60  O10 UNL     1      11.807   8.613  -0.037  1.00  0.00    -0.582 OA
ENDBRANCH   9  57
TORSDOF 20
ENDMDL
MODEL 5
REMARK VINA RESULT: -7.899769116      3.546      5.705
REMARK  20 active torsions:
REMARK  status: ('A' for Active; 'I' for Inactive)
REMARK    1  A    between atoms: C3_3  and  O1_4 
REMARK    2  A    between atoms: N1_8  and  O3_10 
REMARK    3  A    between atoms: C5_12  and  N2_13 
REMARK    4  A    between atoms: N2_13  and  C6_15 
REMARK    5  A    between atoms: C7_19  and  N4_20 
REMARK    6  A    between atoms: N4_20  and  C8_21 
REMARK    7  A    between atoms: N4_20  and  N6_25 
REMARK    8  A    between atoms: C8_21  and  C9_22 
REMARK    9  A    between atoms: N6_25  and  O5_27 
REMARK   10  A    between atoms: C10_29  and  N7_30 
REMARK   11  A    between atoms: N7_30  and  C11_32 
REMARK   12  A    between atoms: C11_32  and  O6_33 
REMARK   13  A    between atoms: C11_32  and  C12_35 
REMARK   14  A    between atoms: C12_35  and  N8_36 
REMARK   15  A    between atoms: C12_35  and  C13_40 
REMARK   16  A    between atoms: C13_40  and  C14_41 
REMARK   17  A    between atoms: C16_44  and  O7_45 
REMARK   18  A    between atoms: N9_47  and  S1_48 
REMARK   19  A    between atoms: C18_53  and  N10_54 
REMARK   20  A    between atoms: C19_58  and  O11_59 
ROOT
HETATM    1  C6  UNL     1      10.961   2.528  -2.041  1.00  0.00     0.325 C 
HETATM    2  N3  UNL     1      11.453   2.878  -3.411  1.00  0.00    -0.024 N 
ATOM      3  H31 UNL     1      12.288   2.372  -3.703  1.00  0.00     0.282 HD
ATOM      4  H32 UNL     1      11.861   3.810  -3.489  1.00  0.00     0.282 HD
HETATM    5  C7  UNL     1      10.289   2.658  -4.252  1.00  0.00     0.352 C 
HETATM    6  C10 UNL     1       9.316   3.755  -3.942  1.00  0.00     0.046 C 
HETATM    7  C15 UNL     1       9.562   4.501  -2.671  1.00  0.00     0.120 C 
HETATM    8  C16 UNL     1      10.273   5.820  -2.900  1.00  0.00     0.222 C 
HETATM    9  N9  UNL     1      11.387   5.855  -2.023  1.00  0.00    -0.161 NA
HETATM   10  C17 UNL     1      11.256   4.828  -1.069  1.00  0.00     0.156 C 
HETATM   11  C18 UNL     1      10.308   3.789  -1.584  1.00  0.00     0.194 C 
ENDROOT
BRANCH   1  12
HETATM   12  N2  UNL     1      11.988   1.933  -1.287  1.00  0.00    -0.355 N 
ATOM     13  H2  UNL     1      12.923   2.063  -1.672  1.00  0.00     0.162 HD
BRANCH  12  14
HETATM   14  C5  UNL     1      11.948   1.187  -0.091  1.00  0.00     0.117 A 
HETATM   15  C4  UNL     1      12.129   1.693   1.194  1.00  0.00     0.199 A 
HETATM   16  O2  UNL     1      12.076   0.835   2.241  1.00  0.00    -0.266 OA
HETATM   17  N1  UNL     1      12.337   2.841   1.460  1.00  0.00    -0.245 N 
HETATM   18  C3  UNL     1      11.870  -0.420   2.181  1.00  0.00     0.194 A 
HETATM   19  C2  UNL     1      11.679  -1.004   0.956  1.00  0.00     0.032 A 
HETATM   20  C1  UNL     1      11.449  -2.472   0.854  1.00  0.00     0.056 C 
HETATM   21  C19 UNL     1      11.718  -0.205  -0.164  1.00  0.00     0.107 A 
ATOM     22  H1  UNL     1      12.323   3.247   0.524  1.00  0.00     0.196 HD
BRANCH  18  23
HETATM   23  O1  UNL     1      11.830  -1.215   3.342  1.00  0.00    -0.340 OA
ATOM     24  H1  UNL     1      11.594  -0.819   4.173  1.00  0.00     0.220 HD
ENDBRANCH  18  23
BRANCH  21  25
HETATM   25  O11 UNL     1      11.523  -0.799  -1.397  1.00  0.00    -0.358 OA
ATOM     26  H11 UNL     1      11.462  -0.238  -2.161  1.00  0.00     0.217 HD
ENDBRANCH  21  25
BRANCH  17  27
HETATM   27  O3  UNL     1      12.559   3.861   2.136  1.00  0.00    -0.288 OA
ATOM     28  H3  UNL     1      12.851   4.408   2.856  1.00  0.00     0.244 HD
ENDBRANCH  17  27
ENDBRANCH  12  14
ENDBRANCH   1  12
BRANCH  11  29
HETATM   29  N10 UNL     1       9.395   3.452  -0.510  1.00  0.00    -0.065 N 
ATOM     30 3H10 UNL     1       8.869   4.257  -0.171  1.00  0.00     0.275 HD
ATOM     31 2H10 UNL     1       8.601   2.894  -0.826  1.00  0.00     0.275 HD
ATOM     32 1H10 UNL     1       9.933   2.992   0.225  1.00  0.00     0.275 HD
ENDBRANCH  11  29
BRANCH   5  33
HETATM   33  N4  UNL     1      10.756   2.755  -5.655  1.00  0.00    -0.264 N 
BRANCH  33  34
HETATM   34  C8  UNL     1      12.010   3.375  -5.948  1.00  0.00     0.246 C 
BRANCH  34  35
HETATM   35  C9  UNL     1      12.014   4.148  -7.169  1.00  0.00     0.250 C 
HETATM   36  N5  UNL     1      11.695   5.543  -7.110  1.00  0.00    -0.061 NA
HETATM   37  O4  UNL     1      12.285   3.652  -8.280  1.00  0.00    -0.275 OA
ENDBRANCH  34  35
ENDBRANCH  33  34
BRANCH  33  38
HETATM   38  N6  UNL     1       9.935   2.233  -6.636  1.00  0.00    -0.210 N 
ATOM     39  H6  UNL     1      10.314   1.527  -7.267  1.00  0.00     0.215 HD
BRANCH  38  40
HETATM   40  O5  UNL     1       8.726   2.598  -6.784  1.00  0.00    -0.275 OA
ATOM     41  H5  UNL     1       8.063   2.459  -6.117  1.00  0.00     0.246 HD
ENDBRANCH  38  40
ENDBRANCH  33  38
ENDBRANCH   5  33
BRANCH   6  42
HETATM   42  N7  UNL     1       7.966   3.484  -4.159  1.00  0.00    -0.365 N 
ATOM     43  H7  UNL     1       7.734   2.665  -4.720  1.00  0.00     0.161 HD
BRANCH  42  44
HETATM   44  C11 UNL     1       6.914   4.247  -3.670  1.00  0.00     0.248 C 
BRANCH  44  45
HETATM   45  O6  UNL     1       5.803   3.604  -3.187  1.00  0.00    -0.375 OA
ATOM     46  H6  UNL     1       5.808   3.297  -2.288  1.00  0.00     0.212 HD
ENDBRANCH  44  45
BRANCH  44  47
HETATM   47  C12 UNL     1       6.434   5.136  -4.850  1.00  0.00     0.233 C 
BRANCH  47  48
HETATM   48  N8  UNL     1       6.270   4.345  -6.030  1.00  0.00    -0.071 N 
ATOM     49  H83 UNL     1       7.143   3.901  -6.316  1.00  0.00     0.274 HD
ATOM     50  H82 UNL     1       5.726   3.501  -5.851  1.00  0.00     0.274 HD
ATOM     51  H81 UNL     1       5.866   4.908  -6.779  1.00  0.00     0.274 HD
ENDBRANCH  47  48
BRANCH  47  52
HETATM   52  C13 UNL     1       5.127   5.797  -4.518  1.00  0.00     0.068 C 
BRANCH  52  53
HETATM   53  C14 UNL     1       5.409   7.231  -4.133  1.00  0.00     0.224 C 
HETATM   54  F1  UNL     1       5.604   7.396  -2.783  1.00  0.00    -0.255 F 
ENDBRANCH  52  53
ENDBRANCH  47  52
ENDBRANCH  44  47
ENDBRANCH  42  44
ENDBRANCH   6  42
BRANCH   8  55
HETATM   55  O7  UNL     1      10.742   5.989  -4.196  1.00  0.00    -0.379 OA
ATOM     56  H7  UNL     1      10.061   5.962  -4.858  1.00  0.00     0.211 HD
ENDBRANCH   8  55
BRANCH   9  57
HETATM   57  S1  UNL     1      11.730   7.409  -1.414  1.00  0.00     0.187 S 
HETATM   58  O8  UNL     1      13.009   7.395  -0.591  1.00  0.00    -0.582 OA
HETATM   59  O9  UNL     1      11.990   8.340  -2.569  1.00  0.00    -0.582 OA
HETATM   60  O10 UNL     1      10.472   8.025  -0.469  1.00  0.00    -0.582 OA
ENDBRANCH   9  57
TORSDOF 20
ENDMDL
