MODEL 1
REMARK VINA RESULT: -9.113347388      0.000      0.000
REMARK  23 active torsions:
REMARK  status: ('A' for Active; 'I' for Inactive)
REMARK    1  A    between atoms: C3_4  and  O1_5 
REMARK    2  A    between atoms: O1_5  and  C4_6 
REMARK    3  A    between atoms: C5_8  and  O3_9 
REMARK    4  A    between atoms: C6_11  and  O4_12 
REMARK    5  A    between atoms: C7_14  and  O5_15 
REMARK    6  A    between atoms: C8_17  and  C9_18 
REMARK    7  A    between atoms: C9_18  and  O6_19 
REMARK    8  A    between atoms: C10_22  and  C11_23 
REMARK    9  A    between atoms: C11_23  and  O8_24 
REMARK   10  A    between atoms: C12_26  and  O9_27 
REMARK   11  A    between atoms: C13_29  and  O10_30 
REMARK   12  A    between atoms: O10_30  and  C14_31 
REMARK   13  A    between atoms: C14_31  and  C15_32 
REMARK   14  A    between atoms: C15_32  and  C16_33 
REMARK   15  A    between atoms: C16_33  and  C17_34 
REMARK   16  A    between atoms: C17_34  and  O11_35 
REMARK   17  A    between atoms: O11_35  and  C18_36 
REMARK   18  A    between atoms: C19_38  and  C20_39 
REMARK   19  A    between atoms: C20_39  and  O13_40 
REMARK   20  A    between atoms: C21_42  and  O14_43 
REMARK   21  A    between atoms: C22_45  and  O15_46 
REMARK   22  A    between atoms: C23_48  and  O16_49 
REMARK   23  A    between atoms: C24_51  and  O17_52 
ROOT
HETATM    1  N1  UNL     1      11.581  -0.795  -1.664  1.00  0.00    -0.197 NA
HETATM    2  C1  UNL     1      11.634  -0.413  -0.552  1.00  0.00     0.071 C 
HETATM    3  C2  UNL     1      11.690   0.084   0.822  1.00  0.00     0.179 C 
HETATM    4  C3  UNL     1      11.554  -1.058   1.767  1.00  0.00     0.283 C 
HETATM    5  O7  UNL     1      10.535  -0.754   2.673  1.00  0.00    -0.350 OA
HETATM    6  C10 UNL     1      10.916   0.182   3.606  1.00  0.00     0.179 C 
HETATM    7  C12 UNL     1      10.310   1.550   3.327  1.00  0.00     0.180 C 
HETATM    8  C13 UNL     1      10.854   2.132   2.039  1.00  0.00     0.182 C 
HETATM    9  C24 UNL     1      10.614   1.132   0.950  1.00  0.00     0.172 C 
ENDROOT
BRANCH   4  10
HETATM   10  O1  UNL     1      11.266  -2.217   1.059  1.00  0.00    -0.329 OA
BRANCH  10  11
HETATM   11  C4  UNL     1      11.964  -3.287   1.550  1.00  0.00     0.275 C 
HETATM   12  O2  UNL     1      13.295  -3.247   1.162  1.00  0.00    -0.328 OA
HETATM   13  C5  UNL     1      14.065  -4.215   1.753  1.00  0.00     0.291 C 
HETATM   14  C6  UNL     1      13.289  -5.205   2.565  1.00  0.00     0.202 C 
HETATM   15  C7  UNL     1      12.043  -5.695   1.903  1.00  0.00     0.162 C 
HETATM   16  C8  UNL     1      11.410  -4.609   1.059  1.00  0.00     0.096 C 
BRANCH  13  17
HETATM   17  O3  UNL     1      14.966  -3.571   2.619  1.00  0.00    -0.368 OA
ATOM     18  H3  UNL     1      15.630  -4.205   2.865  1.00  0.00     0.212 HD
ENDBRANCH  13  17
BRANCH  14  19
HETATM   19  O4  UNL     1      14.128  -6.329   2.745  1.00  0.00    -0.388 OA
ATOM     20  H4  UNL     1      14.052  -6.854   1.958  1.00  0.00     0.210 HD
ENDBRANCH  14  19
BRANCH  15  21
HETATM   21  O5  UNL     1      11.110  -6.004   2.917  1.00  0.00    -0.392 OA
ATOM     22  H5  UNL     1      10.558  -6.709   2.597  1.00  0.00     0.210 HD
ENDBRANCH  15  21
BRANCH  16  23
HETATM   23  C9  UNL     1      11.789  -4.859  -0.388  1.00  0.00     0.176 C 
BRANCH  23  24
HETATM   24  O6  UNL     1      11.396  -3.760  -1.180  1.00  0.00    -0.400 OA
ATOM     25  H6  UNL     1      11.659  -3.903  -2.082  1.00  0.00     0.209 HD
ENDBRANCH  23  24
ENDBRANCH  16  23
ENDBRANCH  10  11
ENDBRANCH   4  10
BRANCH   9  26
HETATM   26  O17 UNL     1       9.379   0.541   1.047  1.00  0.00    -0.391 OA
ATOM     27  H17 UNL     1       9.281   0.115   1.891  1.00  0.00     0.210 HD
ENDBRANCH   9  26
BRANCH   8  28
HETATM   28  O10 UNL     1      10.295   3.362   1.786  1.00  0.00    -0.381 OA
BRANCH  28  29
HETATM   29  C14 UNL     1      11.219   4.327   1.404  1.00  0.00     0.168 C 
BRANCH  29  30
HETATM   30  C15 UNL     1      10.489   5.474   0.793  1.00  0.00     0.028 C 
BRANCH  30  31
HETATM   31  C16 UNL     1      10.750   5.621  -0.711  1.00  0.00     0.028 C 
BRANCH  31  32
HETATM   32  C17 UNL     1       9.572   6.259  -1.348  1.00  0.00     0.171 C 
BRANCH  32  33
HETATM   33  O11 UNL     1       8.782   5.340  -1.998  1.00  0.00    -0.359 OA
BRANCH  33  34
HETATM   34  C18 UNL     1       9.419   4.182  -2.374  1.00  0.00     0.291 C 
HETATM   35  O12 UNL     1       9.517   4.244  -3.791  1.00  0.00    -0.348 OA
HETATM   36  C19 UNL     1      10.094   3.108  -4.317  1.00  0.00     0.179 C 
HETATM   37  C21 UNL     1      10.376   2.029  -3.325  1.00  0.00     0.180 C 
HETATM   38  C22 UNL     1       9.120   1.708  -2.570  1.00  0.00     0.183 C 
HETATM   39  C23 UNL     1       8.572   3.000  -1.990  1.00  0.00     0.204 C 
BRANCH  36  40
HETATM   40  C20 UNL     1      11.369   3.463  -5.080  1.00  0.00     0.198 C 
BRANCH  40  41
HETATM   41  O13 UNL     1      11.530   2.524  -6.125  1.00  0.00    -0.398 OA
ATOM     42  H13 UNL     1      12.082   2.917  -6.791  1.00  0.00     0.209 HD
ENDBRANCH  40  41
ENDBRANCH  36  40
BRANCH  37  43
HETATM   43  O14 UNL     1      10.760   0.890  -4.037  1.00  0.00    -0.390 OA
ATOM     44  H14 UNL     1      11.465   0.474  -3.554  1.00  0.00     0.210 HD
ENDBRANCH  37  43
BRANCH  38  45
HETATM   45  O15 UNL     1       8.168   1.195  -3.478  1.00  0.00    -0.390 OA
ATOM     46  H15 UNL     1       7.565   0.637  -3.001  1.00  0.00     0.210 HD
ENDBRANCH  38  45
BRANCH  39  47
HETATM   47  O16 UNL     1       8.534   2.869  -0.617  1.00  0.00    -0.388 OA
ATOM     48  H16 UNL     1       8.747   1.977  -0.368  1.00  0.00     0.210 HD
ENDBRANCH  39  47
ENDBRANCH  33  34
ENDBRANCH  32  33
ENDBRANCH  31  32
ENDBRANCH  30  31
ENDBRANCH  29  30
ENDBRANCH  28  29
ENDBRANCH   8  28
BRANCH   6  49
HETATM   49  C11 UNL     1      10.391  -0.258   4.958  1.00  0.00     0.198 C 
BRANCH  49  50
HETATM   50  O8  UNL     1      11.398  -0.216   5.929  1.00  0.00    -0.398 OA
ATOM     51  H8  UNL     1      11.362  -0.978   6.495  1.00  0.00     0.209 HD
ENDBRANCH  49  50
ENDBRANCH   6  49
BRANCH   7  52
HETATM   52  O9  UNL     1      10.601   2.386   4.382  1.00  0.00    -0.390 OA
ATOM     53  H9  UNL     1      11.433   2.813   4.213  1.00  0.00     0.210 HD
ENDBRANCH   7  52
TORSDOF 23
ENDMDL
MODEL 2
REMARK VINA RESULT: -9.002421157      0.855      1.730
REMARK  23 active torsions:
REMARK  status: ('A' for Active; 'I' for Inactive)
REMARK    1  A    between atoms: C3_4  and  O1_5 
REMARK    2  A    between atoms: O1_5  and  C4_6 
REMARK    3  A    between atoms: C5_8  and  O3_9 
REMARK    4  A    between atoms: C6_11  and  O4_12 
REMARK    5  A    between atoms: C7_14  and  O5_15 
REMARK    6  A    between atoms: C8_17  and  C9_18 
REMARK    7  A    between atoms: C9_18  and  O6_19 
REMARK    8  A    between atoms: C10_22  and  C11_23 
REMARK    9  A    between atoms: C11_23  and  O8_24 
REMARK   10  A    between atoms: C12_26  and  O9_27 
REMARK   11  A    between atoms: C13_29  and  O10_30 
REMARK   12  A    between atoms: O10_30  and  C14_31 
REMARK   13  A    between atoms: C14_31  and  C15_32 
REMARK   14  A    between atoms: C15_32  and  C16_33 
REMARK   15  A    between atoms: C16_33  and  C17_34 
REMARK   16  A    between atoms: C17_34  and  O11_35 
REMARK   17  A    between atoms: O11_35  and  C18_36 
REMARK   18  A    between atoms: C19_38  and  C20_39 
REMARK   19  A    between atoms: C20_39  and  O13_40 
REMARK   20  A    between atoms: C21_42  and  O14_43 
REMARK   21  A    between atoms: C22_45  and  O15_46 
REMARK   22  A    between atoms: C23_48  and  O16_49 
REMARK   23  A    between atoms: C24_51  and  O17_52 
ROOT
HETATM    1  N1  UNL     1      11.566  -0.501  -1.717  1.00  0.00    -0.197 NA
HETATM    2  C1  UNL     1      11.602  -0.163  -0.590  1.00  0.00     0.071 C 
HETATM    3  C2  UNL     1      11.634   0.280   0.803  1.00  0.00     0.179 C 
HETATM    4  C3  UNL     1      11.602  -0.908   1.700  1.00  0.00     0.283 C 
HETATM    5  O7  UNL     1      10.573  -0.725   2.627  1.00  0.00    -0.350 OA
HETATM    6  C10 UNL     1      10.889   0.198   3.595  1.00  0.00     0.179 C 
HETATM    7  C12 UNL     1      10.170   1.524   3.380  1.00  0.00     0.180 C 
HETATM    8  C13 UNL     1      10.651   2.200   2.113  1.00  0.00     0.182 C 
HETATM    9  C24 UNL     1      10.479   1.231   0.985  1.00  0.00     0.172 C 
ENDROOT
BRANCH   4  10
HETATM   10  O1  UNL     1      11.400  -2.056   0.946  1.00  0.00    -0.329 OA
BRANCH  10  11
HETATM   11  C4  UNL     1      12.008  -3.140   1.517  1.00  0.00     0.275 C 
HETATM   12  O2  UNL     1      13.326  -3.261   1.102  1.00  0.00    -0.328 OA
HETATM   13  C5  UNL     1      14.018  -4.243   1.762  1.00  0.00     0.291 C 
HETATM   14  C6  UNL     1      13.176  -5.080   2.674  1.00  0.00     0.202 C 
HETATM   15  C7  UNL     1      11.872  -5.505   2.082  1.00  0.00     0.162 C 
HETATM   16  C8  UNL     1      11.320  -4.442   1.157  1.00  0.00     0.096 C 
BRANCH  13  17
HETATM   17  O3  UNL     1      14.999  -3.615   2.550  1.00  0.00    -0.368 OA
ATOM     18  H3  UNL     1      15.422  -4.287   3.071  1.00  0.00     0.212 HD
ENDBRANCH  13  17
BRANCH  14  19
HETATM   19  O4  UNL     1      13.912  -6.259   2.937  1.00  0.00    -0.388 OA
ATOM     20  H4  UNL     1      13.277  -6.955   3.057  1.00  0.00     0.210 HD
ENDBRANCH  14  19
BRANCH  15  21
HETATM   21  O5  UNL     1      10.942  -5.635   3.137  1.00  0.00    -0.392 OA
ATOM     22  H5  UNL     1      10.317  -4.924   3.061  1.00  0.00     0.210 HD
ENDBRANCH  15  21
BRANCH  16  23
HETATM   23  C9  UNL     1      11.635  -4.852  -0.270  1.00  0.00     0.176 C 
BRANCH  23  24
HETATM   24  O6  UNL     1      11.554  -3.727  -1.118  1.00  0.00    -0.400 OA
ATOM     25  H6  UNL     1      12.293  -3.721  -1.714  1.00  0.00     0.209 HD
ENDBRANCH  23  24
ENDBRANCH  16  23
ENDBRANCH  10  11
ENDBRANCH   4  10
BRANCH   9  26
HETATM   26  O17 UNL     1       9.297   0.539   1.067  1.00  0.00    -0.391 OA
ATOM     27  H17 UNL     1       8.811   0.803   1.840  1.00  0.00     0.210 HD
ENDBRANCH   9  26
BRANCH   8  28
HETATM   28  O10 UNL     1       9.991   3.391   1.917  1.00  0.00    -0.381 OA
BRANCH  28  29
HETATM   29  C14 UNL     1      10.812   4.507   2.024  1.00  0.00     0.168 C 
BRANCH  29  30
HETATM   30  C15 UNL     1      11.177   4.965   0.653  1.00  0.00     0.028 C 
BRANCH  30  31
HETATM   31  C16 UNL     1      10.262   6.077   0.126  1.00  0.00     0.028 C 
BRANCH  31  32
HETATM   32  C17 UNL     1       9.218   5.477  -0.740  1.00  0.00     0.171 C 
BRANCH  32  33
HETATM   33  O11 UNL     1       9.481   5.683  -2.074  1.00  0.00    -0.359 OA
BRANCH  33  34
HETATM   34  C18 UNL     1       9.744   4.547  -2.802  1.00  0.00     0.291 C 
HETATM   35  O12 UNL     1       9.344   3.463  -1.974  1.00  0.00    -0.348 OA
HETATM   36  C19 UNL     1       9.604   2.243  -2.561  1.00  0.00     0.179 C 
HETATM   37  C21 UNL     1      10.343   2.315  -3.856  1.00  0.00     0.180 C 
HETATM   38  C22 UNL     1      11.599   3.113  -3.668  1.00  0.00     0.183 C 
HETATM   39  C23 UNL     1      11.223   4.451  -3.057  1.00  0.00     0.204 C 
BRANCH  36  40
HETATM   40  C20 UNL     1       8.309   1.451  -2.741  1.00  0.00     0.198 C 
BRANCH  40  41
HETATM   41  O13 UNL     1       8.636   0.076  -2.756  1.00  0.00    -0.398 OA
ATOM     42  H13 UNL     1       7.864  -0.412  -2.495  1.00  0.00     0.209 HD
ENDBRANCH  40  41
ENDBRANCH  36  40
BRANCH  37  43
HETATM   43  O14 UNL     1      10.703   1.011  -4.210  1.00  0.00    -0.390 OA
ATOM     44  H14 UNL     1      11.633   1.014  -4.404  1.00  0.00     0.210 HD
ENDBRANCH  37  43
BRANCH  38  45
HETATM   45  O15 UNL     1      12.433   2.431  -2.755  1.00  0.00    -0.390 OA
ATOM     46  H15 UNL     1      13.064   1.919  -3.246  1.00  0.00     0.210 HD
ENDBRANCH  38  45
BRANCH  39  47
HETATM   47  O16 UNL     1      11.619   5.445  -3.930  1.00  0.00    -0.388 OA
ATOM     48  H16 UNL     1      12.114   6.110  -3.464  1.00  0.00     0.210 HD
ENDBRANCH  39  47
ENDBRANCH  33  34
ENDBRANCH  32  33
ENDBRANCH  31  32
ENDBRANCH  30  31
ENDBRANCH  29  30
ENDBRANCH  28  29
ENDBRANCH   8  28
BRANCH   6  49
HETATM   49  C11 UNL     1      10.417  -0.338   4.932  1.00  0.00     0.198 C 
BRANCH  49  50
HETATM   50  O8  UNL     1      11.425  -0.245   5.898  1.00  0.00    -0.398 OA
ATOM     51  H8  UNL     1      11.130   0.244   6.657  1.00  0.00     0.209 HD
ENDBRANCH  49  50
ENDBRANCH   6  49
BRANCH   7  52
HETATM   52  O9  UNL     1      10.406   2.336   4.467  1.00  0.00    -0.390 OA
ATOM     53  H9  UNL     1       9.666   2.923   4.575  1.00  0.00     0.210 HD
ENDBRANCH   7  52
TORSDOF 23
ENDMDL
MODEL 3
REMARK VINA RESULT: -8.980035476      0.929      1.143
REMARK  23 active torsions:
REMARK  status: ('A' for Active; 'I' for Inactive)
REMARK    1  A    between atoms: C3_4  and  O1_5 
REMARK    2  A    between atoms: O1_5  and  C4_6 
REMARK    3  A    between atoms: C5_8  and  O3_9 
REMARK    4  A    between atoms: C6_11  and  O4_12 
REMARK    5  A    between atoms: C7_14  and  O5_15 
REMARK    6  A    between atoms: C8_17  and  C9_18 
REMARK    7  A    between atoms: C9_18  and  O6_19 
REMARK    8  A    between atoms: C10_22  and  C11_23 
REMARK    9  A    between atoms: C11_23  and  O8_24 
REMARK   10  A    between atoms: C12_26  and  O9_27 
REMARK   11  A    between atoms: C13_29  and  O10_30 
REMARK   12  A    between atoms: O10_30  and  C14_31 
REMARK   13  A    between atoms: C14_31  and  C15_32 
REMARK   14  A    between atoms: C15_32  and  C16_33 
REMARK   15  A    between atoms: C16_33  and  C17_34 
REMARK   16  A    between atoms: C17_34  and  O11_35 
REMARK   17  A    between atoms: O11_35  and  C18_36 
REMARK   18  A    between atoms: C19_38  and  C20_39 
REMARK   19  A    between atoms: C20_39  and  O13_40 
REMARK   20  A    between atoms: C21_42  and  O14_43 
REMARK   21  A    between atoms: C22_45  and  O15_46 
REMARK   22  A    between atoms: C23_48  and  O16_49 
REMARK   23  A    between atoms: C24_51  and  O17_52 
ROOT
HETATM    1  N1  UNL     1      11.607  -0.730  -1.650  1.00  0.00    -0.197 NA
HETATM    2  C1  UNL     1      11.638  -0.361  -0.532  1.00  0.00     0.071 C 
HETATM    3  C2  UNL     1      11.667   0.121   0.848  1.00  0.00     0.179 C 
HETATM    4  C3  UNL     1      11.523  -1.034   1.777  1.00  0.00     0.283 C 
HETATM    5  O7  UNL     1      10.486  -0.749   2.669  1.00  0.00    -0.350 OA
HETATM    6  C10 UNL     1      10.844   0.178   3.619  1.00  0.00     0.179 C 
HETATM    7  C12 UNL     1      10.232   1.545   3.346  1.00  0.00     0.180 C 
HETATM    8  C13 UNL     1      10.794   2.146   2.075  1.00  0.00     0.182 C 
HETATM    9  C24 UNL     1      10.580   1.158   0.970  1.00  0.00     0.172 C 
ENDROOT
BRANCH   4  10
HETATM   10  O1  UNL     1      11.256  -2.187   1.050  1.00  0.00    -0.329 OA
BRANCH  10  11
HETATM   11  C4  UNL     1      11.927  -3.264   1.562  1.00  0.00     0.275 C 
HETATM   12  O2  UNL     1      13.245  -3.295   1.130  1.00  0.00    -0.328 OA
HETATM   13  C5  UNL     1      13.994  -4.270   1.735  1.00  0.00     0.291 C 
HETATM   14  C6  UNL     1      13.207  -5.194   2.611  1.00  0.00     0.202 C 
HETATM   15  C7  UNL     1      11.921  -5.657   2.010  1.00  0.00     0.162 C 
HETATM   16  C8  UNL     1      11.304  -4.581   1.144  1.00  0.00     0.096 C 
BRANCH  13  17
HETATM   17  O3  UNL     1      14.950  -3.631   2.544  1.00  0.00    -0.368 OA
ATOM     18  H3  UNL     1      15.699  -3.428   1.997  1.00  0.00     0.212 HD
ENDBRANCH  13  17
BRANCH  14  19
HETATM   19  O4  UNL     1      14.006  -6.344   2.810  1.00  0.00    -0.388 OA
ATOM     20  H4  UNL     1      13.819  -6.934   2.090  1.00  0.00     0.210 HD
ENDBRANCH  14  19
BRANCH  15  21
HETATM   21  O5  UNL     1      11.011  -5.888   3.066  1.00  0.00    -0.392 OA
ATOM     22  H5  UNL     1      10.753  -5.043   3.416  1.00  0.00     0.210 HD
ENDBRANCH  15  21
BRANCH  16  23
HETATM   23  C9  UNL     1      11.623  -4.904  -0.304  1.00  0.00     0.176 C 
BRANCH  23  24
HETATM   24  O6  UNL     1      11.349  -3.781  -1.114  1.00  0.00    -0.400 OA
ATOM     25  H6  UNL     1      10.433  -3.544  -1.034  1.00  0.00     0.209 HD
ENDBRANCH  23  24
ENDBRANCH  16  23
ENDBRANCH  10  11
ENDBRANCH   4  10
BRANCH   9  26
HETATM   26  O17 UNL     1       9.349   0.557   1.039  1.00  0.00    -0.391 OA
ATOM     27  H17 UNL     1       9.218  -0.020   0.295  1.00  0.00     0.210 HD
ENDBRANCH   9  26
BRANCH   8  28
HETATM   28  O10 UNL     1      10.229   3.376   1.827  1.00  0.00    -0.381 OA
BRANCH  28  29
HETATM   29  C14 UNL     1      11.149   4.417   1.803  1.00  0.00     0.168 C 
BRANCH  29  30
HETATM   30  C15 UNL     1      10.771   5.364   0.716  1.00  0.00     0.028 C 
BRANCH  30  31
HETATM   31  C16 UNL     1       9.276   5.327   0.378  1.00  0.00     0.028 C 
BRANCH  31  32
HETATM   32  C17 UNL     1       9.051   6.032  -0.908  1.00  0.00     0.171 C 
BRANCH  32  33
HETATM   33  O11 UNL     1       8.259   5.299  -1.760  1.00  0.00    -0.359 OA
BRANCH  33  34
HETATM   34  C18 UNL     1       8.777   4.086  -2.145  1.00  0.00     0.291 C 
HETATM   35  O12 UNL     1      10.140   4.338  -2.461  1.00  0.00    -0.348 OA
HETATM   36  C19 UNL     1      10.780   3.206  -2.920  1.00  0.00     0.179 C 
HETATM   37  C21 UNL     1       9.897   2.016  -3.099  1.00  0.00     0.180 C 
HETATM   38  C22 UNL     1       8.737   2.384  -3.975  1.00  0.00     0.183 C 
HETATM   39  C23 UNL     1       8.066   3.609  -3.381  1.00  0.00     0.204 C 
BRANCH  36  40
HETATM   40  C20 UNL     1      11.957   2.853  -2.012  1.00  0.00     0.198 C 
BRANCH  40  41
HETATM   41  O13 UNL     1      12.875   2.085  -2.763  1.00  0.00    -0.398 OA
ATOM     42  H13 UNL     1      13.662   2.604  -2.885  1.00  0.00     0.209 HD
ENDBRANCH  40  41
ENDBRANCH  36  40
BRANCH  37  43
HETATM   43  O14 UNL     1      10.643   1.032  -3.755  1.00  0.00    -0.390 OA
ATOM     44  H14 UNL     1      10.058   0.308  -3.946  1.00  0.00     0.210 HD
ENDBRANCH  37  43
BRANCH  38  45
HETATM   45  O15 UNL     1       9.229   2.728  -5.253  1.00  0.00    -0.390 OA
ATOM     46  H15 UNL     1       8.679   3.413  -5.615  1.00  0.00     0.210 HD
ENDBRANCH  38  45
BRANCH  39  47
HETATM   47  O16 UNL     1       6.761   3.276  -3.078  1.00  0.00    -0.388 OA
ATOM     48  H16 UNL     1       6.186   4.011  -3.260  1.00  0.00     0.210 HD
ENDBRANCH  39  47
ENDBRANCH  33  34
ENDBRANCH  32  33
ENDBRANCH  31  32
ENDBRANCH  30  31
ENDBRANCH  29  30
ENDBRANCH  28  29
ENDBRANCH   8  28
BRANCH   6  49
HETATM   49  C11 UNL     1      10.299  -0.281   4.956  1.00  0.00     0.198 C 
BRANCH  49  50
HETATM   50  O8  UNL     1      11.295  -0.268   5.940  1.00  0.00    -0.398 OA
ATOM     51  H8  UNL     1      11.624   0.611   6.084  1.00  0.00     0.209 HD
ENDBRANCH  49  50
ENDBRANCH   6  49
BRANCH   7  52
HETATM   52  O9  UNL     1      10.498   2.371   4.416  1.00  0.00    -0.390 OA
ATOM     53  H9  UNL     1      10.303   3.266   4.166  1.00  0.00     0.210 HD
ENDBRANCH   7  52
TORSDOF 23
ENDMDL
MODEL 4
REMARK VINA RESULT: -8.906656547      1.122      1.467
REMARK  23 active torsions:
REMARK  status: ('A' for Active; 'I' for Inactive)
REMARK    1  A    between atoms: C3_4  and  O1_5 
REMARK    2  A    between atoms: O1_5  and  C4_6 
REMARK    3  A    between atoms: C5_8  and  O3_9 
REMARK    4  A    between atoms: C6_11  and  O4_12 
REMARK    5  A    between atoms: C7_14  and  O5_15 
REMARK    6  A    between atoms: C8_17  and  C9_18 
REMARK    7  A    between atoms: C9_18  and  O6_19 
REMARK    8  A    between atoms: C10_22  and  C11_23 
REMARK    9  A    between atoms: C11_23  and  O8_24 
REMARK   10  A    between atoms: C12_26  and  O9_27 
REMARK   11  A    between atoms: C13_29  and  O10_30 
REMARK   12  A    between atoms: O10_30  and  C14_31 
REMARK   13  A    between atoms: C14_31  and  C15_32 
REMARK   14  A    between atoms: C15_32  and  C16_33 
REMARK   15  A    between atoms: C16_33  and  C17_34 
REMARK   16  A    between atoms: C17_34  and  O11_35 
REMARK   17  A    between atoms: O11_35  and  C18_36 
REMARK   18  A    between atoms: C19_38  and  C20_39 
REMARK   19  A    between atoms: C20_39  and  O13_40 
REMARK   20  A    between atoms: C21_42  and  O14_43 
REMARK   21  A    between atoms: C22_45  and  O15_46 
REMARK   22  A    between atoms: C23_48  and  O16_49 
REMARK   23  A    between atoms: C24_51  and  O17_52 
ROOT
HETATM    1  N1  UNL     1      11.509  -0.618  -1.695  1.00  0.00    -0.197 NA
HETATM    2  C1  UNL     1      11.559  -0.264  -0.573  1.00  0.00     0.071 C 
HETATM    3  C2  UNL     1      11.611   0.199   0.812  1.00  0.00     0.179 C 
HETATM    4  C3  UNL     1      11.525  -0.971   1.728  1.00  0.00     0.283 C 
HETATM    5  O7  UNL     1      10.505  -0.728   2.651  1.00  0.00    -0.350 OA
HETATM    6  C10 UNL     1      10.861   0.196   3.605  1.00  0.00     0.179 C 
HETATM    7  C12 UNL     1      10.202   1.548   3.368  1.00  0.00     0.180 C 
HETATM    8  C13 UNL     1      10.713   2.182   2.091  1.00  0.00     0.182 C 
HETATM    9  C24 UNL     1      10.499   1.203   0.978  1.00  0.00     0.172 C 
ENDROOT
BRANCH   4  10
HETATM   10  O1  UNL     1      11.272  -2.121   0.992  1.00  0.00    -0.329 OA
BRANCH  10  11
HETATM   11  C4  UNL     1      11.928  -3.202   1.517  1.00  0.00     0.275 C 
HETATM   12  O2  UNL     1      13.246  -3.255   1.087  1.00  0.00    -0.328 OA
HETATM   13  C5  UNL     1      13.982  -4.233   1.703  1.00  0.00     0.291 C 
HETATM   14  C6  UNL     1      13.182  -5.137   2.588  1.00  0.00     0.202 C 
HETATM   15  C7  UNL     1      11.890  -5.590   1.990  1.00  0.00     0.162 C 
HETATM   16  C8  UNL     1      11.288  -4.515   1.112  1.00  0.00     0.096 C 
BRANCH  13  17
HETATM   17  O3  UNL     1      14.945  -3.597   2.506  1.00  0.00    -0.368 OA
ATOM     18  H3  UNL     1      15.728  -4.134   2.494  1.00  0.00     0.212 HD
ENDBRANCH  13  17
BRANCH  14  19
HETATM   19  O4  UNL     1      13.965  -6.295   2.800  1.00  0.00    -0.388 OA
ATOM     20  H4  UNL     1      14.613  -6.069   3.458  1.00  0.00     0.210 HD
ENDBRANCH  14  19
BRANCH  15  21
HETATM   21  O5  UNL     1      10.976  -5.797   3.047  1.00  0.00    -0.392 OA
ATOM     22  H5  UNL     1      10.106  -5.852   2.670  1.00  0.00     0.210 HD
ENDBRANCH  15  21
BRANCH  16  23
HETATM   23  C9  UNL     1      11.605  -4.857  -0.332  1.00  0.00     0.176 C 
BRANCH  23  24
HETATM   24  O6  UNL     1      11.541  -3.690  -1.123  1.00  0.00    -0.400 OA
ATOM     25  H6  UNL     1      11.027  -3.859  -1.904  1.00  0.00     0.209 HD
ENDBRANCH  23  24
ENDBRANCH  16  23
ENDBRANCH  10  11
ENDBRANCH   4  10
BRANCH   9  26
HETATM   26  O17 UNL     1       9.287   0.566   1.070  1.00  0.00    -0.391 OA
ATOM     27  H17 UNL     1       8.880   0.500   0.214  1.00  0.00     0.210 HD
ENDBRANCH   9  26
BRANCH   8  28
HETATM   28  O10 UNL     1      10.106   3.398   1.875  1.00  0.00    -0.381 OA
BRANCH  28  29
HETATM   29  C14 UNL     1      10.995   4.412   1.538  1.00  0.00     0.168 C 
BRANCH  29  30
HETATM   30  C15 UNL     1      10.403   5.219   0.434  1.00  0.00     0.028 C 
BRANCH  30  31
HETATM   31  C16 UNL     1      11.361   6.283  -0.115  1.00  0.00     0.028 C 
BRANCH  31  32
HETATM   32  C17 UNL     1      11.521   6.083  -1.576  1.00  0.00     0.171 C 
BRANCH  32  33
HETATM   33  O11 UNL     1      12.092   4.865  -1.865  1.00  0.00    -0.359 OA
BRANCH  33  34
HETATM   34  C18 UNL     1      11.602   4.240  -2.987  1.00  0.00     0.291 C 
HETATM   35  O12 UNL     1      10.289   4.753  -3.166  1.00  0.00    -0.348 OA
HETATM   36  C19 UNL     1       9.649   4.167  -4.237  1.00  0.00     0.179 C 
HETATM   37  C21 UNL     1      10.406   3.059  -4.891  1.00  0.00     0.180 C 
HETATM   38  C22 UNL     1      10.791   2.042  -3.858  1.00  0.00     0.183 C 
HETATM   39  C23 UNL     1      11.523   2.759  -2.737  1.00  0.00     0.204 C 
BRANCH  36  40
HETATM   40  C20 UNL     1       9.268   5.223  -5.274  1.00  0.00     0.198 C 
BRANCH  40  41
HETATM   41  O13 UNL     1      10.191   5.143  -6.341  1.00  0.00    -0.398 OA
ATOM     42  H13 UNL     1      10.085   4.297  -6.759  1.00  0.00     0.209 HD
ENDBRANCH  40  41
ENDBRANCH  36  40
BRANCH  37  43
HETATM   43  O14 UNL     1       9.549   2.446  -5.809  1.00  0.00    -0.390 OA
ATOM     44  H14 UNL     1       8.871   1.999  -5.314  1.00  0.00     0.210 HD
ENDBRANCH  37  43
BRANCH  38  45
HETATM   45  O15 UNL     1       9.613   1.477  -3.323  1.00  0.00    -0.390 OA
ATOM     46  H15 UNL     1       9.724   1.376  -2.385  1.00  0.00     0.210 HD
ENDBRANCH  38  45
BRANCH  39  47
HETATM   47  O16 UNL     1      12.792   2.225  -2.646  1.00  0.00    -0.388 OA
ATOM     48  H16 UNL     1      12.764   1.288  -2.803  1.00  0.00     0.210 HD
ENDBRANCH  39  47
ENDBRANCH  33  34
ENDBRANCH  32  33
ENDBRANCH  31  32
ENDBRANCH  30  31
ENDBRANCH  29  30
ENDBRANCH  28  29
ENDBRANCH   8  28
BRANCH   6  49
HETATM   49  C11 UNL     1      10.365  -0.298   4.949  1.00  0.00     0.198 C 
BRANCH  49  50
HETATM   50  O8  UNL     1      11.379  -0.245   5.913  1.00  0.00    -0.398 OA
ATOM     51  H8  UNL     1      11.100  -0.644   6.728  1.00  0.00     0.209 HD
ENDBRANCH  49  50
ENDBRANCH   6  49
BRANCH   7  52
HETATM   52  O9  UNL     1      10.473   2.366   4.442  1.00  0.00    -0.390 OA
ATOM     53  H9  UNL     1      11.394   2.598   4.424  1.00  0.00     0.210 HD
ENDBRANCH   7  52
TORSDOF 23
ENDMDL
MODEL 5
REMARK VINA RESULT: -8.895477903      0.866      1.106
REMARK  23 active torsions:
REMARK  status: ('A' for Active; 'I' for Inactive)
REMARK    1  A    between atoms: C3_4  and  O1_5 
REMARK    2  A    between atoms: O1_5  and  C4_6 
REMARK    3  A    between atoms: C5_8  and  O3_9 
REMARK    4  A    between atoms: C6_11  and  O4_12 
REMARK    5  A    between atoms: C7_14  and  O5_15 
REMARK    6  A    between atoms: C8_17  and  C9_18 
REMARK    7  A    between atoms: C9_18  and  O6_19 
REMARK    8  A    between atoms: C10_22  and  C11_23 
REMARK    9  A    between atoms: C11_23  and  O8_24 
REMARK   10  A    between atoms: C12_26  and  O9_27 
REMARK   11  A    between atoms: C13_29  and  O10_30 
REMARK   12  A    between atoms: O10_30  and  C14_31 
REMARK   13  A    between atoms: C14_31  and  C15_32 
REMARK   14  A    between atoms: C15_32  and  C16_33 
REMARK   15  A    between atoms: C16_33  and  C17_34 
REMARK   16  A    between atoms: C17_34  and  O11_35 
REMARK   17  A    between atoms: O11_35  and  C18_36 
REMARK   18  A    between atoms: C19_38  and  C20_39 
REMARK   19  A    between atoms: C20_39  and  O13_40 
REMARK   20  A    between atoms: C21_42  and  O14_43 
REMARK   21  A    between atoms: C22_45  and  O15_46 
REMARK   22  A    between atoms: C23_48  and  O16_49 
REMARK   23  A    between atoms: C24_51  and  O17_52 
ROOT
HETATM    1  N1  UNL     1      11.472  -0.579  -1.721  1.00  0.00    -0.197 NA
HETATM    2  C1  UNL     1      11.533  -0.235  -0.597  1.00  0.00     0.071 C 
HETATM    3  C2  UNL     1      11.598   0.217   0.792  1.00  0.00     0.179 C 
HETATM    4  C3  UNL     1      11.545  -0.964   1.698  1.00  0.00     0.283 C 
HETATM    5  O7  UNL     1      10.534  -0.745   2.637  1.00  0.00    -0.350 OA
HETATM    6  C10 UNL     1      10.890   0.176   3.595  1.00  0.00     0.179 C 
HETATM    7  C12 UNL     1      10.207   1.520   3.380  1.00  0.00     0.180 C 
HETATM    8  C13 UNL     1      10.689   2.173   2.102  1.00  0.00     0.182 C 
HETATM    9  C24 UNL     1      10.473   1.201   0.983  1.00  0.00     0.172 C 
ENDROOT
BRANCH   4  10
HETATM   10  O1  UNL     1      11.299  -2.111   0.955  1.00  0.00    -0.329 OA
BRANCH  10  11
HETATM   11  C4  UNL     1      11.951  -3.193   1.480  1.00  0.00     0.275 C 
HETATM   12  O2  UNL     1      13.283  -3.221   1.094  1.00  0.00    -0.328 OA
HETATM   13  C5  UNL     1      14.010  -4.202   1.716  1.00  0.00     0.291 C 
HETATM   14  C6  UNL     1      13.193  -5.133   2.557  1.00  0.00     0.202 C 
HETATM   15  C7  UNL     1      11.928  -5.590   1.907  1.00  0.00     0.162 C 
HETATM   16  C8  UNL     1      11.342  -4.506   1.029  1.00  0.00     0.096 C 
BRANCH  13  17
HETATM   17  O3  UNL     1      14.937  -3.570   2.564  1.00  0.00    -0.368 OA
ATOM     18  H3  UNL     1      15.552  -4.231   2.860  1.00  0.00     0.212 HD
ENDBRANCH  13  17
BRANCH  14  19
HETATM   19  O4  UNL     1      13.984  -6.285   2.773  1.00  0.00    -0.388 OA
ATOM     20  H4  UNL     1      14.250  -6.266   3.685  1.00  0.00     0.210 HD
ENDBRANCH  14  19
BRANCH  15  21
HETATM   21  O5  UNL     1      10.981  -5.829   2.928  1.00  0.00    -0.392 OA
ATOM     22  H5  UNL     1      11.346  -5.504   3.743  1.00  0.00     0.210 HD
ENDBRANCH  15  21
BRANCH  16  23
HETATM   23  C9  UNL     1      11.711  -4.816  -0.409  1.00  0.00     0.176 C 
BRANCH  23  24
HETATM   24  O6  UNL     1      11.494  -3.677  -1.213  1.00  0.00    -0.400 OA
ATOM     25  H6  UNL     1      12.063  -3.707  -1.973  1.00  0.00     0.209 HD
ENDBRANCH  23  24
ENDBRANCH  16  23
ENDBRANCH  10  11
ENDBRANCH   4  10
BRANCH   9  26
HETATM   26  O17 UNL     1       9.273   0.544   1.087  1.00  0.00    -0.391 OA
ATOM     27  H17 UNL     1       8.569   1.082   0.745  1.00  0.00     0.210 HD
ENDBRANCH   9  26
BRANCH   8  28
HETATM   28  O10 UNL     1      10.060   3.381   1.906  1.00  0.00    -0.381 OA
BRANCH  28  29
HETATM   29  C14 UNL     1      10.926   4.468   1.919  1.00  0.00     0.168 C 
BRANCH  29  30
HETATM   30  C15 UNL     1      10.435   5.481   0.942  1.00  0.00     0.028 C 
BRANCH  30  31
HETATM   31  C16 UNL     1      11.538   6.009   0.015  1.00  0.00     0.028 C 
BRANCH  31  32
HETATM   32  C17 UNL     1      11.362   5.418  -1.334  1.00  0.00     0.171 C 
BRANCH  32  33
HETATM   33  O11 UNL     1      11.232   4.050  -1.279  1.00  0.00    -0.359 OA
BRANCH  33  34
HETATM   34  C18 UNL     1      10.444   3.496  -2.259  1.00  0.00     0.291 C 
HETATM   35  O12 UNL     1      10.797   4.173  -3.458  1.00  0.00    -0.348 OA
HETATM   36  C19 UNL     1      10.038   3.752  -4.529  1.00  0.00     0.179 C 
HETATM   37  C21 UNL     1       8.951   2.788  -4.188  1.00  0.00     0.180 C 
HETATM   38  C22 UNL     1       8.095   3.367  -3.101  1.00  0.00     0.183 C 
HETATM   39  C23 UNL     1       8.998   3.766  -1.949  1.00  0.00     0.204 C 
BRANCH  36  40
HETATM   40  C20 UNL     1      10.933   3.167  -5.620  1.00  0.00     0.198 C 
BRANCH  40  41
HETATM   41  O13 UNL     1      10.942   1.762  -5.473  1.00  0.00    -0.398 OA
ATOM     42  H13 UNL     1      11.552   1.542  -4.779  1.00  0.00     0.209 HD
ENDBRANCH  40  41
ENDBRANCH  36  40
BRANCH  37  43
HETATM   43  O14 UNL     1       8.159   2.624  -5.328  1.00  0.00    -0.390 OA
ATOM     44  H14 UNL     1       7.250   2.663  -5.053  1.00  0.00     0.210 HD
ENDBRANCH  37  43
BRANCH  38  45
HETATM   45  O15 UNL     1       7.471   4.534  -3.595  1.00  0.00    -0.390 OA
ATOM     46  H15 UNL     1       7.855   4.750  -4.436  1.00  0.00     0.210 HD
ENDBRANCH  38  45
BRANCH  39  47
HETATM   47  O16 UNL     1       8.610   3.049  -0.835  1.00  0.00    -0.388 OA
ATOM     48  H16 UNL     1       7.681   3.172  -0.675  1.00  0.00     0.210 HD
ENDBRANCH  39  47
ENDBRANCH  33  34
ENDBRANCH  32  33
ENDBRANCH  31  32
ENDBRANCH  30  31
ENDBRANCH  29  30
ENDBRANCH  28  29
ENDBRANCH   8  28
BRANCH   6  49
HETATM   49  C11 UNL     1      10.423  -0.338   4.942  1.00  0.00     0.198 C 
BRANCH  49  50
HETATM   50  O8  UNL     1      11.419  -0.190   5.913  1.00  0.00    -0.398 OA
ATOM     51  H8  UNL     1      11.308   0.619   6.400  1.00  0.00     0.209 HD
ENDBRANCH  49  50
ENDBRANCH   6  49
BRANCH   7  52
HETATM   52  O9  UNL     1      10.481   2.332   4.458  1.00  0.00    -0.390 OA
ATOM     53  H9  UNL     1      10.703   3.199   4.138  1.00  0.00     0.210 HD
ENDBRANCH   7  52
TORSDOF 23
ENDMDL
