MODEL 1
REMARK VINA RESULT: -8.872790124      0.000      0.000
REMARK  18 active torsions:
REMARK  status: ('A' for Active; 'I' for Inactive)
REMARK    1  A    between atoms: C2_2  and  N1_3 
REMARK    2  A    between atoms: C2_2  and  C17_43 
REMARK    3  A    between atoms: N1_3  and  N2_5 
REMARK    4  A    between atoms: N2_5  and  N3_7 
REMARK       I    between atoms: N3_7  and  C3_9 
REMARK       I    between atoms: C3_9  and  N4_11 
REMARK    5  A    between atoms: N4_11  and  C4_13 
REMARK    6  A    between atoms: C6_18  and  O3_19 
REMARK    7  A    between atoms: O3_19  and  C7_20 
REMARK    8  A    between atoms: C8_21  and  N6_22 
REMARK    9  A    between atoms: C9_24  and  O4_25 
REMARK   10  A    between atoms: C9_24  and  C10_27 
REMARK   11  A    between atoms: C10_27  and  N7_28 
REMARK   12  A    between atoms: C15_37  and  O5_38 
REMARK   13  A    between atoms: C16_40  and  O6_41 
REMARK   14  A    between atoms: C18_47  and  S1_48 
REMARK   15  A    between atoms: S1_48  and  C19_49 
REMARK   16  A    between atoms: C19_49  and  C20_50 
REMARK   17  A    between atoms: C20_50  and  N9_51 
REMARK   18  A    between atoms: N9_51  and  C21_53 
ROOT
HETATM    1  N3  UNL     1      12.214  -0.365   0.228  1.00  0.00    -0.237 N 
ATOM      2  H3  UNL     1      13.150  -0.454  -0.169  1.00  0.00     0.193 HD
HETATM    3  C3  UNL     1      11.158   0.230  -0.562  1.00  0.00     0.337 C 
HETATM    4  O1  UNL     1      10.024   0.307  -0.034  1.00  0.00    -0.245 OA
HETATM    5  N4  UNL     1      11.442   0.690  -1.869  1.00  0.00    -0.318 N 
ATOM      6  H4  UNL     1      12.383   0.609  -2.252  1.00  0.00     0.166 HD
ENDROOT
BRANCH   5   7
HETATM    7  C4  UNL     1      10.364   1.287  -2.670  1.00  0.00     0.220 C 
HETATM    8  N5  UNL     1       9.310   1.754  -1.747  1.00  0.00    -0.335 N 
HETATM    9  C5  UNL     1       8.821   3.009  -2.203  1.00  0.00     0.251 C 
ATOM     10  H5  UNL     1       8.986   1.257  -0.918  1.00  0.00     0.164 HD
HETATM   11  O2  UNL     1       7.908   3.622  -1.587  1.00  0.00    -0.271 OA
HETATM   12  C6  UNL     1       9.568   3.352  -3.417  1.00  0.00     0.246 C 
HETATM   13  C16 UNL     1      10.867   2.593  -3.237  1.00  0.00     0.198 C 
BRANCH  12  14
HETATM   14  O3  UNL     1       9.713   4.670  -3.667  1.00  0.00    -0.360 OA
BRANCH  14  15
HETATM   15  C7  UNL     1      10.827   5.061  -4.394  1.00  0.00     0.197 C 
HETATM   16  C8  UNL     1      11.284   6.442  -3.971  1.00  0.00     0.023 C 
HETATM   17  C11 UNL     1      11.241   7.582  -4.871  1.00  0.00     0.098 C 
HETATM   18  C12 UNL     1      11.649   7.266  -6.285  1.00  0.00     0.107 C 
HETATM   19  C13 UNL     1      10.738   7.932  -7.288  1.00  0.00     0.052 C 
HETATM   20  F1  UNL     1      12.930   7.726  -6.506  1.00  0.00    -0.243 F 
HETATM   21  C14 UNL     1      11.634   5.782  -6.562  1.00  0.00     0.078 C 
HETATM   22  C15 UNL     1      10.463   5.178  -5.850  1.00  0.00     0.155 C 
BRANCH  16  23
HETATM   23  N6  UNL     1      11.706   6.525  -2.801  1.00  0.00    -0.344 N 
HETATM   24  C9  UNL     1      11.304   6.397  -1.506  1.00  0.00     0.141 C 
ATOM     25  H6  UNL     1      12.694   6.777  -2.820  1.00  0.00     0.167 HD
BRANCH  24  26
HETATM   26  O4  UNL     1      12.011   5.557  -0.797  1.00  0.00    -0.348 OA
ATOM     27  H4  UNL     1      11.884   5.628   0.142  1.00  0.00     0.219 HD
ENDBRANCH  24  26
BRANCH  24  28
HETATM   28  C10 UNL     1      10.218   7.039  -0.760  1.00  0.00     0.313 C 
BRANCH  28  29
HETATM   29  N7  UNL     1       8.908   6.442  -1.062  1.00  0.00    -0.072 N 
ATOM     30  H73 UNL     1       8.203   6.737  -0.388  1.00  0.00     0.274 HD
ATOM     31  H72 UNL     1       8.504   6.847  -1.907  1.00  0.00     0.274 HD
ATOM     32  H71 UNL     1       8.955   5.425  -1.127  1.00  0.00     0.274 HD
ENDBRANCH  28  29
ENDBRANCH  24  28
ENDBRANCH  16  23
BRANCH  22  33
HETATM   33  O5  UNL     1       9.349   6.021  -5.942  1.00  0.00    -0.393 OA
ATOM     34  H5  UNL     1       8.572   5.479  -5.866  1.00  0.00     0.210 HD
ENDBRANCH  22  33
ENDBRANCH  14  15
ENDBRANCH  12  14
BRANCH  13  35
HETATM   35  O6  UNL     1      11.665   3.169  -2.232  1.00  0.00    -0.389 OA
ATOM     36  H6  UNL     1      12.540   2.822  -2.364  1.00  0.00     0.210 HD
ENDBRANCH  13  35
ENDBRANCH   5   7
BRANCH   1  37
HETATM   37  N2  UNL     1      11.974  -0.811   1.503  1.00  0.00    -0.239 N 
ATOM     38  H2  UNL     1      11.853  -1.810   1.667  1.00  0.00     0.208 HD
BRANCH  37  39
HETATM   39  N1  UNL     1      11.893   0.066   2.574  1.00  0.00    -0.287 N 
ATOM     40  H1  UNL     1      12.540   0.855   2.563  1.00  0.00     0.188 HD
BRANCH  39  41
HETATM   41  C2  UNL     1      11.102  -0.001   3.569  1.00  0.00     0.069 C 
HETATM   42  C1  UNL     1      11.432  -0.773   4.789  1.00  0.00     0.074 C 
BRANCH  41  43
HETATM   43  C17 UNL     1       9.820   0.720   3.472  1.00  0.00     0.152 A 
HETATM   44  N8  UNL     1       8.780   0.508   2.664  1.00  0.00    -0.240 N 
HETATM   45  O7  UNL     1       7.850   1.401   2.925  1.00  0.00    -0.210 OA
ATOM     46  H8  UNL     1       8.717  -0.226   1.958  1.00  0.00     0.196 HD
HETATM   47  C18 UNL     1       8.235   2.199   3.878  1.00  0.00     0.210 A 
HETATM   48  N14 UNL     1       9.468   1.792   4.241  1.00  0.00    -0.313 N 
ATOM     49  H14 UNL     1      10.044   2.216   4.969  1.00  0.00     0.170 HD
BRANCH  47  50
HETATM   50  S1  UNL     1       7.277   3.550   4.542  1.00  0.00    -0.083 SA
BRANCH  50  51
HETATM   51  C19 UNL     1       7.529   5.036   3.558  1.00  0.00     0.102 C 
BRANCH  51  52
HETATM   52  C20 UNL     1       8.251   4.753   2.248  1.00  0.00     0.133 C 
BRANCH  52  53
HETATM   53  N9  UNL     1       9.612   5.213   2.279  1.00  0.00    -0.360 N 
ATOM     54  H9  UNL     1       9.829   6.188   2.486  1.00  0.00     0.162 HD
BRANCH  53  55
HETATM   55  C21 UNL     1      10.652   4.271   2.013  1.00  0.00     0.205 C 
HETATM   56  N10 UNL     1      11.701   4.021   2.721  1.00  0.00    -0.256 N 
HETATM   57  N11 UNL     1      12.477   3.031   2.126  1.00  0.00    -0.006 NA
ATOM     58  H10 UNL     1      11.931   4.487   3.599  1.00  0.00     0.187 HD
HETATM   59  N12 UNL     1      11.990   2.844   0.832  1.00  0.00    -0.006 NA
HETATM   60  N13 UNL     1      10.714   3.415   0.884  1.00  0.00    -0.256 N 
ATOM     61  H13 UNL     1       9.957   3.245   0.222  1.00  0.00     0.187 HD
ENDBRANCH  53  55
ENDBRANCH  52  53
ENDBRANCH  51  52
ENDBRANCH  50  51
ENDBRANCH  47  50
ENDBRANCH  41  43
ENDBRANCH  39  41
ENDBRANCH  37  39
ENDBRANCH   1  37
TORSDOF 18
ENDMDL
MODEL 2
REMARK VINA RESULT: -8.863019211      3.526      8.595
REMARK  18 active torsions:
REMARK  status: ('A' for Active; 'I' for Inactive)
REMARK    1  A    between atoms: C2_2  and  N1_3 
REMARK    2  A    between atoms: C2_2  and  C17_43 
REMARK    3  A    between atoms: N1_3  and  N2_5 
REMARK    4  A    between atoms: N2_5  and  N3_7 
REMARK       I    between atoms: N3_7  and  C3_9 
REMARK       I    between atoms: C3_9  and  N4_11 
REMARK    5  A    between atoms: N4_11  and  C4_13 
REMARK    6  A    between atoms: C6_18  and  O3_19 
REMARK    7  A    between atoms: O3_19  and  C7_20 
REMARK    8  A    between atoms: C8_21  and  N6_22 
REMARK    9  A    between atoms: C9_24  and  O4_25 
REMARK   10  A    between atoms: C9_24  and  C10_27 
REMARK   11  A    between atoms: C10_27  and  N7_28 
REMARK   12  A    between atoms: C15_37  and  O5_38 
REMARK   13  A    between atoms: C16_40  and  O6_41 
REMARK   14  A    between atoms: C18_47  and  S1_48 
REMARK   15  A    between atoms: S1_48  and  C19_49 
REMARK   16  A    between atoms: C19_49  and  C20_50 
REMARK   17  A    between atoms: C20_50  and  N9_51 
REMARK   18  A    between atoms: N9_51  and  C21_53 
ROOT
HETATM    1  N3  UNL     1       9.830   6.455  -0.016  1.00  0.00    -0.237 N 
ATOM      2  H3  UNL     1       8.818   6.563  -0.088  1.00  0.00     0.193 HD
HETATM    3  C3  UNL     1      10.379   5.427   0.842  1.00  0.00     0.337 C 
HETATM    4  O1  UNL     1      11.627   5.327   0.888  1.00  0.00    -0.245 OA
HETATM    5  N4  UNL     1       9.503   4.595   1.578  1.00  0.00    -0.318 N 
ATOM      6  H4  UNL     1       8.493   4.720   1.510  1.00  0.00     0.166 HD
ENDROOT
BRANCH   5   7
HETATM    7  C4  UNL     1      10.065   3.547   2.442  1.00  0.00     0.220 C 
HETATM    8  N5  UNL     1       9.006   3.097   3.367  1.00  0.00    -0.335 N 
HETATM    9  C5  UNL     1       9.081   1.685   3.503  1.00  0.00     0.251 C 
ATOM     10  H5  UNL     1       8.330   3.703   3.833  1.00  0.00     0.164 HD
HETATM   11  O2  UNL     1       8.284   1.052   4.247  1.00  0.00    -0.271 OA
HETATM   12  C6  UNL     1      10.187   1.225   2.657  1.00  0.00     0.246 C 
HETATM   13  C16 UNL     1      10.276   2.309   1.603  1.00  0.00     0.198 C 
BRANCH  12  14
HETATM   14  O3  UNL     1      10.075  -0.029   2.171  1.00  0.00    -0.360 OA
BRANCH  14  15
HETATM   15  C7  UNL     1      11.225  -0.803   2.138  1.00  0.00     0.197 C 
HETATM   16  C8  UNL     1      11.454  -1.361   0.748  1.00  0.00     0.023 C 
HETATM   17  C11 UNL     1      11.401  -2.786   0.466  1.00  0.00     0.098 C 
HETATM   18  C12 UNL     1      12.034  -3.647   1.527  1.00  0.00     0.107 C 
HETATM   19  C13 UNL     1      11.198  -4.868   1.822  1.00  0.00     0.052 C 
HETATM   20  F1  UNL     1      13.270  -4.075   1.091  1.00  0.00    -0.243 F 
HETATM   21  C14 UNL     1      12.232  -2.898   2.822  1.00  0.00     0.078 C 
HETATM   22  C15 UNL     1      11.053  -1.999   3.036  1.00  0.00     0.155 C 
BRANCH  16  23
HETATM   23  N6  UNL     1      11.698  -0.511  -0.131  1.00  0.00    -0.344 N 
HETATM   24  C9  UNL     1      11.194   0.014  -1.282  1.00  0.00     0.141 C 
ATOM     25  H6  UNL     1      12.580  -0.049   0.089  1.00  0.00     0.167 HD
BRANCH  24  26
HETATM   26  O4  UNL     1      11.048   1.313  -1.270  1.00  0.00    -0.348 OA
ATOM     27  H4  UNL     1      10.147   1.609  -1.220  1.00  0.00     0.219 HD
ENDBRANCH  24  26
BRANCH  24  28
HETATM   28  C10 UNL     1      10.789  -0.619  -2.541  1.00  0.00     0.313 C 
BRANCH  28  29
HETATM   29  N7  UNL     1      10.791   0.331  -3.664  1.00  0.00    -0.072 N 
ATOM     30  H73 UNL     1      11.438   1.100  -3.496  1.00  0.00     0.274 HD
ATOM     31  H72 UNL     1      11.232  -0.075  -4.489  1.00  0.00     0.274 HD
ATOM     32  H71 UNL     1       9.855   0.676  -3.877  1.00  0.00     0.274 HD
ENDBRANCH  28  29
ENDBRANCH  24  28
ENDBRANCH  16  23
BRANCH  22  33
HETATM   33  O5  UNL     1       9.872  -2.647   2.658  1.00  0.00    -0.393 OA
ATOM     34  H5  UNL     1       9.769  -3.407   3.219  1.00  0.00     0.210 HD
ENDBRANCH  22  33
ENDBRANCH  14  15
ENDBRANCH  12  14
BRANCH  13  35
HETATM   35  O6  UNL     1       9.187   2.254   0.714  1.00  0.00    -0.389 OA
ATOM     36  H6  UNL     1       8.572   1.637   1.093  1.00  0.00     0.210 HD
ENDBRANCH  13  35
ENDBRANCH   5   7
BRANCH   1  37
HETATM   37  N2  UNL     1      10.652   7.286  -0.734  1.00  0.00    -0.239 N 
ATOM     38  H2  UNL     1      10.474   8.290  -0.728  1.00  0.00     0.208 HD
BRANCH  37  39
HETATM   39  N1  UNL     1      11.720   6.791  -1.467  1.00  0.00    -0.287 N 
ATOM     40  H1  UNL     1      12.538   6.498  -0.934  1.00  0.00     0.188 HD
BRANCH  39  41
HETATM   41  C2  UNL     1      11.795   6.662  -2.731  1.00  0.00     0.069 C 
HETATM   42  C1  UNL     1      12.283   7.750  -3.609  1.00  0.00     0.074 C 
BRANCH  41  43
HETATM   43  C17 UNL     1      11.369   5.376  -3.313  1.00  0.00     0.152 A 
HETATM   44  N8  UNL     1      11.195   4.190  -2.727  1.00  0.00    -0.240 N 
HETATM   45  O7  UNL     1      10.813   3.319  -3.635  1.00  0.00    -0.210 OA
ATOM     46  H8  UNL     1      11.336   3.991  -1.736  1.00  0.00     0.196 HD
HETATM   47  C18 UNL     1      10.726   3.884  -4.804  1.00  0.00     0.210 A 
HETATM   48  N14 UNL     1      11.069   5.176  -4.629  1.00  0.00    -0.313 N 
ATOM     49  H14 UNL     1      11.100   5.888  -5.360  1.00  0.00     0.170 HD
BRANCH  47  50
HETATM   50  S1  UNL     1      10.240   3.064  -6.313  1.00  0.00    -0.083 SA
BRANCH  50  51
HETATM   51  C19 UNL     1       8.451   3.118  -6.504  1.00  0.00     0.102 C 
BRANCH  51  52
HETATM   52  C20 UNL     1       7.847   4.416  -5.989  1.00  0.00     0.133 C 
BRANCH  52  53
HETATM   53  N9  UNL     1       6.946   4.188  -4.893  1.00  0.00    -0.360 N 
ATOM     54  H9  UNL     1       5.939   4.286  -5.017  1.00  0.00     0.162 HD
BRANCH  53  55
HETATM   55  C21 UNL     1       7.497   3.820  -3.628  1.00  0.00     0.205 C 
HETATM   56  N10 UNL     1       7.697   2.635  -3.159  1.00  0.00    -0.256 N 
HETATM   57  N11 UNL     1       8.254   2.692  -1.886  1.00  0.00    -0.006 NA
ATOM     58  H10 UNL     1       7.476   1.772  -3.656  1.00  0.00     0.187 HD
HETATM   59  N12 UNL     1       8.151   4.013  -1.448  1.00  0.00    -0.006 NA
HETATM   60  N13 UNL     1       7.935   4.728  -2.629  1.00  0.00    -0.256 N 
ATOM     61  H13 UNL     1       8.069   5.731  -2.753  1.00  0.00     0.187 HD
ENDBRANCH  53  55
ENDBRANCH  52  53
ENDBRANCH  51  52
ENDBRANCH  50  51
ENDBRANCH  47  50
ENDBRANCH  41  43
ENDBRANCH  39  41
ENDBRANCH  37  39
ENDBRANCH   1  37
TORSDOF 18
ENDMDL
MODEL 3
REMARK VINA RESULT: -8.706535744      3.229      4.705
REMARK  18 active torsions:
REMARK  status: ('A' for Active; 'I' for Inactive)
REMARK    1  A    between atoms: C2_2  and  N1_3 
REMARK    2  A    between atoms: C2_2  and  C17_43 
REMARK    3  A    between atoms: N1_3  and  N2_5 
REMARK    4  A    between atoms: N2_5  and  N3_7 
REMARK       I    between atoms: N3_7  and  C3_9 
REMARK       I    between atoms: C3_9  and  N4_11 
REMARK    5  A    between atoms: N4_11  and  C4_13 
REMARK    6  A    between atoms: C6_18  and  O3_19 
REMARK    7  A    between atoms: O3_19  and  C7_20 
REMARK    8  A    between atoms: C8_21  and  N6_22 
REMARK    9  A    between atoms: C9_24  and  O4_25 
REMARK   10  A    between atoms: C9_24  and  C10_27 
REMARK   11  A    between atoms: C10_27  and  N7_28 
REMARK   12  A    between atoms: C15_37  and  O5_38 
REMARK   13  A    between atoms: C16_40  and  O6_41 
REMARK   14  A    between atoms: C18_47  and  S1_48 
REMARK   15  A    between atoms: S1_48  and  C19_49 
REMARK   16  A    between atoms: C19_49  and  C20_50 
REMARK   17  A    between atoms: C20_50  and  N9_51 
REMARK   18  A    between atoms: N9_51  and  C21_53 
ROOT
HETATM    1  N3  UNL     1      10.871  -2.259  -1.550  1.00  0.00    -0.237 N 
ATOM      2  H3  UNL     1      10.902  -2.140  -0.537  1.00  0.00     0.193 HD
HETATM    3  C3  UNL     1      10.867  -1.093  -2.406  1.00  0.00     0.337 C 
HETATM    4  O1  UNL     1      10.838  -1.292  -3.643  1.00  0.00    -0.245 OA
HETATM    5  N4  UNL     1      10.894   0.197  -1.826  1.00  0.00    -0.318 N 
ATOM      6  H4  UNL     1      10.911   0.306  -0.812  1.00  0.00     0.166 HD
ENDROOT
BRANCH   5   7
HETATM    7  C4  UNL     1      10.898   1.378  -2.700  1.00  0.00     0.220 C 
HETATM    8  N5  UNL     1       9.556   1.509  -3.302  1.00  0.00    -0.335 N 
HETATM    9  C5  UNL     1       9.192   2.883  -3.323  1.00  0.00     0.251 C 
ATOM     10  H5  UNL     1       8.983   0.738  -3.646  1.00  0.00     0.164 HD
HETATM   11  O2  UNL     1       8.086   3.263  -3.794  1.00  0.00    -0.271 OA
HETATM   12  C6  UNL     1      10.300   3.635  -2.727  1.00  0.00     0.246 C 
HETATM   13  C16 UNL     1      10.957   2.609  -1.827  1.00  0.00     0.198 C 
BRANCH  12  14
HETATM   14  O3  UNL     1       9.965   4.792  -2.117  1.00  0.00    -0.360 OA
BRANCH  14  15
HETATM   15  C7  UNL     1      11.002   5.606  -1.687  1.00  0.00     0.197 C 
HETATM   16  C8  UNL     1      10.595   6.381  -0.449  1.00  0.00     0.023 C 
HETATM   17  C11 UNL     1      10.471   7.828  -0.447  1.00  0.00     0.098 C 
HETATM   18  C12 UNL     1      11.546   8.539  -1.225  1.00  0.00     0.107 C 
HETATM   19  C13 UNL     1      10.978   9.667  -2.053  1.00  0.00     0.052 C 
HETATM   20  F1  UNL     1      12.465   9.078  -0.349  1.00  0.00    -0.243 F 
HETATM   21  C14 UNL     1      12.283   7.609  -2.156  1.00  0.00     0.078 C 
HETATM   22  C15 UNL     1      11.299   6.642  -2.738  1.00  0.00     0.155 C 
BRANCH  16  23
HETATM   23  N6  UNL     1      10.384   5.686   0.564  1.00  0.00    -0.344 N 
HETATM   24  C9  UNL     1       9.374   5.198   1.336  1.00  0.00     0.141 C 
ATOM     25  H6  UNL     1      11.277   5.378   0.949  1.00  0.00     0.167 HD
BRANCH  24  26
HETATM   26  O4  UNL     1       9.388   3.900   1.494  1.00  0.00    -0.348 OA
ATOM     27  H4  UNL     1       8.601   3.457   1.199  1.00  0.00     0.219 HD
ENDBRANCH  24  26
BRANCH  24  28
HETATM   28  C10 UNL     1       8.270   5.869   2.029  1.00  0.00     0.313 C 
BRANCH  28  29
HETATM   29  N7  UNL     1       8.321   5.661   3.484  1.00  0.00    -0.072 N 
ATOM     30  H73 UNL     1       8.901   4.857   3.722  1.00  0.00     0.274 HD
ATOM     31  H72 UNL     1       8.863   6.393   3.943  1.00  0.00     0.274 HD
ATOM     32  H71 UNL     1       7.390   5.579   3.893  1.00  0.00     0.274 HD
ENDBRANCH  28  29
ENDBRANCH  24  28
ENDBRANCH  16  23
BRANCH  22  33
HETATM   33  O5  UNL     1      10.098   7.293  -3.043  1.00  0.00    -0.393 OA
ATOM     34  H5  UNL     1      10.007   8.023  -2.441  1.00  0.00     0.210 HD
ENDBRANCH  22  33
ENDBRANCH  14  15
ENDBRANCH  12  14
BRANCH  13  35
HETATM   35  O6  UNL     1      10.161   2.324  -0.704  1.00  0.00    -0.389 OA
ATOM     36  H6  UNL     1      10.512   1.524  -0.331  1.00  0.00     0.210 HD
ENDBRANCH  13  35
ENDBRANCH   5   7
BRANCH   1  37
HETATM   37  N2  UNL     1      10.833  -3.523  -2.081  1.00  0.00    -0.239 N 
ATOM     38  H2  UNL     1      10.179  -3.727  -2.837  1.00  0.00     0.208 HD
BRANCH  37  39
HETATM   39  N1  UNL     1      11.663  -4.531  -1.614  1.00  0.00    -0.287 N 
ATOM     40  H1  UNL     1      12.568  -4.622  -2.075  1.00  0.00     0.188 HD
BRANCH  39  41
HETATM   41  C2  UNL     1      11.423  -5.354  -0.673  1.00  0.00     0.069 C 
HETATM   42  C1  UNL     1      10.867  -6.703  -0.927  1.00  0.00     0.074 C 
BRANCH  41  43
HETATM   43  C17 UNL     1      11.716  -4.921   0.705  1.00  0.00     0.152 A 
HETATM   44  N8  UNL     1      11.251  -5.389   1.864  1.00  0.00    -0.240 N 
HETATM   45  O7  UNL     1      11.780  -4.694   2.847  1.00  0.00    -0.210 OA
ATOM     46  H8  UNL     1      10.592  -6.161   1.971  1.00  0.00     0.196 HD
HETATM   47  C18 UNL     1      12.581  -3.780   2.383  1.00  0.00     0.210 A 
HETATM   48  N14 UNL     1      12.559  -3.901   1.040  1.00  0.00    -0.313 N 
ATOM     49  H14 UNL     1      13.086  -3.325   0.382  1.00  0.00     0.170 HD
BRANCH  47  50
HETATM   50  S1  UNL     1      13.506  -2.619   3.373  1.00  0.00    -0.083 SA
BRANCH  50  51
HETATM   51  C19 UNL     1      12.386  -1.534   4.272  1.00  0.00     0.102 C 
BRANCH  51  52
HETATM   52  C20 UNL     1      11.487  -0.727   3.347  1.00  0.00     0.133 C 
BRANCH  52  53
HETATM   53  N9  UNL     1      11.267   0.603   3.842  1.00  0.00    -0.360 N 
ATOM     54  H9  UNL     1      10.881   0.757   4.774  1.00  0.00     0.162 HD
BRANCH  53  55
HETATM   55  C21 UNL     1      11.604   1.705   2.998  1.00  0.00     0.205 C 
HETATM   56  N10 UNL     1      11.756   1.711   1.717  1.00  0.00    -0.256 N 
HETATM   57  N11 UNL     1      12.083   2.985   1.262  1.00  0.00    -0.006 NA
ATOM     58  H10 UNL     1      11.652   0.892   1.118  1.00  0.00     0.187 HD
HETATM   59  N12 UNL     1      12.398   3.756   2.380  1.00  0.00    -0.006 NA
HETATM   60  N13 UNL     1      11.838   3.034   3.438  1.00  0.00    -0.256 N 
ATOM     61  H13 UNL     1      11.633   3.399   4.368  1.00  0.00     0.187 HD
ENDBRANCH  53  55
ENDBRANCH  52  53
ENDBRANCH  51  52
ENDBRANCH  50  51
ENDBRANCH  47  50
ENDBRANCH  41  43
ENDBRANCH  39  41
ENDBRANCH  37  39
ENDBRANCH   1  37
TORSDOF 18
ENDMDL
MODEL 4
REMARK VINA RESULT: -8.689989587      3.381      8.075
REMARK  18 active torsions:
REMARK  status: ('A' for Active; 'I' for Inactive)
REMARK    1  A    between atoms: C2_2  and  N1_3 
REMARK    2  A    between atoms: C2_2  and  C17_43 
REMARK    3  A    between atoms: N1_3  and  N2_5 
REMARK    4  A    between atoms: N2_5  and  N3_7 
REMARK       I    between atoms: N3_7  and  C3_9 
REMARK       I    between atoms: C3_9  and  N4_11 
REMARK    5  A    between atoms: N4_11  and  C4_13 
REMARK    6  A    between atoms: C6_18  and  O3_19 
REMARK    7  A    between atoms: O3_19  and  C7_20 
REMARK    8  A    between atoms: C8_21  and  N6_22 
REMARK    9  A    between atoms: C9_24  and  O4_25 
REMARK   10  A    between atoms: C9_24  and  C10_27 
REMARK   11  A    between atoms: C10_27  and  N7_28 
REMARK   12  A    between atoms: C15_37  and  O5_38 
REMARK   13  A    between atoms: C16_40  and  O6_41 
REMARK   14  A    between atoms: C18_47  and  S1_48 
REMARK   15  A    between atoms: S1_48  and  C19_49 
REMARK   16  A    between atoms: C19_49  and  C20_50 
REMARK   17  A    between atoms: C20_50  and  N9_51 
REMARK   18  A    between atoms: N9_51  and  C21_53 
ROOT
HETATM    1  N3  UNL     1       7.847   3.130  -4.789  1.00  0.00    -0.237 N 
ATOM      2  H3  UNL     1       7.051   3.204  -4.155  1.00  0.00     0.193 HD
HETATM    3  C3  UNL     1       9.003   2.354  -4.397  1.00  0.00     0.337 C 
HETATM    4  O1  UNL     1       9.950   2.286  -5.215  1.00  0.00    -0.245 OA
HETATM    5  N4  UNL     1       9.019   1.719  -3.133  1.00  0.00    -0.318 N 
ATOM      6  H4  UNL     1       8.225   1.810  -2.500  1.00  0.00     0.166 HD
ENDROOT
BRANCH   5   7
HETATM    7  C4  UNL     1      10.193   0.926  -2.743  1.00  0.00     0.220 C 
HETATM    8  N5  UNL     1      11.381   1.800  -2.810  1.00  0.00    -0.335 N 
HETATM    9  C5  UNL     1      12.221   1.523  -1.697  1.00  0.00     0.251 C 
ATOM     10  H5  UNL     1      11.568   2.491  -3.537  1.00  0.00     0.164 HD
HETATM   11  O2  UNL     1      13.308   2.137  -1.525  1.00  0.00    -0.271 OA
HETATM   12  C6  UNL     1      11.567   0.473  -0.909  1.00  0.00     0.246 C 
HETATM   13  C16 UNL     1      10.104   0.653  -1.260  1.00  0.00     0.198 C 
BRANCH  12  14
HETATM   14  O3  UNL     1      11.836   0.475   0.413  1.00  0.00    -0.360 OA
BRANCH  14  15
HETATM   15  C7  UNL     1      11.173  -0.456   1.198  1.00  0.00     0.197 C 
HETATM   16  C8  UNL     1      11.531  -0.276   2.660  1.00  0.00     0.023 C 
HETATM   17  C11 UNL     1      12.255  -1.288   3.410  1.00  0.00     0.098 C 
HETATM   18  C12 UNL     1      11.830  -2.700   3.107  1.00  0.00     0.107 C 
HETATM   19  C13 UNL     1      13.018  -3.623   2.983  1.00  0.00     0.052 C 
HETATM   20  F1  UNL     1      11.035  -3.169   4.132  1.00  0.00    -0.243 F 
HETATM   21  C14 UNL     1      11.038  -2.792   1.826  1.00  0.00     0.078 C 
HETATM   22  C15 UNL     1      11.631  -1.842   0.832  1.00  0.00     0.155 C 
BRANCH  16  23
HETATM   23  N6  UNL     1      11.154   0.797   3.169  1.00  0.00    -0.344 N 
HETATM   24  C9  UNL     1      10.111   1.353   3.845  1.00  0.00     0.141 C 
ATOM     25  H6  UNL     1      11.877   1.503   3.033  1.00  0.00     0.167 HD
BRANCH  24  26
HETATM   26  O4  UNL     1      10.433   1.913   4.981  1.00  0.00    -0.348 OA
ATOM     27  H4  UNL     1      10.206   2.833   5.047  1.00  0.00     0.219 HD
ENDBRANCH  24  26
BRANCH  24  28
HETATM   28  C10 UNL     1       8.683   1.441   3.523  1.00  0.00     0.313 C 
BRANCH  28  29
HETATM   29  N7  UNL     1       8.436   1.369   2.075  1.00  0.00    -0.072 N 
ATOM     30  H73 UNL     1       9.287   1.556   1.545  1.00  0.00     0.274 HD
ATOM     31  H72 UNL     1       8.267   0.408   1.777  1.00  0.00     0.274 HD
ATOM     32  H71 UNL     1       7.677   1.985   1.784  1.00  0.00     0.274 HD
ENDBRANCH  28  29
ENDBRANCH  24  28
ENDBRANCH  16  23
BRANCH  22  33
HETATM   33  O5  UNL     1      13.028  -1.861   0.912  1.00  0.00    -0.393 OA
ATOM     34  H5  UNL     1      13.291  -2.748   1.130  1.00  0.00     0.210 HD
ENDBRANCH  22  33
ENDBRANCH  14  15
ENDBRANCH  12  14
BRANCH  13  35
HETATM   35  O6  UNL     1       9.576   1.822  -0.683  1.00  0.00    -0.389 OA
ATOM     36  H6  UNL     1       9.020   1.532   0.031  1.00  0.00     0.210 HD
ENDBRANCH  13  35
ENDBRANCH   5   7
BRANCH   1  37
HETATM   37  N2  UNL     1       7.805   3.768  -6.003  1.00  0.00    -0.239 N 
ATOM     38  H2  UNL     1       7.041   3.564  -6.647  1.00  0.00     0.208 HD
BRANCH  37  39
HETATM   39  N1  UNL     1       8.778   4.685  -6.373  1.00  0.00    -0.287 N 
ATOM     40  H1  UNL     1       9.381   4.415  -7.150  1.00  0.00     0.188 HD
BRANCH  39  41
HETATM   41  C2  UNL     1       9.003   5.824  -5.853  1.00  0.00     0.069 C 
HETATM   42  C1  UNL     1       8.376   7.064  -6.365  1.00  0.00     0.074 C 
BRANCH  41  43
HETATM   43  C17 UNL     1       9.926   5.880  -4.705  1.00  0.00     0.152 A 
HETATM   44  N8  UNL     1      11.019   5.158  -4.451  1.00  0.00    -0.240 N 
HETATM   45  O7  UNL     1      11.528   5.547  -3.303  1.00  0.00    -0.210 OA
ATOM     46  H8  UNL     1      11.397   4.424  -5.050  1.00  0.00     0.196 HD
HETATM   47  C18 UNL     1      10.814   6.502  -2.783  1.00  0.00     0.210 A 
HETATM   48  N14 UNL     1       9.801   6.731  -3.644  1.00  0.00    -0.313 N 
ATOM     49  H14 UNL     1       9.063   7.426  -3.524  1.00  0.00     0.170 HD
BRANCH  47  50
HETATM   50  S1  UNL     1      11.152   7.318  -1.233  1.00  0.00    -0.083 SA
BRANCH  50  51
HETATM   51  C19 UNL     1      10.002   6.755   0.032  1.00  0.00     0.102 C 
BRANCH  51  52
HETATM   52  C20 UNL     1       9.393   5.399  -0.295  1.00  0.00     0.133 C 
BRANCH  52  53
HETATM   53  N9  UNL     1       9.387   4.527   0.847  1.00  0.00    -0.360 N 
ATOM     54  H9  UNL     1       8.512   4.161   1.220  1.00  0.00     0.162 HD
BRANCH  53  55
HETATM   55  C21 UNL     1      10.639   4.187   1.446  1.00  0.00     0.205 C 
HETATM   56  N10 UNL     1      11.570   3.431   0.972  1.00  0.00    -0.256 N 
HETATM   57  N11 UNL     1      12.640   3.346   1.858  1.00  0.00    -0.006 NA
ATOM     58  H10 UNL     1      11.528   2.958   0.069  1.00  0.00     0.187 HD
HETATM   59  N12 UNL     1      12.217   3.891   3.070  1.00  0.00    -0.006 NA
HETATM   60  N13 UNL     1      11.091   4.638   2.712  1.00  0.00    -0.256 N 
ATOM     61  H13 UNL     1      10.667   5.381   3.267  1.00  0.00     0.187 HD
ENDBRANCH  53  55
ENDBRANCH  52  53
ENDBRANCH  51  52
ENDBRANCH  50  51
ENDBRANCH  47  50
ENDBRANCH  41  43
ENDBRANCH  39  41
ENDBRANCH  37  39
ENDBRANCH   1  37
TORSDOF 18
ENDMDL
MODEL 5
REMARK VINA RESULT: -8.483727733      3.694      8.491
REMARK  18 active torsions:
REMARK  status: ('A' for Active; 'I' for Inactive)
REMARK    1  A    between atoms: C2_2  and  N1_3 
REMARK    2  A    between atoms: C2_2  and  C17_43 
REMARK    3  A    between atoms: N1_3  and  N2_5 
REMARK    4  A    between atoms: N2_5  and  N3_7 
REMARK       I    between atoms: N3_7  and  C3_9 
REMARK       I    between atoms: C3_9  and  N4_11 
REMARK    5  A    between atoms: N4_11  and  C4_13 
REMARK    6  A    between atoms: C6_18  and  O3_19 
REMARK    7  A    between atoms: O3_19  and  C7_20 
REMARK    8  A    between atoms: C8_21  and  N6_22 
REMARK    9  A    between atoms: C9_24  and  O4_25 
REMARK   10  A    between atoms: C9_24  and  C10_27 
REMARK   11  A    between atoms: C10_27  and  N7_28 
REMARK   12  A    between atoms: C15_37  and  O5_38 
REMARK   13  A    between atoms: C16_40  and  O6_41 
REMARK   14  A    between atoms: C18_47  and  S1_48 
REMARK   15  A    between atoms: S1_48  and  C19_49 
REMARK   16  A    between atoms: C19_49  and  C20_50 
REMARK   17  A    between atoms: C20_50  and  N9_51 
REMARK   18  A    between atoms: N9_51  and  C21_53 
ROOT
HETATM    1  N3  UNL     1       7.323   3.601  -3.774  1.00  0.00    -0.237 N 
ATOM      2  H3  UNL     1       6.788   3.949  -2.978  1.00  0.00     0.193 HD
HETATM    3  C3  UNL     1       8.392   2.651  -3.556  1.00  0.00     0.337 C 
HETATM    4  O1  UNL     1       9.013   2.247  -4.567  1.00  0.00    -0.245 OA
HETATM    5  N4  UNL     1       8.688   2.228  -2.239  1.00  0.00    -0.318 N 
ATOM      6  H4  UNL     1       8.157   2.591  -1.449  1.00  0.00     0.166 HD
ENDROOT
BRANCH   5   7
HETATM    7  C4  UNL     1       9.770   1.257  -2.023  1.00  0.00     0.220 C 
HETATM    8  N5  UNL     1      11.057   1.944  -2.254  1.00  0.00    -0.335 N 
HETATM    9  C5  UNL     1      11.992   1.514  -1.274  1.00  0.00     0.251 C 
ATOM     10  H5  UNL     1      11.244   2.617  -2.998  1.00  0.00     0.164 HD
HETATM   11  O2  UNL     1      13.173   1.953  -1.255  1.00  0.00    -0.271 OA
HETATM   12  C6  UNL     1      11.302   0.555  -0.406  1.00  0.00     0.246 C 
HETATM   13  C16 UNL     1       9.849   0.962  -0.544  1.00  0.00     0.198 C 
BRANCH  12  14
HETATM   14  O3  UNL     1      11.750   0.482   0.865  1.00  0.00    -0.360 OA
BRANCH  14  15
HETATM   15  C7  UNL     1      11.258  -0.546   1.654  1.00  0.00     0.197 C 
HETATM   16  C8  UNL     1      11.741  -0.401   3.084  1.00  0.00     0.023 C 
HETATM   17  C11 UNL     1      12.627  -1.370   3.705  1.00  0.00     0.098 C 
HETATM   18  C12 UNL     1      12.308  -2.802   3.364  1.00  0.00     0.107 C 
HETATM   19  C13 UNL     1      13.559  -3.596   3.078  1.00  0.00     0.052 C 
HETATM   20  F1  UNL     1      11.665  -3.394   4.431  1.00  0.00    -0.243 F 
HETATM   21  C14 UNL     1      11.406  -2.911   2.159  1.00  0.00     0.078 C 
HETATM   22  C15 UNL     1      11.806  -1.861   1.169  1.00  0.00     0.155 C 
BRANCH  16  23
HETATM   23  N6  UNL     1      11.316   0.605   3.686  1.00  0.00    -0.344 N 
HETATM   24  C9  UNL     1      11.099   1.939   3.523  1.00  0.00     0.141 C 
ATOM     25  H6  UNL     1      11.034   0.334   4.629  1.00  0.00     0.167 HD
BRANCH  24  26
HETATM   26  O4  UNL     1       9.876   2.327   3.771  1.00  0.00    -0.348 OA
ATOM     27  H4  UNL     1       9.361   2.533   2.999  1.00  0.00     0.219 HD
ENDBRANCH  24  26
BRANCH  24  28
HETATM   28  C10 UNL     1      11.997   3.026   3.120  1.00  0.00     0.313 C 
BRANCH  28  29
HETATM   29  N7  UNL     1      12.067   3.175   1.659  1.00  0.00    -0.072 N 
ATOM     30  H73 UNL     1      11.244   2.776   1.207  1.00  0.00     0.274 HD
ATOM     31  H72 UNL     1      11.948   4.149   1.381  1.00  0.00     0.274 HD
ATOM     32  H71 UNL     1      12.926   2.784   1.273  1.00  0.00     0.274 HD
ENDBRANCH  28  29
ENDBRANCH  24  28
ENDBRANCH  16  23
BRANCH  22  33
HETATM   33  O5  UNL     1      13.200  -1.746   1.118  1.00  0.00    -0.393 OA
ATOM     34  H5  UNL     1      13.533  -2.501   0.646  1.00  0.00     0.210 HD
ENDBRANCH  22  33
ENDBRANCH  14  15
ENDBRANCH  12  14
BRANCH  13  35
HETATM   35  O6  UNL     1       9.591   2.182   0.107  1.00  0.00    -0.389 OA
ATOM     36  H6  UNL     1      10.131   2.179   0.890  1.00  0.00     0.210 HD
ENDBRANCH  13  35
ENDBRANCH   5   7
BRANCH   1  37
HETATM   37  N2  UNL     1       7.018   4.041  -5.038  1.00  0.00    -0.239 N 
ATOM     38  H2  UNL     1       6.049   4.015  -5.354  1.00  0.00     0.208 HD
BRANCH  37  39
HETATM   39  N1  UNL     1       7.999   4.519  -5.894  1.00  0.00    -0.287 N 
ATOM     40  H1  UNL     1       8.395   3.845  -6.549  1.00  0.00     0.188 HD
BRANCH  39  41
HETATM   41  C2  UNL     1       8.460   5.704  -5.954  1.00  0.00     0.069 C 
HETATM   42  C1  UNL     1       7.841   6.750  -6.801  1.00  0.00     0.074 C 
BRANCH  41  43
HETATM   43  C17 UNL     1       9.653   6.015  -5.146  1.00  0.00     0.152 A 
HETATM   44  N8  UNL     1      10.462   5.198  -4.469  1.00  0.00    -0.240 N 
HETATM   45  O7  UNL     1      11.398   5.915  -3.886  1.00  0.00    -0.210 OA
ATOM     46  H8  UNL     1      10.369   4.184  -4.413  1.00  0.00     0.196 HD
HETATM   47  C18 UNL     1      11.241   7.179  -4.152  1.00  0.00     0.210 A 
HETATM   48  N14 UNL     1      10.151   7.269  -4.942  1.00  0.00    -0.313 N 
ATOM     49  H14 UNL     1       9.764   8.132  -5.324  1.00  0.00     0.170 HD
BRANCH  47  50
HETATM   50  S1  UNL     1      12.290   8.495  -3.562  1.00  0.00    -0.083 SA
BRANCH  50  51
HETATM   51  C19 UNL     1      11.398   9.525  -2.385  1.00  0.00     0.102 C 
BRANCH  51  52
HETATM   52  C20 UNL     1      11.606   9.079  -0.945  1.00  0.00     0.133 C 
BRANCH  52  53
HETATM   53  N9  UNL     1      10.507   8.286  -0.468  1.00  0.00    -0.360 N 
ATOM     54  H9  UNL     1       9.731   8.717   0.035  1.00  0.00     0.162 HD
BRANCH  53  55
HETATM   55  C21 UNL     1      10.527   6.879  -0.716  1.00  0.00     0.205 C 
HETATM   56  N10 UNL     1       9.545   6.117  -1.062  1.00  0.00    -0.256 N 
HETATM   57  N11 UNL     1       9.968   4.800  -1.210  1.00  0.00    -0.006 NA
ATOM     58  H10 UNL     1       8.587   6.437  -1.207  1.00  0.00     0.187 HD
HETATM   59  N12 UNL     1      11.252   4.714  -0.669  1.00  0.00    -0.006 NA
HETATM   60  N13 UNL     1      11.671   6.047  -0.623  1.00  0.00    -0.256 N 
ATOM     61  H13 UNL     1      12.636   6.366  -0.536  1.00  0.00     0.187 HD
ENDBRANCH  53  55
ENDBRANCH  52  53
ENDBRANCH  51  52
ENDBRANCH  50  51
ENDBRANCH  47  50
ENDBRANCH  41  43
ENDBRANCH  39  41
ENDBRANCH  37  39
ENDBRANCH   1  37
TORSDOF 18
ENDMDL
