MODEL 1
REMARK VINA RESULT: -8.546619777      0.000      0.000
REMARK  14 active torsions:
REMARK  status: ('A' for Active; 'I' for Inactive)
REMARK    1  A    between atoms: N2_6  and  C3_7 
REMARK    2  A    between atoms: C3_7  and  C4_8 
REMARK    3  A    between atoms: C4_8  and  N3_9 
REMARK    4  A    between atoms: C4_8  and  C5_13 
REMARK    5  A    between atoms: C5_13  and  N4_14 
REMARK    6  A    between atoms: C5_13  and  O1_18 
REMARK       I    between atoms: N6_23  and  C7_25 
REMARK    7  A    between atoms: C7_25  and  C8_27 
REMARK    8  A    between atoms: C8_27  and  C11_34 
REMARK    9  A    between atoms: N7_28  and  O3_30 
REMARK   10  A    between atoms: O3_30  and  C9_31 
REMARK   11  A    between atoms: C9_31  and  C10_32 
REMARK   12  A    between atoms: C12_35  and  C13_36 
REMARK   13  A    between atoms: N9_42  and  N10_43 
REMARK   14  A    between atoms: C16_45  and  C17_46 
ROOT
HETATM    1  C8  UNL     1      10.546   2.722  -1.191  1.00  0.00     0.153 C 
HETATM    2  N7  UNL     1       9.282   2.493  -1.531  1.00  0.00    -0.259 N 
ATOM      3  H7  UNL     1       8.659   2.169  -0.791  1.00  0.00     0.194 HD
ENDROOT
BRANCH   1   4
HETATM    4  C7  UNL     1      11.376   3.174  -2.270  1.00  0.00     0.278 C 
HETATM    5  N6  UNL     1      11.248   4.310  -3.077  1.00  0.00    -0.305 N 
HETATM    6  C6  UNL     1      11.060   4.393  -4.322  1.00  0.00     0.142 C 
ATOM      7  H6  UNL     1      11.315   5.202  -2.587  1.00  0.00     0.170 HD
HETATM    8  C1  UNL     1      10.923   3.293  -5.271  1.00  0.00     0.063 C 
HETATM    9  N5  UNL     1      10.940   5.589  -5.119  1.00  0.00    -0.303 N 
HETATM   10  N1  UNL     1      10.541   2.087  -5.131  1.00  0.00    -0.398 N 
HETATM   11  C2  UNL     1      11.351   3.877  -6.584  1.00  0.00     0.174 C 
ATOM     12  H12 UNL     1      10.446   1.318  -5.794  1.00  0.00     0.156 HD
ATOM     13  H11 UNL     1      10.251   1.689  -4.238  1.00  0.00     0.156 HD
HETATM   14  N2  UNL     1      11.253   5.293  -6.437  1.00  0.00    -0.222 NA
ATOM     15  H5  UNL     1      10.668   6.508  -4.769  1.00  0.00     0.182 HD
HETATM   16  O2  UNL     1      12.398   2.439  -2.582  1.00  0.00    -0.265 OA
BRANCH  14  17
HETATM   17  C3  UNL     1      12.349   6.046  -6.949  1.00  0.00     0.151 C 
BRANCH  17  18
HETATM   18  C4  UNL     1      12.029   7.369  -7.544  1.00  0.00     0.253 C 
BRANCH  18  19
HETATM   19  N3  UNL     1      10.791   7.473  -8.240  1.00  0.00    -0.070 N 
ATOM     20  H33 UNL     1      10.492   6.548  -8.548  1.00  0.00     0.274 HD
ATOM     21  H32 UNL     1      10.045   7.700  -7.582  1.00  0.00     0.274 HD
ATOM     22  H31 UNL     1      10.762   8.122  -9.027  1.00  0.00     0.274 HD
ENDBRANCH  18  19
BRANCH  18  23
HETATM   23  C5  UNL     1      12.146   8.527  -6.575  1.00  0.00     0.348 C 
BRANCH  23  24
HETATM   24  N4  UNL     1      13.121   9.509  -6.977  1.00  0.00    -0.051 N 
ATOM     25  H43 UNL     1      14.051   9.094  -7.034  1.00  0.00     0.277 HD
ATOM     26  H42 UNL     1      12.992   9.768  -7.955  1.00  0.00     0.277 HD
ATOM     27  H41 UNL     1      13.128  10.336  -6.381  1.00  0.00     0.277 HD
ENDBRANCH  23  24
BRANCH  23  28
HETATM   28  O1  UNL     1      12.589   7.956  -5.358  1.00  0.00    -0.368 OA
ATOM     29  H1  UNL     1      13.518   8.149  -5.312  1.00  0.00     0.212 HD
ENDBRANCH  23  28
ENDBRANCH  18  23
ENDBRANCH  17  18
ENDBRANCH  14  17
ENDBRANCH   1   4
BRANCH   1  30
HETATM   30  C11 UNL     1      10.882   2.629   0.232  1.00  0.00     0.125 A 
HETATM   31  C12 UNL     1      11.469   1.618   0.931  1.00  0.00     0.142 A 
HETATM   32  N8  UNL     1      11.860   2.158   2.158  1.00  0.00    -0.343 N 
HETATM   33  C14 UNL     1      11.494   3.422   2.145  1.00  0.00     0.208 A 
ATOM     34  H8  UNL     1      12.337   1.670   2.917  1.00  0.00     0.167 HD
HETATM   35  N9  UNL     1      10.896   3.761   1.006  1.00  0.00    -0.239 N 
BRANCH  31  36
HETATM   36  C13 UNL     1      11.480   0.181   0.701  1.00  0.00     0.229 C 
HETATM   37  O4  UNL     1      12.405  -0.326   0.030  1.00  0.00    -0.643 OA
HETATM   38  O5  UNL     1      10.526  -0.652   1.204  1.00  0.00    -0.643 OA
ENDBRANCH  31  36
BRANCH  35  39
HETATM   39  N10 UNL     1      10.396   5.007   0.690  1.00  0.00    -0.240 N 
HETATM   40  C15 UNL     1      11.021   5.878  -0.121  1.00  0.00     0.139 A 
HETATM   41  C16 UNL     1      10.554   7.119  -0.481  1.00  0.00     0.098 A 
HETATM   42  C18 UNL     1       9.327   7.511   0.036  1.00  0.00     0.208 A 
HETATM   43  O7  UNL     1       8.868   8.627  -0.265  1.00  0.00    -0.286 OA
HETATM   44  C19 UNL     1       8.672   6.632   0.870  1.00  0.00     0.130 A 
HETATM   45  C20 UNL     1       7.446   7.008   1.385  1.00  0.00     0.277 A 
HETATM   46  C22 UNL     1       9.189   5.397   1.198  1.00  0.00     0.162 A 
HETATM   47  O8  UNL     1       6.997   8.139   1.072  1.00  0.00    -0.266 OA
HETATM   48  N12 UNL     1       6.788   6.165   2.192  1.00  0.00    -0.155 N 
HETATM   49  C21 UNL     1       7.332   4.965   2.487  1.00  0.00     0.680 A 
ATOM     50  H12 UNL     1       5.883   6.429   2.581  1.00  0.00     0.187 HD
HETATM   51  N13 UNL     1       6.676   4.154   3.272  1.00  0.00    -0.234 N 
HETATM   52  N14 UNL     1       8.508   4.567   2.010  1.00  0.00    -0.174 N 
ATOM     53 2H13 UNL     1       5.775   4.459   3.637  1.00  0.00     0.174 HD
ATOM     54 1H13 UNL     1       7.087   3.247   3.495  1.00  0.00     0.174 HD
ATOM     55  H14 UNL     1       8.886   3.652   2.256  1.00  0.00     0.186 HD
BRANCH  41  56
HETATM   56  C17 UNL     1      11.308   7.997  -1.372  1.00  0.00     0.270 C 
HETATM   57  N11 UNL     1      11.333   7.755  -2.759  1.00  0.00    -0.057 NA
HETATM   58  O6  UNL     1      11.926   8.957  -0.891  1.00  0.00    -0.271 OA
ENDBRANCH  41  56
ENDBRANCH  35  39
ENDBRANCH   1  30
BRANCH   2  59
HETATM   59  O3  UNL     1       8.749   2.642  -2.739  1.00  0.00    -0.277 OA
BRANCH  59  60
HETATM   60  C9  UNL     1       7.487   3.220  -3.020  1.00  0.00     0.232 C 
BRANCH  60  61
HETATM   61  C10 UNL     1       7.621   4.701  -3.296  1.00  0.00     0.250 C 
HETATM   62  F1  UNL     1       8.169   5.293  -2.174  1.00  0.00    -0.253 F 
ENDBRANCH  60  61
ENDBRANCH  59  60
ENDBRANCH   2  59
TORSDOF 14
ENDMDL
MODEL 2
REMARK VINA RESULT: -8.444382987      2.860      7.451
REMARK  14 active torsions:
REMARK  status: ('A' for Active; 'I' for Inactive)
REMARK    1  A    between atoms: N2_6  and  C3_7 
REMARK    2  A    between atoms: C3_7  and  C4_8 
REMARK    3  A    between atoms: C4_8  and  N3_9 
REMARK    4  A    between atoms: C4_8  and  C5_13 
REMARK    5  A    between atoms: C5_13  and  N4_14 
REMARK    6  A    between atoms: C5_13  and  O1_18 
REMARK       I    between atoms: N6_23  and  C7_25 
REMARK    7  A    between atoms: C7_25  and  C8_27 
REMARK    8  A    between atoms: C8_27  and  C11_34 
REMARK    9  A    between atoms: N7_28  and  O3_30 
REMARK   10  A    between atoms: O3_30  and  C9_31 
REMARK   11  A    between atoms: C9_31  and  C10_32 
REMARK   12  A    between atoms: C12_35  and  C13_36 
REMARK   13  A    between atoms: N9_42  and  N10_43 
REMARK   14  A    between atoms: C16_45  and  C17_46 
ROOT
HETATM    1  C8  UNL     1       7.769   5.221  -4.429  1.00  0.00     0.153 C 
HETATM    2  N7  UNL     1       7.996   4.558  -5.558  1.00  0.00    -0.259 N 
ATOM      3  H7  UNL     1       7.597   4.953  -6.410  1.00  0.00     0.194 HD
ENDROOT
BRANCH   1   4
HETATM    4  C7  UNL     1       8.353   4.620  -3.264  1.00  0.00     0.278 C 
HETATM    5  N6  UNL     1       9.666   4.185  -3.050  1.00  0.00    -0.305 N 
HETATM    6  C6  UNL     1      10.097   3.023  -2.813  1.00  0.00     0.142 C 
ATOM      7  H6  UNL     1      10.378   4.913  -3.092  1.00  0.00     0.170 HD
HETATM    8  C1  UNL     1       9.316   1.796  -2.700  1.00  0.00     0.063 C 
HETATM    9  N5  UNL     1      11.463   2.617  -2.590  1.00  0.00    -0.303 N 
HETATM   10  N1  UNL     1       8.189   1.453  -3.181  1.00  0.00    -0.398 N 
HETATM   11  C2  UNL     1      10.149   0.903  -1.829  1.00  0.00     0.174 C 
ATOM     12  H12 UNL     1       7.643   0.596  -3.101  1.00  0.00     0.156 HD
ATOM     13  H11 UNL     1       7.623   2.061  -3.773  1.00  0.00     0.156 HD
HETATM   14  N2  UNL     1      11.476   1.425  -1.881  1.00  0.00    -0.222 NA
ATOM     15  H5  UNL     1      12.290   3.126  -2.903  1.00  0.00     0.182 HD
HETATM   16  O2  UNL     1       7.577   4.423  -2.245  1.00  0.00    -0.265 OA
BRANCH  14  17
HETATM   17  C3  UNL     1      12.158   1.508  -0.633  1.00  0.00     0.151 C 
BRANCH  17  18
HETATM   18  C4  UNL     1      11.311   1.559   0.587  1.00  0.00     0.253 C 
BRANCH  18  19
HETATM   19  N3  UNL     1      11.541   0.550   1.566  1.00  0.00    -0.070 N 
ATOM     20  H33 UNL     1      12.307  -0.052   1.265  1.00  0.00     0.274 HD
ATOM     21  H32 UNL     1      11.950   0.968   2.402  1.00  0.00     0.274 HD
ATOM     22  H31 UNL     1      10.738  -0.023   1.828  1.00  0.00     0.274 HD
ENDBRANCH  18  19
BRANCH  18  23
HETATM   23  C5  UNL     1      11.293   2.910   1.270  1.00  0.00     0.348 C 
BRANCH  23  24
HETATM   24  N4  UNL     1      11.325   4.016   0.347  1.00  0.00    -0.051 N 
ATOM     25  H43 UNL     1      10.920   3.750  -0.550  1.00  0.00     0.277 HD
ATOM     26  H42 UNL     1      10.662   4.738   0.624  1.00  0.00     0.277 HD
ATOM     27  H41 UNL     1      12.258   4.409   0.222  1.00  0.00     0.277 HD
ENDBRANCH  23  24
BRANCH  23  28
HETATM   28  O1  UNL     1      12.479   2.959   2.040  1.00  0.00    -0.368 OA
ATOM     29  H1  UNL     1      13.190   2.921   1.412  1.00  0.00     0.212 HD
ENDBRANCH  23  28
ENDBRANCH  18  23
ENDBRANCH  17  18
ENDBRANCH  14  17
ENDBRANCH   1   4
BRANCH   1  30
HETATM   30  C11 UNL     1       7.099   6.519  -4.539  1.00  0.00     0.125 A 
HETATM   31  C12 UNL     1       5.772   6.821  -4.575  1.00  0.00     0.142 A 
HETATM   32  N8  UNL     1       5.671   8.196  -4.349  1.00  0.00    -0.343 N 
HETATM   33  C14 UNL     1       6.900   8.642  -4.204  1.00  0.00     0.208 A 
ATOM     34  H8  UNL     1       4.813   8.746  -4.306  1.00  0.00     0.167 HD
HETATM   35  N9  UNL     1       7.804   7.673  -4.311  1.00  0.00    -0.239 N 
BRANCH  31  36
HETATM   36  C13 UNL     1       4.630   6.046  -5.037  1.00  0.00     0.229 C 
HETATM   37  O4  UNL     1       4.758   5.298  -6.030  1.00  0.00    -0.643 OA
HETATM   38  O5  UNL     1       3.415   6.087  -4.421  1.00  0.00    -0.643 OA
ENDBRANCH  31  36
BRANCH  35  39
HETATM   39  N10 UNL     1       9.172   7.822  -4.211  1.00  0.00    -0.240 N 
HETATM   40  C15 UNL     1       9.840   7.825  -3.044  1.00  0.00     0.139 A 
HETATM   41  C16 UNL     1      11.199   7.948  -2.896  1.00  0.00     0.098 A 
HETATM   42  C18 UNL     1      11.956   8.082  -4.052  1.00  0.00     0.208 A 
HETATM   43  O7  UNL     1      13.190   8.198  -3.963  1.00  0.00    -0.286 OA
HETATM   44  C19 UNL     1      11.289   8.083  -5.258  1.00  0.00     0.130 A 
HETATM   45  C20 UNL     1      12.032   8.208  -6.416  1.00  0.00     0.277 A 
HETATM   46  C22 UNL     1       9.920   7.955  -5.347  1.00  0.00     0.162 A 
HETATM   47  O8  UNL     1      13.278   8.324  -6.308  1.00  0.00    -0.266 OA
HETATM   48  N12 UNL     1      11.404   8.203  -7.600  1.00  0.00    -0.155 N 
HETATM   49  C21 UNL     1      10.061   8.076  -7.641  1.00  0.00     0.680 A 
ATOM     50  H12 UNL     1      11.939   8.295  -8.464  1.00  0.00     0.187 HD
HETATM   51  N13 UNL     1       9.466   8.069  -8.803  1.00  0.00    -0.234 N 
HETATM   52  N14 UNL     1       9.312   7.952  -6.549  1.00  0.00    -0.174 N 
ATOM     53 2H13 UNL     1      10.040   8.164  -9.641  1.00  0.00     0.174 HD
ATOM     54 1H13 UNL     1       8.451   7.972  -8.834  1.00  0.00     0.174 HD
ATOM     55  H14 UNL     1       8.300   7.857  -6.621  1.00  0.00     0.186 HD
BRANCH  41  56
HETATM   56  C17 UNL     1      11.835   7.939  -1.581  1.00  0.00     0.270 C 
HETATM   57  N11 UNL     1      12.350   6.744  -1.046  1.00  0.00    -0.057 NA
HETATM   58  O6  UNL     1      11.913   8.999  -0.942  1.00  0.00    -0.271 OA
ENDBRANCH  41  56
ENDBRANCH  35  39
ENDBRANCH   1  30
BRANCH   2  59
HETATM   59  O3  UNL     1       8.689   3.432  -5.690  1.00  0.00    -0.277 OA
BRANCH  59  60
HETATM   60  C9  UNL     1       9.773   3.228  -6.578  1.00  0.00     0.232 C 
BRANCH  60  61
HETATM   61  C10 UNL     1      10.900   4.194  -6.286  1.00  0.00     0.250 C 
HETATM   62  F1  UNL     1      11.983   3.459  -5.844  1.00  0.00    -0.253 F 
ENDBRANCH  60  61
ENDBRANCH  59  60
ENDBRANCH   2  59
TORSDOF 14
ENDMDL
MODEL 3
REMARK VINA RESULT: -8.295880534      2.732      6.558
REMARK  14 active torsions:
REMARK  status: ('A' for Active; 'I' for Inactive)
REMARK    1  A    between atoms: N2_6  and  C3_7 
REMARK    2  A    between atoms: C3_7  and  C4_8 
REMARK    3  A    between atoms: C4_8  and  N3_9 
REMARK    4  A    between atoms: C4_8  and  C5_13 
REMARK    5  A    between atoms: C5_13  and  N4_14 
REMARK    6  A    between atoms: C5_13  and  O1_18 
REMARK       I    between atoms: N6_23  and  C7_25 
REMARK    7  A    between atoms: C7_25  and  C8_27 
REMARK    8  A    between atoms: C8_27  and  C11_34 
REMARK    9  A    between atoms: N7_28  and  O3_30 
REMARK   10  A    between atoms: O3_30  and  C9_31 
REMARK   11  A    between atoms: C9_31  and  C10_32 
REMARK   12  A    between atoms: C12_35  and  C13_36 
REMARK   13  A    between atoms: N9_42  and  N10_43 
REMARK   14  A    between atoms: C16_45  and  C17_46 
ROOT
HETATM    1  C8  UNL     1       7.693   5.002  -4.183  1.00  0.00     0.153 C 
HETATM    2  N7  UNL     1       7.834   4.376  -5.347  1.00  0.00    -0.259 N 
ATOM      3  H7  UNL     1       7.439   4.836  -6.166  1.00  0.00     0.194 HD
ENDROOT
BRANCH   1   4
HETATM    4  C7  UNL     1       8.268   4.308  -3.066  1.00  0.00     0.278 C 
HETATM    5  N6  UNL     1       9.584   3.874  -2.868  1.00  0.00    -0.305 N 
HETATM    6  C6  UNL     1      10.029   2.702  -2.727  1.00  0.00     0.142 C 
ATOM      7  H6  UNL     1      10.286   4.614  -2.834  1.00  0.00     0.170 HD
HETATM    8  C1  UNL     1       9.265   1.459  -2.736  1.00  0.00     0.063 C 
HETATM    9  N5  UNL     1      11.398   2.297  -2.518  1.00  0.00    -0.303 N 
HETATM   10  N1  UNL     1       8.151   1.145  -3.265  1.00  0.00    -0.398 N 
HETATM   11  C2  UNL     1      10.098   0.504  -1.933  1.00  0.00     0.174 C 
ATOM     12  H12 UNL     1       7.618   0.276  -3.270  1.00  0.00     0.156 HD
ATOM     13  H11 UNL     1       7.585   1.794  -3.810  1.00  0.00     0.156 HD
HETATM   14  N2  UNL     1      11.417   1.048  -1.916  1.00  0.00    -0.222 NA
ATOM     15  H5  UNL     1      12.221   2.844  -2.771  1.00  0.00     0.182 HD
HETATM   16  O2  UNL     1       7.479   4.011  -2.082  1.00  0.00    -0.265 OA
BRANCH  14  17
HETATM   17  C3  UNL     1      12.078   1.029  -0.654  1.00  0.00     0.151 C 
BRANCH  17  18
HETATM   18  C4  UNL     1      11.212   1.074   0.552  1.00  0.00     0.253 C 
BRANCH  18  19
HETATM   19  N3  UNL     1      11.638   0.304   1.673  1.00  0.00    -0.070 N 
ATOM     20  H33 UNL     1      12.350  -0.365   1.378  1.00  0.00     0.274 HD
ATOM     21  H32 UNL     1      12.184   0.890   2.304  1.00  0.00     0.274 HD
ATOM     22  H31 UNL     1      10.910  -0.180   2.198  1.00  0.00     0.274 HD
ENDBRANCH  18  19
BRANCH  18  23
HETATM   23  C5  UNL     1      10.875   2.474   1.019  1.00  0.00     0.348 C 
BRANCH  23  24
HETATM   24  N4  UNL     1       9.487   2.816   0.839  1.00  0.00    -0.051 N 
ATOM     25  H43 UNL     1       9.381   3.810   0.641  1.00  0.00     0.277 HD
ATOM     26  H42 UNL     1       9.130   2.431  -0.035  1.00  0.00     0.277 HD
ATOM     27  H41 UNL     1       8.899   2.537   1.624  1.00  0.00     0.277 HD
ENDBRANCH  23  24
BRANCH  23  28
HETATM   28  O1  UNL     1      11.639   3.339   0.200  1.00  0.00    -0.368 OA
ATOM     29  H1  UNL     1      11.024   3.703  -0.426  1.00  0.00     0.212 HD
ENDBRANCH  23  28
ENDBRANCH  18  23
ENDBRANCH  17  18
ENDBRANCH  14  17
ENDBRANCH   1   4
BRANCH   1  30
HETATM   30  C11 UNL     1       7.118   6.348  -4.214  1.00  0.00     0.125 A 
HETATM   31  C12 UNL     1       5.818   6.745  -4.310  1.00  0.00     0.142 A 
HETATM   32  N8  UNL     1       5.790   8.098  -3.962  1.00  0.00    -0.343 N 
HETATM   33  C14 UNL     1       7.031   8.442  -3.694  1.00  0.00     0.208 A 
ATOM     34  H8  UNL     1       4.968   8.701  -3.924  1.00  0.00     0.167 HD
HETATM   35  N9  UNL     1       7.877   7.425  -3.832  1.00  0.00    -0.239 N 
BRANCH  31  36
HETATM   36  C13 UNL     1       4.666   6.098  -4.918  1.00  0.00     0.229 C 
HETATM   37  O4  UNL     1       4.813   5.457  -5.982  1.00  0.00    -0.643 OA
HETATM   38  O5  UNL     1       3.420   6.144  -4.368  1.00  0.00    -0.643 OA
ENDBRANCH  31  36
BRANCH  35  39
HETATM   39  N10 UNL     1       9.240   7.468  -3.627  1.00  0.00    -0.240 N 
HETATM   40  C15 UNL     1      10.128   7.812  -4.576  1.00  0.00     0.139 A 
HETATM   41  C16 UNL     1      11.489   7.890  -4.414  1.00  0.00     0.098 A 
HETATM   42  C18 UNL     1      11.999   7.587  -3.159  1.00  0.00     0.208 A 
HETATM   43  O7  UNL     1      13.226   7.644  -2.970  1.00  0.00    -0.286 OA
HETATM   44  C19 UNL     1      11.105   7.231  -2.173  1.00  0.00     0.130 A 
HETATM   45  C20 UNL     1      11.599   6.934  -0.917  1.00  0.00     0.277 A 
HETATM   46  C22 UNL     1       9.745   7.170  -2.393  1.00  0.00     0.162 A 
HETATM   47  O8  UNL     1      12.841   6.996  -0.743  1.00  0.00    -0.266 OA
HETATM   48  N12 UNL     1      10.746   6.593   0.058  1.00  0.00    -0.155 N 
HETATM   49  C21 UNL     1       9.422   6.545  -0.201  1.00  0.00     0.680 A 
ATOM     50  H12 UNL     1      11.096   6.371   0.991  1.00  0.00     0.187 HD
HETATM   51  N13 UNL     1       8.605   6.215   0.762  1.00  0.00    -0.234 N 
HETATM   52  N14 UNL     1       8.909   6.825  -1.395  1.00  0.00    -0.174 N 
ATOM     53 2H13 UNL     1       8.999   6.001   1.678  1.00  0.00     0.174 HD
ATOM     54 1H13 UNL     1       7.605   6.179   0.566  1.00  0.00     0.174 HD
ATOM     55  H14 UNL     1       7.902   6.779  -1.552  1.00  0.00     0.186 HD
BRANCH  41  56
HETATM   56  C17 UNL     1      12.374   8.275  -5.510  1.00  0.00     0.270 C 
HETATM   57  N11 UNL     1      13.006   9.533  -5.508  1.00  0.00    -0.057 NA
HETATM   58  O6  UNL     1      12.561   7.480  -6.442  1.00  0.00    -0.271 OA
ENDBRANCH  41  56
ENDBRANCH  35  39
ENDBRANCH   1  30
BRANCH   2  59
HETATM   59  O3  UNL     1       8.439   3.209  -5.550  1.00  0.00    -0.277 OA
BRANCH  59  60
HETATM   60  C9  UNL     1       9.509   2.979  -6.447  1.00  0.00     0.232 C 
BRANCH  60  61
HETATM   61  C10 UNL     1      10.603   4.005  -6.257  1.00  0.00     0.250 C 
HETATM   62  F1  UNL     1      11.661   3.384  -5.620  1.00  0.00    -0.253 F 
ENDBRANCH  60  61
ENDBRANCH  59  60
ENDBRANCH   2  59
TORSDOF 14
ENDMDL
MODEL 4
REMARK VINA RESULT: -8.170224320      2.557      7.019
REMARK  14 active torsions:
REMARK  status: ('A' for Active; 'I' for Inactive)
REMARK    1  A    between atoms: N2_6  and  C3_7 
REMARK    2  A    between atoms: C3_7  and  C4_8 
REMARK    3  A    between atoms: C4_8  and  N3_9 
REMARK    4  A    between atoms: C4_8  and  C5_13 
REMARK    5  A    between atoms: C5_13  and  N4_14 
REMARK    6  A    between atoms: C5_13  and  O1_18 
REMARK       I    between atoms: N6_23  and  C7_25 
REMARK    7  A    between atoms: C7_25  and  C8_27 
REMARK    8  A    between atoms: C8_27  and  C11_34 
REMARK    9  A    between atoms: N7_28  and  O3_30 
REMARK   10  A    between atoms: O3_30  and  C9_31 
REMARK   11  A    between atoms: C9_31  and  C10_32 
REMARK   12  A    between atoms: C12_35  and  C13_36 
REMARK   13  A    between atoms: N9_42  and  N10_43 
REMARK   14  A    between atoms: C16_45  and  C17_46 
ROOT
HETATM    1  C8  UNL     1      10.747   4.495  -1.185  1.00  0.00     0.153 C 
HETATM    2  N7  UNL     1      11.418   5.632  -1.036  1.00  0.00    -0.259 N 
ATOM      3  H7  UNL     1      12.202   5.789  -1.669  1.00  0.00     0.194 HD
ENDROOT
BRANCH   1   4
HETATM    4  C7  UNL     1       9.656   4.328  -0.268  1.00  0.00     0.278 C 
HETATM    5  N6  UNL     1       9.663   4.321   1.132  1.00  0.00    -0.305 N 
HETATM    6  C6  UNL     1       9.352   3.395   1.931  1.00  0.00     0.142 C 
ATOM      7  H6  UNL     1       9.962   5.192   1.570  1.00  0.00     0.170 HD
HETATM    8  C1  UNL     1       8.895   2.052   1.593  1.00  0.00     0.063 C 
HETATM    9  N5  UNL     1       9.366   3.433   3.373  1.00  0.00    -0.303 N 
HETATM   10  N1  UNL     1       9.070   1.324   0.564  1.00  0.00    -0.398 N 
HETATM   11  C2  UNL     1       8.097   1.618   2.786  1.00  0.00     0.174 C 
ATOM     12  H12 UNL     1       8.750   0.385   0.328  1.00  0.00     0.156 HD
ATOM     13  H11 UNL     1       9.612   1.619  -0.248  1.00  0.00     0.156 HD
HETATM   14  N2  UNL     1       8.506   2.461   3.863  1.00  0.00    -0.222 NA
ATOM     15  H5  UNL     1       9.920   4.073   3.942  1.00  0.00     0.182 HD
HETATM   16  O2  UNL     1       8.478   4.139  -0.774  1.00  0.00    -0.265 OA
BRANCH  14  17
HETATM   17  C3  UNL     1       7.458   2.980   4.676  1.00  0.00     0.151 C 
BRANCH  17  18
HETATM   18  C4  UNL     1       6.413   3.779   3.985  1.00  0.00     0.253 C 
BRANCH  18  19
HETATM   19  N3  UNL     1       5.059   3.418   4.243  1.00  0.00    -0.070 N 
ATOM     20  H33 UNL     1       4.571   3.262   3.361  1.00  0.00     0.274 HD
ATOM     21  H32 UNL     1       5.024   2.480   4.643  1.00  0.00     0.274 HD
ATOM     22  H31 UNL     1       4.518   4.059   4.824  1.00  0.00     0.274 HD
ENDBRANCH  18  19
BRANCH  18  23
HETATM   23  C5  UNL     1       6.563   5.275   4.158  1.00  0.00     0.348 C 
BRANCH  23  24
HETATM   24  N4  UNL     1       6.870   5.963   2.929  1.00  0.00    -0.051 N 
ATOM     25  H43 UNL     1       6.129   6.620   2.687  1.00  0.00     0.277 HD
ATOM     26  H42 UNL     1       7.639   6.618   3.064  1.00  0.00     0.277 HD
ATOM     27  H41 UNL     1       7.064   5.331   2.152  1.00  0.00     0.277 HD
ENDBRANCH  23  24
BRANCH  23  28
HETATM   28  O1  UNL     1       7.664   5.444   5.030  1.00  0.00    -0.368 OA
ATOM     29  H1  UNL     1       8.219   6.093   4.614  1.00  0.00     0.212 HD
ENDBRANCH  23  28
ENDBRANCH  18  23
ENDBRANCH  17  18
ENDBRANCH  14  17
ENDBRANCH   1   4
BRANCH   1  30
HETATM   30  C11 UNL     1      11.104   3.654  -2.329  1.00  0.00     0.125 A 
HETATM   31  C12 UNL     1      11.474   2.344  -2.374  1.00  0.00     0.142 A 
HETATM   32  N8  UNL     1      11.378   1.949  -3.710  1.00  0.00    -0.343 N 
HETATM   33  C14 UNL     1      10.978   3.006  -4.385  1.00  0.00     0.208 A 
ATOM     34  H8  UNL     1      11.577   1.023  -4.089  1.00  0.00     0.167 HD
HETATM   35  N9  UNL     1      10.800   4.065  -3.602  1.00  0.00    -0.239 N 
BRANCH  31  36
HETATM   36  C13 UNL     1      12.136   1.506  -1.385  1.00  0.00     0.229 C 
HETATM   37  O4  UNL     1      13.242   1.860  -0.923  1.00  0.00    -0.643 OA
HETATM   38  O5  UNL     1      11.593   0.345  -0.921  1.00  0.00    -0.643 OA
ENDBRANCH  31  36
BRANCH  35  39
HETATM   39  N10 UNL     1      10.390   5.318  -4.010  1.00  0.00    -0.240 N 
HETATM   40  C15 UNL     1      11.236   6.311  -4.334  1.00  0.00     0.139 A 
HETATM   41  C16 UNL     1      10.876   7.565  -4.765  1.00  0.00     0.098 A 
HETATM   42  C18 UNL     1       9.520   7.834  -4.878  1.00  0.00     0.208 A 
HETATM   43  O7  UNL     1       9.152   8.957  -5.263  1.00  0.00    -0.286 OA
HETATM   44  C19 UNL     1       8.637   6.828  -4.549  1.00  0.00     0.130 A 
HETATM   45  C20 UNL     1       7.284   7.082  -4.664  1.00  0.00     0.277 A 
HETATM   46  C22 UNL     1       9.055   5.586  -4.121  1.00  0.00     0.162 A 
HETATM   47  O8  UNL     1       6.929   8.221  -5.055  1.00  0.00    -0.266 OA
HETATM   48  N12 UNL     1       6.408   6.115  -4.357  1.00  0.00    -0.155 N 
HETATM   49  C21 UNL     1       6.861   4.913  -3.942  1.00  0.00     0.680 A 
ATOM     50  H12 UNL     1       5.406   6.287  -4.437  1.00  0.00     0.187 HD
HETATM   51  N13 UNL     1       5.995   3.982  -3.651  1.00  0.00    -0.234 N 
HETATM   52  N14 UNL     1       8.155   4.631  -3.820  1.00  0.00    -0.174 N 
ATOM     53 2H13 UNL     1       5.003   4.198  -3.745  1.00  0.00     0.174 HD
ATOM     54 1H13 UNL     1       6.337   3.073  -3.337  1.00  0.00     0.174 HD
ATOM     55  H14 UNL     1       8.459   3.711  -3.503  1.00  0.00     0.186 HD
BRANCH  41  56
HETATM   56  C17 UNL     1      11.873   8.580  -5.095  1.00  0.00     0.270 C 
HETATM   57  N11 UNL     1      12.412   8.656  -6.393  1.00  0.00    -0.057 NA
HETATM   58  O6  UNL     1      12.238   9.375  -4.216  1.00  0.00    -0.271 OA
ENDBRANCH  41  56
ENDBRANCH  35  39
ENDBRANCH   1  30
BRANCH   2  59
HETATM   59  O3  UNL     1      11.172   6.586  -0.143  1.00  0.00    -0.277 OA
BRANCH  59  60
HETATM   60  C9  UNL     1      10.364   7.728  -0.357  1.00  0.00     0.232 C 
BRANCH  60  61
HETATM   61  C10 UNL     1      11.175   8.860  -0.948  1.00  0.00     0.250 C 
HETATM   62  F1  UNL     1      12.504   8.628  -0.652  1.00  0.00    -0.253 F 
ENDBRANCH  60  61
ENDBRANCH  59  60
ENDBRANCH   2  59
TORSDOF 14
ENDMDL
MODEL 5
REMARK VINA RESULT: -8.094168233      3.022      7.722
REMARK  14 active torsions:
REMARK  status: ('A' for Active; 'I' for Inactive)
REMARK    1  A    between atoms: N2_6  and  C3_7 
REMARK    2  A    between atoms: C3_7  and  C4_8 
REMARK    3  A    between atoms: C4_8  and  N3_9 
REMARK    4  A    between atoms: C4_8  and  C5_13 
REMARK    5  A    between atoms: C5_13  and  N4_14 
REMARK    6  A    between atoms: C5_13  and  O1_18 
REMARK       I    between atoms: N6_23  and  C7_25 
REMARK    7  A    between atoms: C7_25  and  C8_27 
REMARK    8  A    between atoms: C8_27  and  C11_34 
REMARK    9  A    between atoms: N7_28  and  O3_30 
REMARK   10  A    between atoms: O3_30  and  C9_31 
REMARK   11  A    between atoms: C9_31  and  C10_32 
REMARK   12  A    between atoms: C12_35  and  C13_36 
REMARK   13  A    between atoms: N9_42  and  N10_43 
REMARK   14  A    between atoms: C16_45  and  C17_46 
ROOT
HETATM    1  C8  UNL     1      10.353   5.092  -3.155  1.00  0.00     0.153 C 
HETATM    2  N7  UNL     1      10.740   4.763  -4.383  1.00  0.00    -0.259 N 
ATOM      3  H7  UNL     1      10.983   5.531  -5.009  1.00  0.00     0.194 HD
ENDROOT
BRANCH   1   4
HETATM    4  C7  UNL     1      10.024   3.973  -2.319  1.00  0.00     0.278 C 
HETATM    5  N6  UNL     1      10.692   3.474  -1.195  1.00  0.00    -0.305 N 
HETATM    6  C6  UNL     1      11.237   2.350  -1.019  1.00  0.00     0.142 C 
ATOM      7  H6  UNL     1      10.747   4.114  -0.402  1.00  0.00     0.170 HD
HETATM    8  C1  UNL     1      11.315   1.247  -1.971  1.00  0.00     0.063 C 
HETATM    9  N5  UNL     1      11.911   1.871   0.162  1.00  0.00    -0.303 N 
HETATM   10  N1  UNL     1      11.282   1.212  -3.243  1.00  0.00    -0.398 N 
HETATM   11  C2  UNL     1      11.458   0.025  -1.114  1.00  0.00     0.174 C 
ATOM     12  H12 UNL     1      11.337   0.441  -3.907  1.00  0.00     0.156 HD
ATOM     13  H11 UNL     1      11.185   2.043  -3.825  1.00  0.00     0.156 HD
HETATM   14  N2  UNL     1      11.910   0.484   0.159  1.00  0.00    -0.222 NA
ATOM     15  H5  UNL     1      12.324   2.460   0.887  1.00  0.00     0.182 HD
HETATM   16  O2  UNL     1       8.966   3.291  -2.629  1.00  0.00    -0.265 OA
BRANCH  14  17
HETATM   17  C3  UNL     1      11.263  -0.091   1.291  1.00  0.00     0.151 C 
BRANCH  17  18
HETATM   18  C4  UNL     1      10.499   0.837   2.165  1.00  0.00     0.253 C 
BRANCH  18  19
HETATM   19  N3  UNL     1       9.118   0.544   2.353  1.00  0.00    -0.070 N 
ATOM     20  H33 UNL     1       8.553   1.323   2.015  1.00  0.00     0.274 HD
ATOM     21  H32 UNL     1       8.831  -0.188   1.703  1.00  0.00     0.274 HD
ATOM     22  H31 UNL     1       8.828   0.296   3.299  1.00  0.00     0.274 HD
ENDBRANCH  18  19
BRANCH  18  23
HETATM   23  C5  UNL     1      11.138   1.079   3.516  1.00  0.00     0.348 C 
BRANCH  23  24
HETATM   24  N4  UNL     1      10.391   1.993   4.343  1.00  0.00    -0.051 N 
ATOM     25  H43 UNL     1      10.806   2.063   5.271  1.00  0.00     0.277 HD
ATOM     26  H42 UNL     1      10.520   2.954   4.028  1.00  0.00     0.277 HD
ATOM     27  H41 UNL     1       9.400   1.761   4.405  1.00  0.00     0.277 HD
ENDBRANCH  23  24
BRANCH  23  28
HETATM   28  O1  UNL     1      12.390   1.678   3.238  1.00  0.00    -0.368 OA
ATOM     29  H1  UNL     1      12.793   1.824   4.086  1.00  0.00     0.212 HD
ENDBRANCH  23  28
ENDBRANCH  18  23
ENDBRANCH  17  18
ENDBRANCH  14  17
ENDBRANCH   1   4
BRANCH   1  30
HETATM   30  C11 UNL     1      10.453   6.504  -2.780  1.00  0.00     0.125 A 
HETATM   31  C12 UNL     1      11.390   7.149  -2.030  1.00  0.00     0.142 A 
HETATM   32  N8  UNL     1      11.207   8.516  -2.255  1.00  0.00    -0.343 N 
HETATM   33  C14 UNL     1      10.197   8.625  -3.092  1.00  0.00     0.208 A 
ATOM     34  H8  UNL     1      11.749   9.279  -1.850  1.00  0.00     0.167 HD
HETATM   35  N9  UNL     1       9.701   7.442  -3.441  1.00  0.00    -0.239 N 
BRANCH  31  36
HETATM   36  C13 UNL     1      12.248   6.669  -0.958  1.00  0.00     0.229 C 
HETATM   37  O4  UNL     1      13.464   6.960  -0.968  1.00  0.00    -0.643 OA
HETATM   38  O5  UNL     1      11.780   5.920   0.080  1.00  0.00    -0.643 OA
ENDBRANCH  31  36
BRANCH  35  39
HETATM   39  N10 UNL     1       8.642   7.225  -4.297  1.00  0.00    -0.240 N 
HETATM   40  C15 UNL     1       7.425   6.821  -3.892  1.00  0.00     0.139 A 
HETATM   41  C16 UNL     1       6.336   6.613  -4.703  1.00  0.00     0.098 A 
HETATM   42  C18 UNL     1       6.502   6.840  -6.062  1.00  0.00     0.208 A 
HETATM   43  O7  UNL     1       5.541   6.663  -6.830  1.00  0.00    -0.286 OA
HETATM   44  C19 UNL     1       7.742   7.254  -6.496  1.00  0.00     0.130 A 
HETATM   45  C20 UNL     1       7.917   7.490  -7.846  1.00  0.00     0.277 A 
HETATM   46  C22 UNL     1       8.801   7.447  -5.636  1.00  0.00     0.162 A 
HETATM   47  O8  UNL     1       6.937   7.306  -8.609  1.00  0.00    -0.266 OA
HETATM   48  N12 UNL     1       9.113   7.901  -8.289  1.00  0.00    -0.155 N 
HETATM   49  C21 UNL     1      10.124   8.078  -7.411  1.00  0.00     0.680 A 
ATOM     50  H12 UNL     1       9.259   8.080  -9.283  1.00  0.00     0.187 HD
HETATM   51  N13 UNL     1      11.281   8.482  -7.859  1.00  0.00    -0.234 N 
HETATM   52  N14 UNL     1       9.994   7.862  -6.105  1.00  0.00    -0.174 N 
ATOM     53 2H13 UNL     1      11.381   8.648  -8.860  1.00  0.00     0.174 HD
ATOM     54 1H13 UNL     1      12.045   8.615  -7.195  1.00  0.00     0.174 HD
ATOM     55  H14 UNL     1      10.780   8.007  -5.473  1.00  0.00     0.186 HD
BRANCH  41  56
HETATM   56  C17 UNL     1       5.051   6.172  -4.167  1.00  0.00     0.270 C 
HETATM   57  N11 UNL     1       4.084   7.114  -3.766  1.00  0.00    -0.057 NA
HETATM   58  O6  UNL     1       4.823   4.957  -4.069  1.00  0.00    -0.271 OA
ENDBRANCH  41  56
ENDBRANCH  35  39
ENDBRANCH   1  30
BRANCH   2  59
HETATM   59  O3  UNL     1      10.841   3.533  -4.878  1.00  0.00    -0.277 OA
BRANCH  59  60
HETATM   60  C9  UNL     1      10.346   3.104  -6.133  1.00  0.00     0.232 C 
BRANCH  60  61
HETATM   61  C10 UNL     1       8.899   3.508  -6.309  1.00  0.00     0.250 C 
HETATM   62  F1  UNL     1       8.251   2.483  -6.971  1.00  0.00    -0.253 F 
ENDBRANCH  60  61
ENDBRANCH  59  60
ENDBRANCH   2  59
TORSDOF 14
ENDMDL
