MODEL 1
REMARK VINA RESULT: -0.653409431      0.000      0.000
REMARK  2 active torsions:
REMARK  status: ('A' for Active; 'I' for Inactive)
REMARK    1  A    between atoms: O1_2  and  C2_3 
REMARK    2  A    between atoms: C2_3  and  C3_5 
REMARK       I    between atoms: N1_8  and  C6_9 
ROOT
HETATM    1  C3  UNL     1      27.437   3.633   3.475  1.00  0.00     0.065 C 
HETATM    2  C4  UNL     1      27.193   4.333   2.134  1.00  0.00     0.028 C 
HETATM    3  C5  UNL     1      28.378   2.502   3.332  1.00  0.00     0.145 C 
HETATM    4  N1  UNL     1      27.849   1.187   3.440  1.00  0.00    -0.351 N 
HETATM    5  C6  UNL     1      28.616   0.085   3.027  1.00  0.00     0.215 C 
HETATM    6  C7  UNL     1      28.132  -1.327   3.108  1.00  0.00     0.117 C 
HETATM    7  O3  UNL     1      29.769   0.273   2.564  1.00  0.00    -0.274 OA
HETATM    8  C8  UNL     1      26.508   0.891   3.969  1.00  0.00     0.133 C 
HETATM    9  C9  UNL     1      25.614   1.987   3.365  1.00  0.00     0.036 C 
HETATM   10  C10 UNL     1      26.072   3.254   3.997  1.00  0.00     0.015 C 
HETATM   11  C11 UNL     1      25.083   4.353   3.770  1.00  0.00     0.036 C 
HETATM   12  C12 UNL     1      23.782   3.904   4.388  1.00  0.00     0.019 C 
HETATM   13  C13 UNL     1      22.790   5.050   4.136  1.00  0.00     0.037 C 
HETATM   14  C14 UNL     1      23.884   3.776   5.894  1.00  0.00     0.037 C 
HETATM   15  N2  UNL     1      23.297   2.761   3.730  1.00  0.00    -0.405 N 
ATOM     16  H2  UNL     1      22.326   2.715   3.420  1.00  0.00     0.154 HD
HETATM   17  C15 UNL     1      24.169   1.683   3.503  1.00  0.00     0.024 C 
HETATM   18  C16 UNL     1      23.707   1.030   2.187  1.00  0.00     0.038 C 
HETATM   19  C17 UNL     1      23.931   0.606   4.554  1.00  0.00     0.038 C 
ENDROOT
BRANCH   1  20
HETATM   20  C2  UNL     1      28.072   4.651   4.356  1.00  0.00     0.269 C 
HETATM   21  O2  UNL     1      28.668   4.353   5.421  1.00  0.00    -0.264 OA
BRANCH  20  22
HETATM   22  O1  UNL     1      28.031   6.008   4.033  1.00  0.00    -0.326 OA
HETATM   23  C1  UNL     1      26.955   6.837   4.495  1.00  0.00     0.213 C 
ENDBRANCH  20  22
ENDBRANCH   1  20
TORSDOF 2
ENDMDL
MODEL 2
REMARK VINA RESULT: -0.019562279      2.533      5.326
REMARK  2 active torsions:
REMARK  status: ('A' for Active; 'I' for Inactive)
REMARK    1  A    between atoms: O1_2  and  C2_3 
REMARK    2  A    between atoms: C2_3  and  C3_5 
REMARK       I    between atoms: N1_8  and  C6_9 
ROOT
HETATM    1  C3  UNL     1      25.168   2.108   3.098  1.00  0.00     0.065 C 
HETATM    2  C4  UNL     1      25.413   1.679   1.647  1.00  0.00     0.028 C 
HETATM    3  C5  UNL     1      25.269   3.575   3.253  1.00  0.00     0.145 C 
HETATM    4  N1  UNL     1      26.404   4.089   3.936  1.00  0.00    -0.351 N 
HETATM    5  C6  UNL     1      26.709   5.459   3.862  1.00  0.00     0.215 C 
HETATM    6  C7  UNL     1      27.882   6.076   4.552  1.00  0.00     0.117 C 
HETATM    7  O3  UNL     1      25.970   6.220   3.189  1.00  0.00    -0.274 OA
HETATM    8  C8  UNL     1      27.313   3.258   4.742  1.00  0.00     0.133 C 
HETATM    9  C9  UNL     1      27.485   1.975   3.912  1.00  0.00     0.036 C 
HETATM   10  C10 UNL     1      26.150   1.319   3.931  1.00  0.00     0.015 C 
HETATM   11  C11 UNL     1      26.242  -0.098   3.459  1.00  0.00     0.036 C 
HETATM   12  C12 UNL     1      27.184  -0.810   4.397  1.00  0.00     0.019 C 
HETATM   13  C13 UNL     1      27.259  -2.257   3.885  1.00  0.00     0.037 C 
HETATM   14  C14 UNL     1      26.624  -0.902   5.802  1.00  0.00     0.037 C 
HETATM   15  N2  UNL     1      28.473  -0.254   4.311  1.00  0.00    -0.405 N 
ATOM     16  H2  UNL     1      29.289  -0.855   4.198  1.00  0.00     0.154 HD
HETATM   17  C15 UNL     1      28.619   1.141   4.381  1.00  0.00     0.024 C 
HETATM   18  C16 UNL     1      29.837   1.487   3.504  1.00  0.00     0.038 C 
HETATM   19  C17 UNL     1      29.050   1.539   5.786  1.00  0.00     0.038 C 
ENDROOT
BRANCH   1  20
HETATM   20  C2  UNL     1      23.771   1.707   3.411  1.00  0.00     0.269 C 
HETATM   21  O2  UNL     1      22.998   1.205   2.555  1.00  0.00    -0.264 OA
BRANCH  20  22
HETATM   22  O1  UNL     1      23.243   1.873   4.691  1.00  0.00    -0.326 OA
HETATM   23  C1  UNL     1      23.256   3.160   5.325  1.00  0.00     0.213 C 
ENDBRANCH  20  22
ENDBRANCH   1  20
TORSDOF 2
ENDMDL
MODEL 3
REMARK VINA RESULT: 0.192376516      2.532      4.381
REMARK  2 active torsions:
REMARK  status: ('A' for Active; 'I' for Inactive)
REMARK    1  A    between atoms: O1_2  and  C2_3 
REMARK    2  A    between atoms: C2_3  and  C3_5 
REMARK       I    between atoms: N1_8  and  C6_9 
ROOT
HETATM    1  C3  UNL     1      24.856   2.006   3.954  1.00  0.00     0.065 C 
HETATM    2  C4  UNL     1      24.541   1.995   5.454  1.00  0.00     0.028 C 
HETATM    3  C5  UNL     1      25.717   0.867   3.573  1.00  0.00     0.145 C 
HETATM    4  N1  UNL     1      27.069   1.147   3.236  1.00  0.00    -0.351 N 
HETATM    5  C6  UNL     1      28.004   0.101   3.154  1.00  0.00     0.215 C 
HETATM    6  C7  UNL     1      29.443   0.313   2.805  1.00  0.00     0.117 C 
HETATM    7  O3  UNL     1      27.634  -1.078   3.381  1.00  0.00    -0.274 OA
HETATM    8  C8  UNL     1      27.575   2.501   2.959  1.00  0.00     0.133 C 
HETATM    9  C9  UNL     1      26.894   3.381   4.020  1.00  0.00     0.036 C 
HETATM   10  C10 UNL     1      25.448   3.366   3.668  1.00  0.00     0.015 C 
HETATM   11  C11 UNL     1      24.707   4.442   4.397  1.00  0.00     0.036 C 
HETATM   12  C12 UNL     1      25.328   5.754   3.988  1.00  0.00     0.019 C 
HETATM   13  C13 UNL     1      24.549   6.834   4.754  1.00  0.00     0.037 C 
HETATM   14  C14 UNL     1      25.105   6.053   2.520  1.00  0.00     0.037 C 
HETATM   15  N2  UNL     1      26.670   5.811   4.405  1.00  0.00    -0.405 N 
ATOM     16  H2  UNL     1      27.023   6.630   4.899  1.00  0.00     0.154 HD
HETATM   17  C15 UNL     1      27.515   4.723   4.132  1.00  0.00     0.024 C 
HETATM   18  C16 UNL     1      28.527   4.667   5.292  1.00  0.00     0.038 C 
HETATM   19  C17 UNL     1      28.370   5.037   2.911  1.00  0.00     0.038 C 
ENDROOT
BRANCH   1  20
HETATM   20  C2  UNL     1      23.548   1.847   3.262  1.00  0.00     0.269 C 
HETATM   21  O2  UNL     1      22.509   2.457   3.620  1.00  0.00    -0.264 OA
BRANCH  20  22
HETATM   22  O1  UNL     1      23.413   0.996   2.165  1.00  0.00    -0.326 OA
HETATM   23  C1  UNL     1      22.175   0.315   1.916  1.00  0.00     0.213 C 
ENDBRANCH  20  22
ENDBRANCH   1  20
TORSDOF 2
ENDMDL
MODEL 4
REMARK VINA RESULT: 0.263721310      2.024      4.872
REMARK  2 active torsions:
REMARK  status: ('A' for Active; 'I' for Inactive)
REMARK    1  A    between atoms: O1_2  and  C2_3 
REMARK    2  A    between atoms: C2_3  and  C3_5 
REMARK       I    between atoms: N1_8  and  C6_9 
ROOT
HETATM    1  C3  UNL     1      27.197   2.488   4.612  1.00  0.00     0.065 C 
HETATM    2  C4  UNL     1      27.260   2.190   6.114  1.00  0.00     0.028 C 
HETATM    3  C5  UNL     1      25.813   2.771   4.175  1.00  0.00     0.145 C 
HETATM    4  N1  UNL     1      25.158   1.787   3.385  1.00  0.00    -0.351 N 
HETATM    5  C6  UNL     1      23.768   1.855   3.188  1.00  0.00     0.215 C 
HETATM    6  C7  UNL     1      23.006   0.862   2.371  1.00  0.00     0.117 C 
HETATM    7  O3  UNL     1      23.114   2.790   3.714  1.00  0.00    -0.274 OA
HETATM    8  C8  UNL     1      25.857   0.665   2.739  1.00  0.00     0.133 C 
HETATM    9  C9  UNL     1      26.867   0.191   3.798  1.00  0.00     0.036 C 
HETATM   10  C10 UNL     1      27.843   1.306   3.929  1.00  0.00     0.015 C 
HETATM   11  C11 UNL     1      29.068   0.862   4.664  1.00  0.00     0.036 C 
HETATM   12  C12 UNL     1      29.671  -0.266   3.865  1.00  0.00     0.019 C 
HETATM   13  C13 UNL     1      30.922  -0.700   4.646  1.00  0.00     0.037 C 
HETATM   14  C14 UNL     1      30.175   0.202   2.515  1.00  0.00     0.037 C 
HETATM   15  N2  UNL     1      28.789  -1.359   3.820  1.00  0.00    -0.405 N 
ATOM     16  H2  UNL     1      29.121  -2.300   4.032  1.00  0.00     0.154 HD
HETATM   17  C15 UNL     1      27.445  -1.137   3.479  1.00  0.00     0.024 C 
HETATM   18  C16 UNL     1      26.629  -2.191   4.252  1.00  0.00     0.038 C 
HETATM   19  C17 UNL     1      27.224  -1.497   2.016  1.00  0.00     0.038 C 
ENDROOT
BRANCH   1  20
HETATM   20  C2  UNL     1      28.005   3.720   4.407  1.00  0.00     0.269 C 
HETATM   21  O2  UNL     1      29.020   3.992   5.097  1.00  0.00    -0.264 OA
BRANCH  20  22
HETATM   22  O1  UNL     1      27.665   4.648   3.422  1.00  0.00    -0.326 OA
HETATM   23  C1  UNL     1      27.247   5.973   3.780  1.00  0.00     0.213 C 
ENDBRANCH  20  22
ENDBRANCH   1  20
TORSDOF 2
ENDMDL
MODEL 5
REMARK VINA RESULT: 0.361851490      2.497      4.504
REMARK  2 active torsions:
REMARK  status: ('A' for Active; 'I' for Inactive)
REMARK    1  A    between atoms: O1_2  and  C2_3 
REMARK    2  A    between atoms: C2_3  and  C3_5 
REMARK       I    between atoms: N1_8  and  C6_9 
ROOT
HETATM    1  C3  UNL     1      24.468   3.122   4.363  1.00  0.00     0.065 C 
HETATM    2  C4  UNL     1      24.048   2.871   5.816  1.00  0.00     0.028 C 
HETATM    3  C5  UNL     1      23.448   2.632   3.413  1.00  0.00     0.145 C 
HETATM    4  N1  UNL     1      23.755   1.468   2.658  1.00  0.00    -0.351 N 
HETATM    5  C6  UNL     1      22.738   0.788   1.967  1.00  0.00     0.215 C 
HETATM    6  C7  UNL     1      22.979  -0.441   1.151  1.00  0.00     0.117 C 
HETATM    7  O3  UNL     1      21.559   1.219   2.024  1.00  0.00    -0.274 OA
HETATM    8  C8  UNL     1      25.111   0.905   2.547  1.00  0.00     0.133 C 
HETATM    9  C9  UNL     1      25.684   1.021   3.969  1.00  0.00     0.036 C 
HETATM   10  C10 UNL     1      25.828   2.482   4.212  1.00  0.00     0.015 C 
HETATM   11  C11 UNL     1      26.684   2.744   5.410  1.00  0.00     0.036 C 
HETATM   12  C12 UNL     1      28.032   2.129   5.126  1.00  0.00     0.019 C 
HETATM   13  C13 UNL     1      28.884   2.413   6.373  1.00  0.00     0.037 C 
HETATM   14  C14 UNL     1      28.741   2.822   3.980  1.00  0.00     0.037 C 
HETATM   15  N2  UNL     1      27.915   0.735   4.991  1.00  0.00    -0.405 N 
ATOM     16  H2  UNL     1      28.547   0.112   5.493  1.00  0.00     0.154 HD
HETATM   17  C15 UNL     1      26.914   0.213   4.154  1.00  0.00     0.024 C 
HETATM   18  C16 UNL     1      26.493  -1.130   4.780  1.00  0.00     0.038 C 
HETATM   19  C17 UNL     1      27.523  -0.178   2.814  1.00  0.00     0.038 C 
ENDROOT
BRANCH   1  20
HETATM   20  C2  UNL     1      24.563   4.599   4.216  1.00  0.00     0.269 C 
HETATM   21  O2  UNL     1      23.599   5.371   4.453  1.00  0.00    -0.264 OA
BRANCH  20  22
HETATM   22  O1  UNL     1      25.748   5.206   3.799  1.00  0.00    -0.326 OA
HETATM   23  C1  UNL     1      25.896   6.632   3.850  1.00  0.00     0.213 C 
ENDBRANCH  20  22
ENDBRANCH   1  20
TORSDOF 2
ENDMDL
