MODEL 1
REMARK VINA RESULT: -2.772930191      0.000      0.000
REMARK  3 active torsions:
REMARK  status: ('A' for Active; 'I' for Inactive)
REMARK    1  A    between atoms: O1_2  and  C2_3 
REMARK    2  A    between atoms: C2_3  and  C3_5 
REMARK       I    between atoms: N1_8  and  C5_10 
REMARK       I    between atoms: C5_10  and  N3_16 
REMARK       I    between atoms: N2_11  and  C6_13 
REMARK    3  A    between atoms: N3_16  and  C8_18 
ROOT
HETATM    1  C3  UNL     1      29.081   1.352   4.333  1.00  0.00     0.200 C 
HETATM    2  S1  UNL     1      28.246   2.935   4.673  1.00  0.00    -0.072 SA
HETATM    3  C4  UNL     1      26.992   2.677   3.385  1.00  0.00     0.160 C 
HETATM    4  N1  UNL     1      25.840   3.239   3.311  1.00  0.00    -0.170 N 
ATOM      5  H1  UNL     1      25.221   3.010   2.533  1.00  0.00     0.186 HD
HETATM    6  C5  UNL     1      25.412   4.171   4.286  1.00  0.00     0.683 C 
HETATM    7  N2  UNL     1      24.409   3.883   5.030  1.00  0.00    -0.160 N 
ATOM      8  H2  UNL     1      24.113   4.567   5.727  1.00  0.00     0.187 HD
HETATM    9  C6  UNL     1      23.693   2.672   4.938  1.00  0.00     0.231 C 
HETATM   10  C7  UNL     1      22.766   2.306   6.046  1.00  0.00     0.118 C 
HETATM   11  O3  UNL     1      23.777   1.866   3.976  1.00  0.00    -0.273 OA
HETATM   12  N3  UNL     1      26.090   5.403   4.427  1.00  0.00    -0.218 N 
ATOM     13  H3  UNL     1      26.803   5.504   5.149  1.00  0.00     0.178 HD
HETATM   14  N4  UNL     1      27.617   1.741   2.553  1.00  0.00    -0.342 N 
ATOM     15  H4  UNL     1      27.263   1.587   1.609  1.00  0.00     0.167 HD
HETATM   16  C12 UNL     1      28.596   1.100   2.955  1.00  0.00     0.009 C 
HETATM   17  C13 UNL     1      29.337   0.063   2.114  1.00  0.00     0.065 C 
ENDROOT
BRANCH  12  18
HETATM   18  C8  UNL     1      25.792   6.511   3.574  1.00  0.00     0.036 C 
HETATM   19  C9  UNL     1      26.431   6.325   2.213  1.00  0.00     0.038 C 
HETATM   20  C10 UNL     1      26.412   7.760   4.177  1.00  0.00     0.038 C 
HETATM   21  C11 UNL     1      24.307   6.760   3.443  1.00  0.00     0.038 C 
ENDBRANCH  12  18
BRANCH   1  22
HETATM   22  C2  UNL     1      28.596   0.352   5.289  1.00  0.00     0.278 C 
HETATM   23  O2  UNL     1      29.353  -0.042   6.207  1.00  0.00    -0.264 OA
BRANCH  22  24
HETATM   24  O1  UNL     1      27.325  -0.207   5.254  1.00  0.00    -0.325 OA
HETATM   25  C1  UNL     1      27.001  -1.268   4.392  1.00  0.00     0.213 C 
ENDBRANCH  22  24
ENDBRANCH   1  22
TORSDOF 3
ENDMDL
MODEL 2
REMARK VINA RESULT: -2.706613586      0.559      1.209
REMARK  3 active torsions:
REMARK  status: ('A' for Active; 'I' for Inactive)
REMARK    1  A    between atoms: O1_2  and  C2_3 
REMARK    2  A    between atoms: C2_3  and  C3_5 
REMARK       I    between atoms: N1_8  and  C5_10 
REMARK       I    between atoms: C5_10  and  N3_16 
REMARK       I    between atoms: N2_11  and  C6_13 
REMARK    3  A    between atoms: N3_16  and  C8_18 
ROOT
HETATM    1  C3  UNL     1      29.093   1.248   4.328  1.00  0.00     0.200 C 
HETATM    2  S1  UNL     1      28.289   2.852   4.644  1.00  0.00    -0.072 SA
HETATM    3  C4  UNL     1      26.991   2.570   3.405  1.00  0.00     0.160 C 
HETATM    4  N1  UNL     1      25.844   3.145   3.351  1.00  0.00    -0.170 N 
ATOM      5  H1  UNL     1      25.197   2.899   2.601  1.00  0.00     0.186 HD
HETATM    6  C5  UNL     1      25.459   4.112   4.309  1.00  0.00     0.683 C 
HETATM    7  N2  UNL     1      24.477   3.861   5.093  1.00  0.00    -0.160 N 
ATOM      8  H2  UNL     1      24.212   4.571   5.777  1.00  0.00     0.187 HD
HETATM    9  C6  UNL     1      23.744   2.657   5.063  1.00  0.00     0.231 C 
HETATM   10  C7  UNL     1      22.849   2.339   6.211  1.00  0.00     0.118 C 
HETATM   11  O3  UNL     1      23.787   1.820   4.125  1.00  0.00    -0.273 OA
HETATM   12  N3  UNL     1      26.156   5.340   4.388  1.00  0.00    -0.218 N 
ATOM     13  H3  UNL     1      26.893   5.454   5.084  1.00  0.00     0.178 HD
HETATM   14  N4  UNL     1      27.577   1.601   2.584  1.00  0.00    -0.342 N 
ATOM     15  H4  UNL     1      27.191   1.421   1.658  1.00  0.00     0.167 HD
HETATM   16  C12 UNL     1      28.561   0.960   2.975  1.00  0.00     0.009 C 
HETATM   17  C13 UNL     1      29.262  -0.113   2.145  1.00  0.00     0.065 C 
ENDROOT
BRANCH  12  18
HETATM   18  C8  UNL     1      25.844   6.424   3.510  1.00  0.00     0.036 C 
HETATM   19  C9  UNL     1      26.495   6.220   2.157  1.00  0.00     0.038 C 
HETATM   20  C10 UNL     1      26.438   7.696   4.090  1.00  0.00     0.038 C 
HETATM   21  C11 UNL     1      24.356   6.643   3.365  1.00  0.00     0.038 C 
ENDBRANCH  12  18
BRANCH   1  22
HETATM   22  C2  UNL     1      28.628   0.286   5.330  1.00  0.00     0.278 C 
HETATM   23  O2  UNL     1      27.476  -0.198   5.235  1.00  0.00    -0.264 OA
BRANCH  22  24
HETATM   24  O1  UNL     1      29.390  -0.145   6.408  1.00  0.00    -0.325 OA
HETATM   25  C1  UNL     1      29.580   0.650   7.552  1.00  0.00     0.213 C 
ENDBRANCH  22  24
ENDBRANCH   1  22
TORSDOF 3
ENDMDL
MODEL 3
REMARK VINA RESULT: -1.837572497      2.381      3.790
REMARK  3 active torsions:
REMARK  status: ('A' for Active; 'I' for Inactive)
REMARK    1  A    between atoms: O1_2  and  C2_3 
REMARK    2  A    between atoms: C2_3  and  C3_5 
REMARK       I    between atoms: N1_8  and  C5_10 
REMARK       I    between atoms: C5_10  and  N3_16 
REMARK       I    between atoms: N2_11  and  C6_13 
REMARK    3  A    between atoms: N3_16  and  C8_18 
ROOT
HETATM    1  C3  UNL     1      28.357  -0.084   4.561  1.00  0.00     0.200 C 
HETATM    2  S1  UNL     1      26.836   0.811   4.108  1.00  0.00    -0.072 SA
HETATM    3  C4  UNL     1      27.342   2.329   4.967  1.00  0.00     0.160 C 
HETATM    4  N1  UNL     1      26.904   3.516   4.749  1.00  0.00    -0.170 N 
ATOM      5  H1  UNL     1      27.269   4.292   5.302  1.00  0.00     0.186 HD
HETATM    6  C5  UNL     1      25.925   3.770   3.760  1.00  0.00     0.683 C 
HETATM    7  N2  UNL     1      26.233   4.488   2.744  1.00  0.00    -0.160 N 
ATOM      8  H2  UNL     1      25.514   4.663   2.041  1.00  0.00     0.187 HD
HETATM    9  C6  UNL     1      27.510   5.051   2.545  1.00  0.00     0.231 C 
HETATM   10  C7  UNL     1      27.851   5.587   1.198  1.00  0.00     0.118 C 
HETATM   11  O3  UNL     1      28.397   5.136   3.433  1.00  0.00    -0.273 OA
HETATM   12  N3  UNL     1      24.625   3.234   3.902  1.00  0.00    -0.218 N 
ATOM     13  H3  UNL     1      24.384   2.368   3.421  1.00  0.00     0.178 HD
HETATM   14  N4  UNL     1      28.291   1.848   5.875  1.00  0.00    -0.342 N 
ATOM     15  H4  UNL     1      28.573   2.426   6.667  1.00  0.00     0.167 HD
HETATM   16  C12 UNL     1      28.791   0.726   5.724  1.00  0.00     0.009 C 
HETATM   17  C13 UNL     1      29.831   0.124   6.666  1.00  0.00     0.065 C 
ENDROOT
BRANCH  12  18
HETATM   18  C8  UNL     1      23.642   3.886   4.710  1.00  0.00     0.036 C 
HETATM   19  C9  UNL     1      22.354   4.078   3.935  1.00  0.00     0.038 C 
HETATM   20  C10 UNL     1      24.151   5.274   5.056  1.00  0.00     0.038 C 
HETATM   21  C11 UNL     1      23.386   3.160   6.011  1.00  0.00     0.038 C 
ENDBRANCH  12  18
BRANCH   1  22
HETATM   22  C2  UNL     1      29.298  -0.004   3.440  1.00  0.00     0.278 C 
HETATM   23  O2  UNL     1      29.732   1.113   3.076  1.00  0.00    -0.264 OA
BRANCH  22  24
HETATM   24  O1  UNL     1      29.760  -1.106   2.732  1.00  0.00    -0.325 OA
HETATM   25  C1  UNL     1      30.214  -2.270   3.376  1.00  0.00     0.213 C 
ENDBRANCH  22  24
ENDBRANCH   1  22
TORSDOF 3
ENDMDL
MODEL 4
REMARK VINA RESULT: -0.596776586      0.776      1.462
REMARK  3 active torsions:
REMARK  status: ('A' for Active; 'I' for Inactive)
REMARK    1  A    between atoms: O1_2  and  C2_3 
REMARK    2  A    between atoms: C2_3  and  C3_5 
REMARK       I    between atoms: N1_8  and  C5_10 
REMARK       I    between atoms: C5_10  and  N3_16 
REMARK       I    between atoms: N2_11  and  C6_13 
REMARK    3  A    between atoms: N3_16  and  C8_18 
ROOT
HETATM    1  C3  UNL     1      29.088   1.520   4.095  1.00  0.00     0.200 C 
HETATM    2  S1  UNL     1      28.274   3.106   4.468  1.00  0.00    -0.072 SA
HETATM    3  C4  UNL     1      26.884   2.783   3.344  1.00  0.00     0.160 C 
HETATM    4  N1  UNL     1      25.723   3.329   3.383  1.00  0.00    -0.170 N 
ATOM      5  H1  UNL     1      25.022   3.062   2.692  1.00  0.00     0.186 HD
HETATM    6  C5  UNL     1      25.396   4.295   4.364  1.00  0.00     0.683 C 
HETATM    7  N2  UNL     1      24.490   4.026   5.229  1.00  0.00    -0.160 N 
ATOM      8  H2  UNL     1      24.265   4.735   5.928  1.00  0.00     0.187 HD
HETATM    9  C6  UNL     1      23.786   2.805   5.268  1.00  0.00     0.231 C 
HETATM   10  C7  UNL     1      22.999   2.474   6.489  1.00  0.00     0.118 C 
HETATM   11  O3  UNL     1      23.771   1.962   4.335  1.00  0.00    -0.273 OA
HETATM   12  N3  UNL     1      26.066   5.539   4.377  1.00  0.00    -0.218 N 
ATOM     13  H3  UNL     1      26.856   5.677   5.008  1.00  0.00     0.178 HD
HETATM   14  N4  UNL     1      27.423   1.822   2.483  1.00  0.00    -0.342 N 
ATOM     15  H4  UNL     1      26.965   1.625   1.593  1.00  0.00     0.167 HD
HETATM   16  C12 UNL     1      28.452   1.208   2.794  1.00  0.00     0.009 C 
HETATM   17  C13 UNL     1      29.107   0.146   1.914  1.00  0.00     0.065 C 
ENDROOT
BRANCH  12  18
HETATM   18  C8  UNL     1      25.655   6.609   3.522  1.00  0.00     0.036 C 
HETATM   19  C9  UNL     1      24.146   6.630   3.380  1.00  0.00     0.038 C 
HETATM   20  C10 UNL     1      26.218   6.355   2.134  1.00  0.00     0.038 C 
HETATM   21  C11 UNL     1      26.172   7.952   3.983  1.00  0.00     0.038 C 
ENDBRANCH  12  18
BRANCH   1  22
HETATM   22  C2  UNL     1      28.733   0.555   5.139  1.00  0.00     0.278 C 
HETATM   23  O2  UNL     1      28.759  -0.671   4.881  1.00  0.00    -0.264 OA
BRANCH  22  24
HETATM   24  O1  UNL     1      28.360   0.906   6.430  1.00  0.00    -0.325 OA
HETATM   25  C1  UNL     1      29.271   0.887   7.500  1.00  0.00     0.213 C 
ENDBRANCH  22  24
ENDBRANCH   1  22
TORSDOF 3
ENDMDL
MODEL 5
REMARK VINA RESULT: 0.813132904      2.323      6.326
REMARK  3 active torsions:
REMARK  status: ('A' for Active; 'I' for Inactive)
REMARK    1  A    between atoms: O1_2  and  C2_3 
REMARK    2  A    between atoms: C2_3  and  C3_5 
REMARK       I    between atoms: N1_8  and  C5_10 
REMARK       I    between atoms: C5_10  and  N3_16 
REMARK       I    between atoms: N2_11  and  C6_13 
REMARK    3  A    between atoms: N3_16  and  C8_18 
ROOT
HETATM    1  C3  UNL     1      25.658   3.156   3.363  1.00  0.00     0.200 C 
HETATM    2  S1  UNL     1      26.431   1.514   3.522  1.00  0.00    -0.072 SA
HETATM    3  C4  UNL     1      28.074   2.199   3.882  1.00  0.00     0.160 C 
HETATM    4  N1  UNL     1      29.043   1.600   4.473  1.00  0.00    -0.170 N 
ATOM      5  H1  UNL     1      29.923   2.096   4.617  1.00  0.00     0.186 HD
HETATM    6  C5  UNL     1      28.916   0.266   4.928  1.00  0.00     0.683 C 
HETATM    7  N2  UNL     1      28.969   0.026   6.186  1.00  0.00    -0.160 N 
ATOM      8  H2  UNL     1      28.877  -0.942   6.496  1.00  0.00     0.187 HD
HETATM    9  C6  UNL     1      29.146   1.026   7.164  1.00  0.00     0.231 C 
HETATM   10  C7  UNL     1      28.872   0.687   8.588  1.00  0.00     0.118 C 
HETATM   11  O3  UNL     1      29.525   2.200   6.921  1.00  0.00    -0.273 OA
HETATM   12  N3  UNL     1      28.736  -0.781   3.996  1.00  0.00    -0.218 N 
ATOM     13  H3  UNL     1      27.796  -1.126   3.805  1.00  0.00     0.178 HD
HETATM   14  N4  UNL     1      27.971   3.492   3.357  1.00  0.00    -0.342 N 
ATOM     15  H4  UNL     1      28.816   4.037   3.185  1.00  0.00     0.167 HD
HETATM   16  C12 UNL     1      26.863   3.978   3.100  1.00  0.00     0.009 C 
HETATM   17  C13 UNL     1      26.661   5.379   2.525  1.00  0.00     0.065 C 
ENDROOT
BRANCH  12  18
HETATM   18  C8  UNL     1      29.850  -1.365   3.318  1.00  0.00     0.036 C 
HETATM   19  C9  UNL     1      30.093  -0.671   1.992  1.00  0.00     0.038 C 
HETATM   20  C10 UNL     1      29.511  -2.810   2.994  1.00  0.00     0.038 C 
HETATM   21  C11 UNL     1      31.105  -1.371   4.161  1.00  0.00     0.038 C 
ENDBRANCH  12  18
BRANCH   1  22
HETATM   22  C2  UNL     1      25.015   3.495   4.636  1.00  0.00     0.278 C 
HETATM   23  O2  UNL     1      24.945   2.632   5.542  1.00  0.00    -0.264 OA
BRANCH  22  24
HETATM   24  O1  UNL     1      24.463   4.737   4.922  1.00  0.00    -0.325 OA
HETATM   25  C1  UNL     1      23.353   5.238   4.221  1.00  0.00     0.213 C 
ENDBRANCH  22  24
ENDBRANCH   1  22
TORSDOF 3
ENDMDL
