MODEL 1
REMARK VINA RESULT: -4.774655857      0.000      0.000
REMARK  2 active torsions:
REMARK  status: ('A' for Active; 'I' for Inactive)
REMARK       I    between atoms: N1_2  and  C3_4 
REMARK    1  A    between atoms: C3_4  and  C4_6 
REMARK    2  A    between atoms: C8_10  and  O2_11 
ROOT
HETATM    1  C4  UNL     1      27.219   5.383   3.669  1.00  0.00     0.086 C 
HETATM    2  C5  UNL     1      27.741   4.557   4.820  1.00  0.00     0.049 C 
HETATM    3  C6  UNL     1      27.207   3.345   4.093  1.00  0.00    -0.068 C 
HETATM    4  C7  UNL     1      27.573   2.088   4.072  1.00  0.00     0.013 C 
HETATM    5  C8  UNL     1      28.749   1.688   4.911  1.00  0.00     0.153 C 
HETATM    6  C9  UNL     1      29.081   0.241   4.840  1.00  0.00     0.046 C 
HETATM    7  C10 UNL     1      29.013  -0.324   3.445  1.00  0.00    -0.032 A 
HETATM    8  C11 UNL     1      29.642  -1.694   3.304  1.00  0.00     0.016 C 
HETATM    9  C12 UNL     1      29.174   0.565   2.265  1.00  0.00     0.021 A 
HETATM   10  C13 UNL     1      27.831   0.030   2.678  1.00  0.00     0.062 A 
HETATM   11  C14 UNL     1      26.894   1.034   3.276  1.00  0.00     0.196 C 
HETATM   12  O3  UNL     1      26.253   1.662   2.210  1.00  0.00    -0.349 OA
HETATM   13  C15 UNL     1      25.187   0.830   1.915  1.00  0.00     0.198 C 
HETATM   14  C16 UNL     1      24.752   0.372   3.286  1.00  0.00     0.198 C 
HETATM   15  O4  UNL     1      25.892   0.439   4.038  1.00  0.00    -0.349 OA
HETATM   16  C17 UNL     1      26.192   4.270   3.516  1.00  0.00     0.049 C 
ENDROOT
BRANCH   5  17
HETATM   17  O2  UNL     1      28.396   1.986   6.233  1.00  0.00    -0.391 OA
ATOM     18  H2  UNL     1      27.591   1.510   6.401  1.00  0.00     0.210 HD
ENDBRANCH   5  17
BRANCH   1  19
HETATM   19  C3  UNL     1      26.689   6.665   4.120  1.00  0.00     0.223 C 
HETATM   20  N1  UNL     1      25.304   6.822   4.361  1.00  0.00    -0.360 N 
HETATM   21  C1  UNL     1      24.424   5.710   4.163  1.00  0.00     0.152 C 
HETATM   22  C2  UNL     1      24.745   8.093   4.809  1.00  0.00     0.152 C 
HETATM   23  O1  UNL     1      27.430   7.667   4.309  1.00  0.00    -0.273 OA
ENDBRANCH   1  19
TORSDOF 2
ENDMDL
MODEL 2
REMARK VINA RESULT: -3.328610651      2.573      6.190
REMARK  2 active torsions:
REMARK  status: ('A' for Active; 'I' for Inactive)
REMARK       I    between atoms: N1_2  and  C3_4 
REMARK    1  A    between atoms: C3_4  and  C4_6 
REMARK    2  A    between atoms: C8_10  and  O2_11 
ROOT
HETATM    1  C4  UNL     1      28.420   1.607   4.950  1.00  0.00     0.086 C 
HETATM    2  C5  UNL     1      28.396   2.360   3.641  1.00  0.00     0.049 C 
HETATM    3  C6  UNL     1      27.037   2.878   4.051  1.00  0.00    -0.068 C 
HETATM    4  C7  UNL     1      26.384   3.979   3.776  1.00  0.00     0.013 C 
HETATM    5  C8  UNL     1      27.050   4.980   2.880  1.00  0.00     0.153 C 
HETATM    6  C9  UNL     1      26.230   6.189   2.607  1.00  0.00     0.046 C 
HETATM    7  C10 UNL     1      25.524   6.725   3.826  1.00  0.00    -0.032 A 
HETATM    8  C11 UNL     1      24.947   8.113   3.643  1.00  0.00     0.016 C 
HETATM    9  C12 UNL     1      26.050   6.438   5.186  1.00  0.00     0.021 A 
HETATM   10  C13 UNL     1      24.835   5.739   4.641  1.00  0.00     0.062 A 
HETATM   11  C14 UNL     1      25.028   4.295   4.289  1.00  0.00     0.196 C 
HETATM   12  O3  UNL     1      24.845   3.572   5.465  1.00  0.00    -0.349 OA
HETATM   13  C15 UNL     1      23.476   3.382   5.540  1.00  0.00     0.198 C 
HETATM   14  C16 UNL     1      23.108   3.154   4.094  1.00  0.00     0.198 C 
HETATM   15  O4  UNL     1      24.065   3.834   3.394  1.00  0.00    -0.349 OA
HETATM   16  C17 UNL     1      26.904   1.608   4.819  1.00  0.00     0.049 C 
ENDROOT
BRANCH   5  17
HETATM   17  O2  UNL     1      27.266   4.321   1.663  1.00  0.00    -0.391 OA
ATOM     18  H2  UNL     1      28.198   4.393   1.490  1.00  0.00     0.210 HD
ENDBRANCH   5  17
BRANCH   1  19
HETATM   19  C3  UNL     1      29.058   0.303   4.811  1.00  0.00     0.223 C 
HETATM   20  N1  UNL     1      28.862  -0.470   3.643  1.00  0.00    -0.360 N 
HETATM   21  C1  UNL     1      28.034   0.040   2.592  1.00  0.00     0.152 C 
HETATM   22  C2  UNL     1      29.484  -1.780   3.479  1.00  0.00     0.152 C 
HETATM   23  O1  UNL     1      29.796  -0.180   5.712  1.00  0.00    -0.273 OA
ENDBRANCH   1  19
TORSDOF 2
ENDMDL
MODEL 3
REMARK VINA RESULT: -3.308843955      2.601      6.059
REMARK  2 active torsions:
REMARK  status: ('A' for Active; 'I' for Inactive)
REMARK       I    between atoms: N1_2  and  C3_4 
REMARK    1  A    between atoms: C3_4  and  C4_6 
REMARK    2  A    between atoms: C8_10  and  O2_11 
ROOT
HETATM    1  C4  UNL     1      28.766   0.507   4.925  1.00  0.00     0.086 C 
HETATM    2  C5  UNL     1      28.964   1.803   4.176  1.00  0.00     0.049 C 
HETATM    3  C6  UNL     1      27.473   1.799   3.927  1.00  0.00    -0.068 C 
HETATM    4  C7  UNL     1      26.599   2.756   3.745  1.00  0.00     0.013 C 
HETATM    5  C8  UNL     1      27.096   4.170   3.773  1.00  0.00     0.153 C 
HETATM    6  C9  UNL     1      26.039   5.189   3.539  1.00  0.00     0.046 C 
HETATM    7  C10 UNL     1      24.753   4.901   4.269  1.00  0.00    -0.032 A 
HETATM    8  C11 UNL     1      23.787   6.067   4.298  1.00  0.00     0.016 C 
HETATM    9  C12 UNL     1      24.756   4.059   5.494  1.00  0.00     0.021 A 
HETATM   10  C13 UNL     1      24.264   3.537   4.172  1.00  0.00     0.062 A 
HETATM   11  C14 UNL     1      25.151   2.530   3.506  1.00  0.00     0.196 C 
HETATM   12  O3  UNL     1      24.825   1.291   4.052  1.00  0.00    -0.349 OA
HETATM   13  C15 UNL     1      23.750   0.857   3.296  1.00  0.00     0.198 C 
HETATM   14  C16 UNL     1      24.119   1.337   1.913  1.00  0.00     0.198 C 
HETATM   15  O4  UNL     1      24.908   2.430   2.138  1.00  0.00    -0.349 OA
HETATM   16  C17 UNL     1      27.574   0.314   3.999  1.00  0.00     0.049 C 
ENDROOT
BRANCH   5  17
HETATM   17  O2  UNL     1      28.030   4.270   2.734  1.00  0.00    -0.391 OA
ATOM     18  H2  UNL     1      28.134   3.390   2.392  1.00  0.00     0.210 HD
ENDBRANCH   5  17
BRANCH   1  19
HETATM   19  C3  UNL     1      29.877  -0.415   4.713  1.00  0.00     0.223 C 
HETATM   20  N1  UNL     1      29.777  -1.448   3.752  1.00  0.00    -0.360 N 
HETATM   21  C1  UNL     1      28.576  -1.580   2.982  1.00  0.00     0.152 C 
HETATM   22  C2  UNL     1      30.870  -2.386   3.521  1.00  0.00     0.152 C 
HETATM   23  O1  UNL     1      30.951  -0.330   5.368  1.00  0.00    -0.273 OA
ENDBRANCH   1  19
TORSDOF 2
ENDMDL
MODEL 4
REMARK VINA RESULT: -2.060509107      1.651      2.099
REMARK  2 active torsions:
REMARK  status: ('A' for Active; 'I' for Inactive)
REMARK       I    between atoms: N1_2  and  C3_4 
REMARK    1  A    between atoms: C3_4  and  C4_6 
REMARK    2  A    between atoms: C8_10  and  O2_11 
ROOT
HETATM    1  C4  UNL     1      26.003   3.510   3.660  1.00  0.00     0.086 C 
HETATM    2  C5  UNL     1      26.985   3.196   4.763  1.00  0.00     0.049 C 
HETATM    3  C6  UNL     1      26.934   1.760   4.296  1.00  0.00    -0.068 C 
HETATM    4  C7  UNL     1      27.801   0.780   4.338  1.00  0.00     0.013 C 
HETATM    5  C8  UNL     1      29.138   1.056   4.958  1.00  0.00     0.153 C 
HETATM    6  C9  UNL     1      30.051  -0.116   4.978  1.00  0.00     0.046 C 
HETATM    7  C10 UNL     1      30.042  -0.909   3.697  1.00  0.00    -0.032 A 
HETATM    8  C11 UNL     1      31.177  -1.905   3.581  1.00  0.00     0.016 C 
HETATM    9  C12 UNL     1      29.638  -0.267   2.419  1.00  0.00     0.021 A 
HETATM   10  C13 UNL     1      28.731  -1.215   3.153  1.00  0.00     0.062 A 
HETATM   11  C14 UNL     1      27.543  -0.586   3.817  1.00  0.00     0.196 C 
HETATM   12  O3  UNL     1      26.553  -0.483   2.842  1.00  0.00    -0.349 OA
HETATM   13  C15 UNL     1      25.924  -1.715   2.864  1.00  0.00     0.198 C 
HETATM   14  C16 UNL     1      25.925  -2.048   4.336  1.00  0.00     0.198 C 
HETATM   15  O4  UNL     1      27.015  -1.385   4.827  1.00  0.00    -0.349 OA
HETATM   16  C17 UNL     1      25.549   2.068   3.842  1.00  0.00     0.049 C 
ENDROOT
BRANCH   5  17
HETATM   17  O2  UNL     1      28.878   1.424   6.284  1.00  0.00    -0.391 OA
ATOM     18  H2  UNL     1      29.505   0.948   6.815  1.00  0.00     0.210 HD
ENDBRANCH   5  17
BRANCH   1  19
HETATM   19  C3  UNL     1      25.037   4.524   4.067  1.00  0.00     0.223 C 
HETATM   20  N1  UNL     1      25.392   5.893   4.062  1.00  0.00    -0.360 N 
HETATM   21  C1  UNL     1      26.708   6.278   3.649  1.00  0.00     0.152 C 
HETATM   22  C2  UNL     1      24.448   6.930   4.467  1.00  0.00     0.152 C 
HETATM   23  O1  UNL     1      23.868   4.227   4.434  1.00  0.00    -0.273 OA
ENDBRANCH   1  19
TORSDOF 2
ENDMDL
MODEL 5
REMARK VINA RESULT: -1.558776372      1.563      3.057
REMARK  2 active torsions:
REMARK  status: ('A' for Active; 'I' for Inactive)
REMARK       I    between atoms: N1_2  and  C3_4 
REMARK    1  A    between atoms: C3_4  and  C4_6 
REMARK    2  A    between atoms: C8_10  and  O2_11 
ROOT
HETATM    1  C4  UNL     1      26.499   4.800   4.462  1.00  0.00     0.086 C 
HETATM    2  C5  UNL     1      25.959   4.002   3.299  1.00  0.00     0.049 C 
HETATM    3  C6  UNL     1      26.956   2.929   3.672  1.00  0.00    -0.068 C 
HETATM    4  C7  UNL     1      26.957   1.627   3.528  1.00  0.00     0.013 C 
HETATM    5  C8  UNL     1      25.766   0.997   2.871  1.00  0.00     0.153 C 
HETATM    6  C9  UNL     1      25.861  -0.481   2.733  1.00  0.00     0.046 C 
HETATM    7  C10 UNL     1      26.408  -1.165   3.959  1.00  0.00    -0.032 A 
HETATM    8  C11 UNL     1      26.221  -2.668   3.960  1.00  0.00     0.016 C 
HETATM    9  C12 UNL     1      26.298  -0.518   5.293  1.00  0.00     0.021 A 
HETATM   10  C13 UNL     1      27.598  -0.567   4.538  1.00  0.00     0.062 A 
HETATM   11  C14 UNL     1      28.062   0.739   3.969  1.00  0.00     0.196 C 
HETATM   12  O3  UNL     1      28.745   1.397   4.990  1.00  0.00    -0.349 OA
HETATM   13  C15 UNL     1      30.033   0.896   4.915  1.00  0.00     0.198 C 
HETATM   14  C16 UNL     1      30.236   0.762   3.426  1.00  0.00     0.198 C 
HETATM   15  O4  UNL     1      28.976   0.573   2.932  1.00  0.00    -0.349 OA
HETATM   16  C17 UNL     1      27.792   4.040   4.205  1.00  0.00     0.049 C 
ENDROOT
BRANCH   5  17
HETATM   17  O2  UNL     1      25.702   1.547   1.584  1.00  0.00    -0.391 OA
ATOM     18  H2  UNL     1      24.793   1.478   1.316  1.00  0.00     0.210 HD
ENDBRANCH   5  17
BRANCH   1  19
HETATM   19  C3  UNL     1      26.543   6.227   4.164  1.00  0.00     0.223 C 
HETATM   20  N1  UNL     1      25.346   6.968   4.028  1.00  0.00    -0.360 N 
HETATM   21  C1  UNL     1      24.087   6.307   4.190  1.00  0.00     0.152 C 
HETATM   22  C2  UNL     1      25.360   8.396   3.727  1.00  0.00     0.152 C 
HETATM   23  O1  UNL     1      27.632   6.847   4.017  1.00  0.00    -0.273 OA
ENDBRANCH   1  19
TORSDOF 2
ENDMDL
