MODEL 1
REMARK VINA RESULT: 1.169103273      0.000      0.000
REMARK  1 active torsions:
REMARK  status: ('A' for Active; 'I' for Inactive)
REMARK    1  A    between atoms: C16_19  and  O1_21 
ROOT
HETATM    1  C1  UNL     1      25.509   5.195   3.760  1.00  0.00     0.315 C 
HETATM    2  N1  UNL     1      26.049   3.893   3.968  1.00  0.00     0.130 N 
HETATM    3  C2  UNL     1      27.118   3.722   2.967  1.00  0.00     0.396 C 
HETATM    4  N2  UNL     1      27.252   2.336   2.745  1.00  0.00    -0.381 N 
HETATM    5  C3  UNL     1      26.289   1.904   1.871  1.00  0.00     0.123 C 
HETATM    6  C4  UNL     1      24.931   2.304   2.480  1.00  0.00     0.084 C 
HETATM    7  C5  UNL     1      25.083   2.812   3.897  1.00  0.00     0.233 C 
HETATM    8  C6  UNL     1      23.697   3.399   4.224  1.00  0.00     0.066 C 
HETATM    9  C7  UNL     1      23.587   3.343   5.705  1.00  0.00     0.024 C 
HETATM   10  C8  UNL     1      24.361   2.086   6.006  1.00  0.00     0.119 C 
HETATM   11  N3  UNL     1      25.256   1.855   4.888  1.00  0.00    -0.378 N 
HETATM   12  C9  UNL     1      25.449   0.493   4.645  1.00  0.00     0.128 C 
HETATM   13  C10 UNL     1      26.859  -0.031   4.993  1.00  0.00    -0.025 C 
HETATM   14  C11 UNL     1      26.559  -1.298   5.846  1.00  0.00     0.017 C 
HETATM   15  C12 UNL     1      27.529   0.895   5.917  1.00  0.00     0.011 C 
HETATM   16  C13 UNL     1      28.952   1.290   5.578  1.00  0.00     0.003 C 
HETATM   17  C14 UNL     1      28.998   2.162   4.403  1.00  0.00     0.028 C 
HETATM   18  C15 UNL     1      28.432   1.712   3.096  1.00  0.00     0.114 C 
HETATM   19  C16 UNL     1      28.510   0.231   3.016  1.00  0.00     0.075 C 
HETATM   20  C17 UNL     1      28.495  -0.304   1.576  1.00  0.00     0.048 C 
HETATM   21  C18 UNL     1      27.587  -0.560   3.832  1.00  0.00     0.050 C 
ENDROOT
BRANCH  19  22
HETATM   22  O1  UNL     1      29.872  -0.035   3.367  1.00  0.00    -0.388 OA
ATOM     23  H1  UNL     1      30.286  -0.165   2.521  1.00  0.00     0.210 HD
ENDBRANCH  19  22
TORSDOF 1
ENDMDL
MODEL 2
REMARK VINA RESULT: 1.271326166      1.487      3.552
REMARK  1 active torsions:
REMARK  status: ('A' for Active; 'I' for Inactive)
REMARK    1  A    between atoms: C16_19  and  O1_21 
ROOT
HETATM    1  C1  UNL     1      22.599   4.467   3.477  1.00  0.00     0.315 C 
HETATM    2  N1  UNL     1      23.828   3.755   3.586  1.00  0.00     0.130 N 
HETATM    3  C2  UNL     1      23.472   2.344   3.822  1.00  0.00     0.396 C 
HETATM    4  N2  UNL     1      24.559   1.755   4.499  1.00  0.00    -0.381 N 
HETATM    5  C3  UNL     1      24.500   2.051   5.835  1.00  0.00     0.123 C 
HETATM    6  C4  UNL     1      24.462   3.588   5.944  1.00  0.00     0.084 C 
HETATM    7  C5  UNL     1      24.732   4.248   4.609  1.00  0.00     0.233 C 
HETATM    8  C6  UNL     1      24.392   5.729   4.861  1.00  0.00     0.066 C 
HETATM    9  C7  UNL     1      25.183   6.489   3.857  1.00  0.00     0.024 C 
HETATM   10  C8  UNL     1      26.419   5.633   3.754  1.00  0.00     0.119 C 
HETATM   11  N3  UNL     1      26.056   4.300   4.195  1.00  0.00    -0.378 N 
HETATM   12  C9  UNL     1      27.112   3.657   4.844  1.00  0.00     0.128 C 
HETATM   13  C10 UNL     1      27.735   2.484   4.059  1.00  0.00    -0.025 C 
HETATM   14  C11 UNL     1      29.260   2.788   4.127  1.00  0.00     0.017 C 
HETATM   15  C12 UNL     1      27.394   2.592   2.633  1.00  0.00     0.011 C 
HETATM   16  C13 UNL     1      26.878   1.338   1.956  1.00  0.00     0.003 C 
HETATM   17  C14 UNL     1      25.534   0.993   2.425  1.00  0.00     0.028 C 
HETATM   18  C15 UNL     1      25.271   0.750   3.875  1.00  0.00     0.114 C 
HETATM   19  C16 UNL     1      26.513   0.248   4.517  1.00  0.00     0.075 C 
HETATM   20  C17 UNL     1      26.255  -0.546   5.807  1.00  0.00     0.048 C 
HETATM   21  C18 UNL     1      27.609   1.190   4.745  1.00  0.00     0.050 C 
ENDROOT
BRANCH  19  22
HETATM   22  O1  UNL     1      26.914  -0.815   3.646  1.00  0.00    -0.388 OA
ATOM     23  H1  UNL     1      27.862  -0.792   3.708  1.00  0.00     0.210 HD
ENDBRANCH  19  22
TORSDOF 1
ENDMDL
MODEL 3
REMARK VINA RESULT: 1.294684398      1.679      2.930
REMARK  1 active torsions:
REMARK  status: ('A' for Active; 'I' for Inactive)
REMARK    1  A    between atoms: C16_19  and  O1_21 
ROOT
HETATM    1  C1  UNL     1      27.520   6.555   5.008  1.00  0.00     0.315 C 
HETATM    2  N1  UNL     1      26.952   5.284   4.704  1.00  0.00     0.130 N 
HETATM    3  C2  UNL     1      28.083   4.368   4.474  1.00  0.00     0.396 C 
HETATM    4  N2  UNL     1      27.611   3.339   3.633  1.00  0.00    -0.381 N 
HETATM    5  C3  UNL     1      27.614   3.759   2.328  1.00  0.00     0.123 C 
HETATM    6  C4  UNL     1      26.761   5.041   2.277  1.00  0.00     0.084 C 
HETATM    7  C5  UNL     1      26.032   5.278   3.582  1.00  0.00     0.233 C 
HETATM    8  C6  UNL     1      25.469   6.704   3.429  1.00  0.00     0.066 C 
HETATM    9  C7  UNL     1      24.293   6.761   4.336  1.00  0.00     0.024 C 
HETATM   10  C8  UNL     1      23.782   5.346   4.237  1.00  0.00     0.119 C 
HETATM   11  N3  UNL     1      24.893   4.518   3.808  1.00  0.00    -0.378 N 
HETATM   12  C9  UNL     1      24.475   3.461   2.996  1.00  0.00     0.128 C 
HETATM   13  C10 UNL     1      24.580   2.066   3.647  1.00  0.00    -0.025 C 
HETATM   14  C11 UNL     1      23.178   1.448   3.375  1.00  0.00     0.017 C 
HETATM   15  C12 UNL     1      24.657   2.194   5.109  1.00  0.00     0.011 C 
HETATM   16  C13 UNL     1      25.739   1.398   5.810  1.00  0.00     0.003 C 
HETATM   17  C14 UNL     1      27.070   1.938   5.523  1.00  0.00     0.028 C 
HETATM   18  C15 UNL     1      27.562   2.047   4.117  1.00  0.00     0.114 C 
HETATM   19  C16 UNL     1      26.912   0.998   3.290  1.00  0.00     0.075 C 
HETATM   20  C17 UNL     1      27.704   0.640   2.024  1.00  0.00     0.048 C 
HETATM   21  C18 UNL     1      25.499   1.161   2.943  1.00  0.00     0.050 C 
ENDROOT
BRANCH  19  22
HETATM   22  O1  UNL     1      27.123  -0.190   4.062  1.00  0.00    -0.388 OA
ATOM     23  H1  UNL     1      27.907   0.018   4.557  1.00  0.00     0.210 HD
ENDBRANCH  19  22
TORSDOF 1
ENDMDL
MODEL 4
REMARK VINA RESULT: 2.390492481      2.043      4.859
REMARK  1 active torsions:
REMARK  status: ('A' for Active; 'I' for Inactive)
REMARK    1  A    between atoms: C16_19  and  O1_21 
ROOT
HETATM    1  C1  UNL     1      30.450   1.347   4.174  1.00  0.00     0.315 C 
HETATM    2  N1  UNL     1      29.062   1.554   3.925  1.00  0.00     0.130 N 
HETATM    3  C2  UNL     1      28.646   2.671   4.793  1.00  0.00     0.396 C 
HETATM    4  N2  UNL     1      27.263   2.519   5.021  1.00  0.00    -0.381 N 
HETATM    5  C3  UNL     1      27.047   1.597   6.011  1.00  0.00     0.123 C 
HETATM    6  C4  UNL     1      27.747   0.299   5.563  1.00  0.00     0.084 C 
HETATM    7  C5  UNL     1      28.223   0.387   4.129  1.00  0.00     0.233 C 
HETATM    8  C6  UNL     1      29.108  -0.862   3.963  1.00  0.00     0.066 C 
HETATM    9  C7  UNL     1      29.094  -1.161   2.507  1.00  0.00     0.024 C 
HETATM   10  C8  UNL     1      27.699  -0.728   2.135  1.00  0.00     0.119 C 
HETATM   11  N3  UNL     1      27.262   0.221   3.142  1.00  0.00    -0.378 N 
HETATM   12  C9  UNL     1      25.889   0.135   3.382  1.00  0.00     0.128 C 
HETATM   13  C10 UNL     1      25.067   1.339   2.876  1.00  0.00    -0.025 C 
HETATM   14  C11 UNL     1      23.909   0.664   2.087  1.00  0.00     0.017 C 
HETATM   15  C12 UNL     1      25.830   2.082   1.862  1.00  0.00     0.011 C 
HETATM   16  C13 UNL     1      25.894   3.587   2.021  1.00  0.00     0.003 C 
HETATM   17  C14 UNL     1      26.721   3.969   3.168  1.00  0.00     0.028 C 
HETATM   18  C15 UNL     1      26.395   3.479   4.540  1.00  0.00     0.114 C 
HETATM   19  C16 UNL     1      24.933   3.234   4.635  1.00  0.00     0.075 C 
HETATM   20  C17 UNL     1      24.400   3.275   6.075  1.00  0.00     0.048 C 
HETATM   21  C18 UNL     1      24.377   2.066   3.950  1.00  0.00     0.050 C 
ENDROOT
BRANCH  19  22
HETATM   22  O1  UNL     1      24.374   4.450   4.127  1.00  0.00    -0.388 OA
ATOM     23  H1  UNL     1      24.521   4.375   3.191  1.00  0.00     0.210 HD
ENDBRANCH  19  22
TORSDOF 1
ENDMDL
MODEL 5
REMARK VINA RESULT: 2.514924223      1.482      2.858
REMARK  1 active torsions:
REMARK  status: ('A' for Active; 'I' for Inactive)
REMARK    1  A    between atoms: C16_19  and  O1_21 
ROOT
HETATM    1  C1  UNL     1      25.964   4.088   1.854  1.00  0.00     0.315 C 
HETATM    2  N1  UNL     1      26.639   3.041   2.547  1.00  0.00     0.130 N 
HETATM    3  C2  UNL     1      26.073   1.777   2.042  1.00  0.00     0.396 C 
HETATM    4  N2  UNL     1      26.252   0.815   3.056  1.00  0.00    -0.381 N 
HETATM    5  C3  UNL     1      25.270   0.939   4.003  1.00  0.00     0.123 C 
HETATM    6  C4  UNL     1      25.330   2.393   4.511  1.00  0.00     0.084 C 
HETATM    7  C5  UNL     1      26.557   3.114   3.994  1.00  0.00     0.233 C 
HETATM    8  C6  UNL     1      26.302   4.584   4.377  1.00  0.00     0.066 C 
HETATM    9  C7  UNL     1      27.650   5.205   4.465  1.00  0.00     0.024 C 
HETATM   10  C8  UNL     1      28.469   4.048   4.976  1.00  0.00     0.119 C 
HETATM   11  N3  UNL     1      27.759   2.832   4.627  1.00  0.00    -0.378 N 
HETATM   12  C9  UNL     1      27.931   1.832   5.587  1.00  0.00     0.128 C 
HETATM   13  C10 UNL     1      28.798   0.640   5.130  1.00  0.00    -0.025 C 
HETATM   14  C11 UNL     1      29.811   0.477   6.300  1.00  0.00     0.017 C 
HETATM   15  C12 UNL     1      29.619   1.026   3.973  1.00  0.00     0.011 C 
HETATM   16  C13 UNL     1      29.629   0.075   2.793  1.00  0.00     0.003 C 
HETATM   17  C14 UNL     1      28.341   0.078   2.095  1.00  0.00     0.028 C 
HETATM   18  C15 UNL     1      27.080  -0.264   2.818  1.00  0.00     0.114 C 
HETATM   19  C16 UNL     1      27.397  -1.184   3.941  1.00  0.00     0.075 C 
HETATM   20  C17 UNL     1      26.198  -2.029   4.395  1.00  0.00     0.048 C 
HETATM   21  C18 UNL     1      28.074  -0.638   5.119  1.00  0.00     0.050 C 
ENDROOT
BRANCH  19  22
HETATM   22  O1  UNL     1      28.190  -2.195   3.309  1.00  0.00    -0.388 OA
ATOM     23  H1  UNL     1      29.078  -1.929   3.520  1.00  0.00     0.210 HD
ENDBRANCH  19  22
TORSDOF 1
ENDMDL
