MODEL 1
REMARK VINA RESULT: -3.929410895      0.000      0.000
REMARK  1 active torsions:
REMARK  status: ('A' for Active; 'I' for Inactive)
REMARK    1  A    between atoms: C11_13  and  C12_14 
ROOT
HETATM    1  C1  UNL     1      26.635   6.371   3.689  1.00  0.00     0.154 C 
HETATM    2  N1  UNL     1      26.257   4.967   3.920  1.00  0.00    -0.375 N 
HETATM    3  C2  UNL     1      24.888   4.725   3.936  1.00  0.00     0.100 C 
HETATM    4  C3  UNL     1      24.310   4.044   5.146  1.00  0.00     0.290 A 
HETATM    5  C4  UNL     1      23.098   3.169   4.828  1.00  0.00     0.315 A 
HETATM    6  N2  UNL     1      24.315   2.541   5.172  1.00  0.00     0.107 N 
HETATM    7  C5  UNL     1      25.392   2.182   4.448  1.00  0.00     0.231 C 
HETATM    8  C6  UNL     1      26.528   2.830   5.155  1.00  0.00     0.053 C 
HETATM    9  C7  UNL     1      27.469   2.789   3.981  1.00  0.00     0.015 C 
HETATM   10  C8  UNL     1      26.905   1.804   2.946  1.00  0.00     0.026 C 
HETATM   11  C9  UNL     1      26.087   1.007   4.006  1.00  0.00     0.043 C 
HETATM   12  C10 UNL     1      27.170   0.343   4.780  1.00  0.00     0.094 C 
HETATM   13  C11 UNL     1      27.993  -0.641   3.985  1.00  0.00     0.019 C 
HETATM   14  C13 UNL     1      29.321  -0.151   3.510  1.00  0.00     0.009 C 
HETATM   15  C14 UNL     1      29.499   1.345   3.420  1.00  0.00     0.027 C 
HETATM   16  C15 UNL     1      28.711   2.171   4.409  1.00  0.00     0.097 C 
HETATM   17  N3  UNL     1      28.239   1.107   5.298  1.00  0.00    -0.388 N 
HETATM   18  C16 UNL     1      28.959   0.736   6.375  1.00  0.00     0.116 C 
HETATM   19  C17 UNL     1      27.278   4.143   3.436  1.00  0.00     0.074 C 
ENDROOT
BRANCH  13  20
HETATM   20  C12 UNL     1      27.223  -1.474   3.019  1.00  0.00     0.092 C 
HETATM   21  S1  UNL     1      26.145  -2.700   3.785  1.00  0.00    -0.097 SA
ENDBRANCH  13  20
TORSDOF 1
ENDMDL
MODEL 2
REMARK VINA RESULT: -3.777701816      1.704      3.303
REMARK  1 active torsions:
REMARK  status: ('A' for Active; 'I' for Inactive)
REMARK    1  A    between atoms: C11_13  and  C12_14 
ROOT
HETATM    1  C1  UNL     1      23.019   4.320   4.450  1.00  0.00     0.154 C 
HETATM    2  N1  UNL     1      24.474   4.136   4.315  1.00  0.00    -0.375 N 
HETATM    3  C2  UNL     1      25.224   5.301   4.440  1.00  0.00     0.100 C 
HETATM    4  C3  UNL     1      26.165   5.653   3.322  1.00  0.00     0.290 A 
HETATM    5  C4  UNL     1      27.412   6.403   3.791  1.00  0.00     0.315 A 
HETATM    6  N2  UNL     1      27.547   5.065   3.359  1.00  0.00     0.107 N 
HETATM    7  C5  UNL     1      27.409   3.884   3.991  1.00  0.00     0.231 C 
HETATM    8  C6  UNL     1      26.430   3.145   3.151  1.00  0.00     0.053 C 
HETATM    9  C7  UNL     1      26.016   2.180   4.231  1.00  0.00     0.015 C 
HETATM   10  C8  UNL     1      27.061   2.240   5.356  1.00  0.00     0.026 C 
HETATM   11  C9  UNL     1      28.189   2.757   4.413  1.00  0.00     0.043 C 
HETATM   12  C10 UNL     1      28.443   1.559   3.568  1.00  0.00     0.094 C 
HETATM   13  C11 UNL     1      28.972   0.363   4.322  1.00  0.00     0.019 C 
HETATM   14  C13 UNL     1      27.974  -0.700   4.646  1.00  0.00     0.009 C 
HETATM   15  C14 UNL     1      26.522  -0.287   4.655  1.00  0.00     0.027 C 
HETATM   16  C15 UNL     1      26.141   0.830   3.712  1.00  0.00     0.097 C 
HETATM   17  N3  UNL     1      27.369   0.912   2.918  1.00  0.00    -0.388 N 
HETATM   18  C16 UNL     1      27.516   0.185   1.793  1.00  0.00     0.116 C 
HETATM   19  C17 UNL     1      24.803   2.843   4.734  1.00  0.00     0.074 C 
ENDROOT
BRANCH  13  20
HETATM   20  C12 UNL     1      29.960   0.676   5.391  1.00  0.00     0.092 C 
HETATM   21  S1  UNL     1      29.392   0.304   7.063  1.00  0.00    -0.097 SA
ENDBRANCH  13  20
TORSDOF 1
ENDMDL
MODEL 3
REMARK VINA RESULT: -3.557672182      1.020      1.049
REMARK  1 active torsions:
REMARK  status: ('A' for Active; 'I' for Inactive)
REMARK    1  A    between atoms: C11_13  and  C12_14 
ROOT
HETATM    1  C1  UNL     1      25.628   6.858   3.755  1.00  0.00     0.154 C 
HETATM    2  N1  UNL     1      25.493   5.409   3.982  1.00  0.00    -0.375 N 
HETATM    3  C2  UNL     1      24.192   4.925   3.907  1.00  0.00     0.100 C 
HETATM    4  C3  UNL     1      23.661   4.153   5.084  1.00  0.00     0.290 A 
HETATM    5  C4  UNL     1      22.651   3.074   4.697  1.00  0.00     0.315 A 
HETATM    6  N2  UNL     1      23.934   2.676   5.134  1.00  0.00     0.107 N 
HETATM    7  C5  UNL     1      25.107   2.515   4.491  1.00  0.00     0.231 C 
HETATM    8  C6  UNL     1      26.055   3.359   5.266  1.00  0.00     0.053 C 
HETATM    9  C7  UNL     1      27.069   3.485   4.160  1.00  0.00     0.015 C 
HETATM   10  C8  UNL     1      26.765   2.412   3.103  1.00  0.00     0.026 C 
HETATM   11  C9  UNL     1      26.030   1.483   4.117  1.00  0.00     0.043 C 
HETATM   12  C10 UNL     1      27.158   1.027   4.974  1.00  0.00     0.094 C 
HETATM   13  C11 UNL     1      28.197   0.205   4.253  1.00  0.00     0.019 C 
HETATM   14  C13 UNL     1      29.447   0.925   3.863  1.00  0.00     0.009 C 
HETATM   15  C14 UNL     1      29.359   2.429   3.763  1.00  0.00     0.027 C 
HETATM   16  C15 UNL     1      28.367   3.102   4.682  1.00  0.00     0.097 C 
HETATM   17  N3  UNL     1      28.033   1.973   5.553  1.00  0.00    -0.388 N 
HETATM   18  C16 UNL     1      28.729   1.741   6.683  1.00  0.00     0.116 C 
HETATM   19  C17 UNL     1      26.677   4.780   3.582  1.00  0.00     0.074 C 
ENDROOT
BRANCH  13  20
HETATM   20  C12 UNL     1      27.660  -0.755   3.249  1.00  0.00     0.092 C 
HETATM   21  S1  UNL     1      28.855  -1.978   2.674  1.00  0.00    -0.097 SA
ENDBRANCH  13  20
TORSDOF 1
ENDMDL
MODEL 4
REMARK VINA RESULT: -3.538496382      2.620      5.582
REMARK  1 active torsions:
REMARK  status: ('A' for Active; 'I' for Inactive)
REMARK    1  A    between atoms: C11_13  and  C12_14 
ROOT
HETATM    1  C1  UNL     1      27.155  -1.433   2.781  1.00  0.00     0.154 C 
HETATM    2  N1  UNL     1      27.213  -0.052   3.287  1.00  0.00    -0.375 N 
HETATM    3  C2  UNL     1      28.496   0.471   3.409  1.00  0.00     0.100 C 
HETATM    4  C3  UNL     1      28.908   1.017   4.748  1.00  0.00     0.290 A 
HETATM    5  C4  UNL     1      29.898   2.176   4.655  1.00  0.00     0.315 A 
HETATM    6  N2  UNL     1      28.572   2.449   5.055  1.00  0.00     0.107 N 
HETATM    7  C5  UNL     1      27.443   2.700   4.363  1.00  0.00     0.231 C 
HETATM    8  C6  UNL     1      26.477   1.698   4.886  1.00  0.00     0.053 C 
HETATM    9  C7  UNL     1      25.552   1.760   3.699  1.00  0.00     0.015 C 
HETATM   10  C8  UNL     1      25.888   3.024   2.892  1.00  0.00     0.026 C 
HETATM   11  C9  UNL     1      26.508   3.760   4.118  1.00  0.00     0.043 C 
HETATM   12  C10 UNL     1      25.303   4.014   4.954  1.00  0.00     0.094 C 
HETATM   13  C11 UNL     1      24.287   4.931   4.321  1.00  0.00     0.019 C 
HETATM   14  C13 UNL     1      23.100   4.267   3.704  1.00  0.00     0.009 C 
HETATM   15  C14 UNL     1      23.255   2.813   3.328  1.00  0.00     0.027 C 
HETATM   16  C15 UNL     1      24.204   2.002   4.179  1.00  0.00     0.097 C 
HETATM   17  N3  UNL     1      24.428   2.952   5.272  1.00  0.00    -0.388 N 
HETATM   18  C16 UNL     1      23.642   2.945   6.367  1.00  0.00     0.116 C 
HETATM   19  C17 UNL     1      26.038   0.610   2.920  1.00  0.00     0.074 C 
ENDROOT
BRANCH  13  20
HETATM   20  C12 UNL     1      24.856   6.080   3.562  1.00  0.00     0.092 C 
HETATM   21  S1  UNL     1      25.042   7.592   4.528  1.00  0.00    -0.097 SA
ENDBRANCH  13  20
TORSDOF 1
ENDMDL
MODEL 5
REMARK VINA RESULT: -0.703335339      1.005      1.005
REMARK  1 active torsions:
REMARK  status: ('A' for Active; 'I' for Inactive)
REMARK    1  A    between atoms: C11_13  and  C12_14 
ROOT
HETATM    1  C1  UNL     1      26.658   5.800   3.080  1.00  0.00     0.154 C 
HETATM    2  N1  UNL     1      26.392   4.396   3.439  1.00  0.00    -0.375 N 
HETATM    3  C2  UNL     1      25.046   4.065   3.546  1.00  0.00     0.100 C 
HETATM    4  C3  UNL     1      24.575   3.447   4.833  1.00  0.00     0.290 A 
HETATM    5  C4  UNL     1      23.415   2.469   4.649  1.00  0.00     0.315 A 
HETATM    6  N2  UNL     1      24.689   1.955   4.976  1.00  0.00     0.107 N 
HETATM    7  C5  UNL     1      25.754   1.612   4.227  1.00  0.00     0.231 C 
HETATM    8  C6  UNL     1      26.872   2.390   4.822  1.00  0.00     0.053 C 
HETATM    9  C7  UNL     1      27.758   2.318   3.606  1.00  0.00     0.015 C 
HETATM   10  C8  UNL     1      27.218   1.216   2.682  1.00  0.00     0.026 C 
HETATM   11  C9  UNL     1      26.509   0.454   3.842  1.00  0.00     0.043 C 
HETATM   12  C10 UNL     1      27.672  -0.071   4.608  1.00  0.00     0.094 C 
HETATM   13  C11 UNL     1      28.525  -1.058   3.850  1.00  0.00     0.019 C 
HETATM   14  C13 UNL     1      29.791  -0.519   3.270  1.00  0.00     0.009 C 
HETATM   15  C14 UNL     1      29.858   0.973   3.054  1.00  0.00     0.027 C 
HETATM   16  C15 UNL     1      29.059   1.822   4.016  1.00  0.00     0.097 C 
HETATM   17  N3  UNL     1      28.707   0.804   5.008  1.00  0.00    -0.388 N 
HETATM   18  C16 UNL     1      29.500   0.571   6.073  1.00  0.00     0.116 C 
HETATM   19  C17 UNL     1      27.445   3.606   2.968  1.00  0.00     0.074 C 
ENDROOT
BRANCH  13  20
HETATM   20  C12 UNL     1      27.773  -2.017   2.993  1.00  0.00     0.092 C 
HETATM   21  S1  UNL     1      28.149  -1.897   1.233  1.00  0.00    -0.097 SA
ENDBRANCH  13  20
TORSDOF 1
ENDMDL
