MODEL 1
REMARK VINA RESULT: -7.542068450      0.000      0.000
REMARK  6 active torsions:
REMARK  status: ('A' for Active; 'I' for Inactive)
REMARK    1  A    between atoms: S1_2  and  C1_4 
REMARK    2  A    between atoms: S1_2  and  N1_9 
REMARK    3  A    between atoms: N1_9  and  C6_10 
REMARK    4  A    between atoms: N1_9  and  C11_23 
REMARK    5  A    between atoms: C6_10  and  C7_11 
REMARK    6  A    between atoms: C8_12  and  O3_13 
ROOT
HETATM    1  C6  UNL     1     -13.426  23.691 -37.170  1.00  0.00     0.159 C 
ENDROOT
BRANCH   1   2
HETATM    2  N1  UNL     1     -13.619  24.876 -36.411  1.00  0.00    -0.147 NA
BRANCH   2   3
HETATM    3  S1  UNL     1     -12.489  24.846 -35.096  1.00  0.00     0.220 S 
HETATM    4  O1  UNL     1     -11.701  26.128 -35.112  1.00  0.00    -0.211 OA
HETATM    5  O2  UNL     1     -11.492  23.747 -35.304  1.00  0.00    -0.211 OA
BRANCH   3   6
HETATM    6  C1  UNL     1     -13.234  24.588 -33.518  1.00  0.00     0.124 C 
HETATM    7  C2  UNL     1     -13.321  25.760 -32.634  1.00  0.00     0.021 C 
HETATM    8  C3  UNL     1     -12.113  25.793 -31.723  1.00  0.00     0.001 C 
HETATM    9  C4  UNL     1     -11.251  24.622 -32.136  1.00  0.00     0.001 C 
HETATM   10  C5  UNL     1     -12.251  23.689 -32.739  1.00  0.00     0.021 C 
ENDBRANCH   3   6
ENDBRANCH   2   3
BRANCH   2  11
HETATM   11  C11 UNL     1     -14.988  24.946 -35.956  1.00  0.00     0.446 C 
HETATM   12  F1  UNL     1     -15.582  26.184 -36.268  1.00  0.00    -0.196 F 
HETATM   13  F2  UNL     1     -15.821  24.011 -36.514  1.00  0.00    -0.196 F 
ENDBRANCH   2  11
ENDBRANCH   1   2
BRANCH   1  14
HETATM   14  C7  UNL     1     -13.243  23.790 -38.624  1.00  0.00     0.045 A 
HETATM   15  C8  UNL     1     -12.177  24.599 -39.059  1.00  0.00     0.152 A 
HETATM   16  N2  UNL     1     -11.928  24.707 -40.365  1.00  0.00    -0.313 N 
HETATM   17  C9  UNL     1     -12.668  24.065 -41.280  1.00  0.00     0.178 A 
ATOM     18  H2  UNL     1     -11.154  25.294 -40.676  1.00  0.00     0.170 HD
HETATM   19  S2  UNL     1     -12.294  24.256 -42.864  1.00  0.00    -0.040 SA
HETATM   20  N3  UNL     1     -13.671  23.305 -40.862  1.00  0.00    -0.323 N 
HETATM   21  C10 UNL     1     -13.982  23.146 -39.541  1.00  0.00     0.114 A 
ATOM     22  H3  UNL     1     -14.235  22.816 -41.557  1.00  0.00     0.169 HD
HETATM   23  S3  UNL     1     -15.215  22.130 -39.220  1.00  0.00    -0.060 SA
BRANCH  15  24
HETATM   24  O3  UNL     1     -11.385  25.283 -38.117  1.00  0.00    -0.346 OA
ATOM     25  H3  UNL     1     -10.895  26.053 -38.381  1.00  0.00     0.219 HD
ENDBRANCH  15  24
ENDBRANCH   1  14
TORSDOF 6
ENDMDL
MODEL 2
REMARK VINA RESULT: -7.396808832      1.430      1.575
REMARK  6 active torsions:
REMARK  status: ('A' for Active; 'I' for Inactive)
REMARK    1  A    between atoms: S1_2  and  C1_4 
REMARK    2  A    between atoms: S1_2  and  N1_9 
REMARK    3  A    between atoms: N1_9  and  C6_10 
REMARK    4  A    between atoms: N1_9  and  C11_23 
REMARK    5  A    between atoms: C6_10  and  C7_11 
REMARK    6  A    between atoms: C8_12  and  O3_13 
ROOT
HETATM    1  C6  UNL     1     -13.209  23.344 -36.863  1.00  0.00     0.159 C 
ENDROOT
BRANCH   1   2
HETATM    2  N1  UNL     1     -13.469  24.735 -36.745  1.00  0.00    -0.147 NA
BRANCH   2   3
HETATM    3  S1  UNL     1     -12.658  25.302 -35.320  1.00  0.00     0.220 S 
HETATM    4  O1  UNL     1     -12.690  26.806 -35.318  1.00  0.00    -0.211 OA
HETATM    5  O2  UNL     1     -11.210  24.920 -35.372  1.00  0.00    -0.211 OA
BRANCH   3   6
HETATM    6  C1  UNL     1     -13.319  24.658 -33.817  1.00  0.00     0.124 C 
HETATM    7  C2  UNL     1     -13.692  25.642 -32.790  1.00  0.00     0.021 C 
HETATM    8  C3  UNL     1     -12.529  25.844 -31.841  1.00  0.00     0.001 C 
HETATM    9  C4  UNL     1     -11.406  24.986 -32.375  1.00  0.00     0.001 C 
HETATM   10  C5  UNL     1     -12.146  23.929 -33.129  1.00  0.00     0.021 C 
ENDBRANCH   3   6
ENDBRANCH   2   3
BRANCH   2  11
HETATM   11  C11 UNL     1     -14.895  24.961 -36.690  1.00  0.00     0.446 C 
HETATM   12  F1  UNL     1     -15.570  23.906 -36.049  1.00  0.00    -0.196 F 
HETATM   13  F2  UNL     1     -15.266  26.084 -35.996  1.00  0.00    -0.196 F 
ENDBRANCH   2  11
ENDBRANCH   1   2
BRANCH   1  14
HETATM   14  C7  UNL     1     -12.806  22.796 -38.164  1.00  0.00     0.045 A 
HETATM   15  C8  UNL     1     -11.435  22.874 -38.470  1.00  0.00     0.152 A 
HETATM   16  N2  UNL     1     -10.991  22.364 -39.620  1.00  0.00    -0.313 N 
HETATM   17  C9  UNL     1     -11.818  21.776 -40.497  1.00  0.00     0.178 A 
ATOM     18  H2  UNL     1      -9.996  22.423 -39.838  1.00  0.00     0.170 HD
HETATM   19  S2  UNL     1     -11.187  21.177 -41.887  1.00  0.00    -0.040 SA
HETATM   20  N3  UNL     1     -13.108  21.705 -40.200  1.00  0.00    -0.323 N 
HETATM   21  C10 UNL     1     -13.633  22.204 -39.042  1.00  0.00     0.114 A 
ATOM     22  H3  UNL     1     -13.737  21.259 -40.868  1.00  0.00     0.169 HD
HETATM   23  S3  UNL     1     -15.233  21.976 -38.831  1.00  0.00    -0.060 SA
BRANCH  15  24
HETATM   24  O3  UNL     1     -10.548  23.487 -37.566  1.00  0.00    -0.346 OA
ATOM     25  H3  UNL     1     -10.841  24.220 -37.037  1.00  0.00     0.219 HD
ENDBRANCH  15  24
ENDBRANCH   1  14
TORSDOF 6
ENDMDL
MODEL 3
REMARK VINA RESULT: -7.345096584      3.297      6.593
REMARK  6 active torsions:
REMARK  status: ('A' for Active; 'I' for Inactive)
REMARK    1  A    between atoms: S1_2  and  C1_4 
REMARK    2  A    between atoms: S1_2  and  N1_9 
REMARK    3  A    between atoms: N1_9  and  C6_10 
REMARK    4  A    between atoms: N1_9  and  C11_23 
REMARK    5  A    between atoms: C6_10  and  C7_11 
REMARK    6  A    between atoms: C8_12  and  O3_13 
ROOT
HETATM    1  C6  UNL     1     -12.311  24.493 -34.951  1.00  0.00     0.159 C 
ENDROOT
BRANCH   1   2
HETATM    2  N1  UNL     1     -11.775  23.832 -36.087  1.00  0.00    -0.147 NA
BRANCH   2   3
HETATM    3  S1  UNL     1     -13.048  23.679 -37.255  1.00  0.00     0.220 S 
HETATM    4  O1  UNL     1     -12.826  24.697 -38.342  1.00  0.00    -0.211 OA
HETATM    5  O2  UNL     1     -14.362  24.029 -36.626  1.00  0.00    -0.211 OA
BRANCH   3   6
HETATM    6  C1  UNL     1     -13.204  22.060 -37.936  1.00  0.00     0.124 C 
HETATM    7  C2  UNL     1     -12.873  21.911 -39.361  1.00  0.00     0.021 C 
HETATM    8  C3  UNL     1     -14.134  22.054 -40.187  1.00  0.00     0.001 C 
HETATM    9  C4  UNL     1     -15.240  22.361 -39.204  1.00  0.00     0.001 C 
HETATM   10  C5  UNL     1     -14.717  21.758 -37.940  1.00  0.00     0.021 C 
ENDBRANCH   3   6
ENDBRANCH   2   3
BRANCH   2  11
HETATM   11  C11 UNL     1     -11.234  22.551 -35.696  1.00  0.00     0.446 C 
HETATM   12  F1  UNL     1      -9.888  22.409 -36.083  1.00  0.00    -0.196 F 
HETATM   13  F2  UNL     1     -11.232  22.324 -34.343  1.00  0.00    -0.196 F 
ENDBRANCH   2  11
ENDBRANCH   1   2
BRANCH   1  14
HETATM   14  C7  UNL     1     -11.506  25.511 -34.265  1.00  0.00     0.045 A 
HETATM   15  C8  UNL     1     -11.030  26.566 -35.065  1.00  0.00     0.152 A 
HETATM   16  N2  UNL     1     -10.321  27.547 -34.502  1.00  0.00    -0.313 N 
HETATM   17  C9  UNL     1     -10.048  27.555 -33.190  1.00  0.00     0.178 A 
ATOM     18  H2  UNL     1      -9.978  28.309 -35.086  1.00  0.00     0.170 HD
HETATM   19  S2  UNL     1      -9.168  28.798 -32.582  1.00  0.00    -0.040 SA
HETATM   20  N3  UNL     1     -10.500  26.558 -32.443  1.00  0.00    -0.323 N 
HETATM   21  C10 UNL     1     -11.233  25.522 -32.950  1.00  0.00     0.114 A 
ATOM     22  H3  UNL     1     -10.291  26.564 -31.444  1.00  0.00     0.169 HD
HETATM   23  S3  UNL     1     -11.745  24.418 -31.867  1.00  0.00    -0.060 SA
BRANCH  15  24
HETATM   24  O3  UNL     1     -11.305  26.579 -36.445  1.00  0.00    -0.346 OA
ATOM     25  H3  UNL     1     -10.816  26.013 -37.031  1.00  0.00     0.219 HD
ENDBRANCH  15  24
ENDBRANCH   1  14
TORSDOF 6
ENDMDL
MODEL 4
REMARK VINA RESULT: -7.303398887      2.993      3.781
REMARK  6 active torsions:
REMARK  status: ('A' for Active; 'I' for Inactive)
REMARK    1  A    between atoms: S1_2  and  C1_4 
REMARK    2  A    between atoms: S1_2  and  N1_9 
REMARK    3  A    between atoms: N1_9  and  C6_10 
REMARK    4  A    between atoms: N1_9  and  C11_23 
REMARK    5  A    between atoms: C6_10  and  C7_11 
REMARK    6  A    between atoms: C8_12  and  O3_13 
ROOT
HETATM    1  C6  UNL     1     -11.418  24.253 -37.699  1.00  0.00     0.159 C 
ENDROOT
BRANCH   1   2
HETATM    2  N1  UNL     1     -12.674  24.902 -37.566  1.00  0.00    -0.147 NA
BRANCH   2   3
HETATM    3  S1  UNL     1     -13.206  24.685 -35.929  1.00  0.00     0.220 S 
HETATM    4  O1  UNL     1     -12.263  23.735 -35.241  1.00  0.00    -0.211 OA
HETATM    5  O2  UNL     1     -14.547  24.019 -35.912  1.00  0.00    -0.211 OA
BRANCH   3   6
HETATM    6  C1  UNL     1     -13.354  26.189 -35.020  1.00  0.00     0.124 C 
HETATM    7  C2  UNL     1     -12.578  26.283 -33.775  1.00  0.00     0.021 C 
HETATM    8  C3  UNL     1     -13.442  25.846 -32.611  1.00  0.00     0.001 C 
HETATM    9  C4  UNL     1     -14.762  25.419 -33.212  1.00  0.00     0.001 C 
HETATM   10  C5  UNL     1     -14.800  26.206 -34.482  1.00  0.00     0.021 C 
ENDBRANCH   3   6
ENDBRANCH   2   3
BRANCH   2  11
HETATM   11  C11 UNL     1     -13.609  24.355 -38.523  1.00  0.00     0.446 C 
HETATM   12  F1  UNL     1     -13.601  25.073 -39.733  1.00  0.00    -0.196 F 
HETATM   13  F2  UNL     1     -13.356  23.057 -38.886  1.00  0.00    -0.196 F 
ENDBRANCH   2  11
ENDBRANCH   1   2
BRANCH   1  14
HETATM   14  C7  UNL     1     -10.277  25.000 -38.244  1.00  0.00     0.045 A 
HETATM   15  C8  UNL     1      -9.586  25.822 -37.336  1.00  0.00     0.152 A 
HETATM   16  N2  UNL     1      -8.516  26.503 -37.753  1.00  0.00    -0.313 N 
HETATM   17  C9  UNL     1      -8.080  26.426 -39.018  1.00  0.00     0.178 A 
ATOM     18  H2  UNL     1      -8.018  27.098 -37.091  1.00  0.00     0.170 HD
HETATM   19  S2  UNL     1      -6.759  27.298 -39.446  1.00  0.00    -0.040 SA
HETATM   20  N3  UNL     1      -8.738  25.649 -39.868  1.00  0.00    -0.323 N 
HETATM   21  C10 UNL     1      -9.838  24.922 -39.511  1.00  0.00     0.114 A 
ATOM     22  H3  UNL     1      -8.407  25.591 -40.831  1.00  0.00     0.169 HD
HETATM   23  S3  UNL     1     -10.479  23.984 -40.680  1.00  0.00    -0.060 SA
BRANCH  15  24
HETATM   24  O3  UNL     1     -10.024  25.919 -36.003  1.00  0.00    -0.346 OA
ATOM     25  H3  UNL     1      -9.506  26.399 -35.367  1.00  0.00     0.219 HD
ENDBRANCH  15  24
ENDBRANCH   1  14
TORSDOF 6
ENDMDL
MODEL 5
REMARK VINA RESULT: -7.215991047      2.158      2.778
REMARK  6 active torsions:
REMARK  status: ('A' for Active; 'I' for Inactive)
REMARK    1  A    between atoms: S1_2  and  C1_4 
REMARK    2  A    between atoms: S1_2  and  N1_9 
REMARK    3  A    between atoms: N1_9  and  C6_10 
REMARK    4  A    between atoms: N1_9  and  C11_23 
REMARK    5  A    between atoms: C6_10  and  C7_11 
REMARK    6  A    between atoms: C8_12  and  O3_13 
ROOT
HETATM    1  C6  UNL     1     -13.130  23.526 -36.572  1.00  0.00     0.159 C 
ENDROOT
BRANCH   1   2
HETATM    2  N1  UNL     1     -13.660  24.843 -36.519  1.00  0.00    -0.147 NA
BRANCH   2   3
HETATM    3  S1  UNL     1     -13.404  25.447 -34.914  1.00  0.00     0.220 S 
HETATM    4  O1  UNL     1     -14.522  24.956 -34.034  1.00  0.00    -0.211 OA
HETATM    5  O2  UNL     1     -13.505  26.942 -34.910  1.00  0.00    -0.211 OA
BRANCH   3   6
HETATM    6  C1  UNL     1     -11.835  25.023 -34.230  1.00  0.00     0.124 C 
HETATM    7  C2  UNL     1     -11.795  23.831 -33.369  1.00  0.00     0.021 C 
HETATM    8  C3  UNL     1     -11.975  24.249 -31.925  1.00  0.00     0.001 C 
HETATM    9  C4  UNL     1     -12.191  25.744 -31.951  1.00  0.00     0.001 C 
HETATM   10  C5  UNL     1     -11.509  26.142 -33.219  1.00  0.00     0.021 C 
ENDBRANCH   3   6
ENDBRANCH   2   3
BRANCH   2  11
HETATM   11  C11 UNL     1     -15.058  24.820 -36.881  1.00  0.00     0.446 C 
HETATM   12  F1  UNL     1     -15.714  23.685 -36.370  1.00  0.00    -0.196 F 
HETATM   13  F2  UNL     1     -15.784  25.884 -36.409  1.00  0.00    -0.196 F 
ENDBRANCH   2  11
ENDBRANCH   1   2
BRANCH   1  14
HETATM   14  C7  UNL     1     -12.471  23.065 -37.800  1.00  0.00     0.045 A 
HETATM   15  C8  UNL     1     -13.107  22.013 -38.485  1.00  0.00     0.152 A 
HETATM   16  N2  UNL     1     -12.584  21.565 -39.629  1.00  0.00    -0.313 N 
HETATM   17  C9  UNL     1     -11.465  22.092 -40.146  1.00  0.00     0.178 A 
ATOM     18  H2  UNL     1     -13.048  20.803 -40.122  1.00  0.00     0.170 HD
HETATM   19  S2  UNL     1     -10.890  21.481 -41.554  1.00  0.00    -0.040 SA
HETATM   20  N3  UNL     1     -10.872  23.083 -39.494  1.00  0.00    -0.323 N 
HETATM   21  C10 UNL     1     -11.351  23.592 -38.320  1.00  0.00     0.114 A 
ATOM     22  H3  UNL     1     -10.020  23.483 -39.887  1.00  0.00     0.169 HD
HETATM   23  S3  UNL     1     -10.515  24.844 -37.696  1.00  0.00    -0.060 SA
BRANCH  15  24
HETATM   24  O3  UNL     1     -14.283  21.444 -37.962  1.00  0.00    -0.346 OA
ATOM     25  H3  UNL     1     -14.262  20.571 -37.589  1.00  0.00     0.219 HD
ENDBRANCH  15  24
ENDBRANCH   1  14
TORSDOF 6
ENDMDL
