MODEL 1
REMARK VINA RESULT: -7.594963631      0.000      0.000
REMARK  8 active torsions:
REMARK  status: ('A' for Active; 'I' for Inactive)
REMARK    1  A    between atoms: C3_3  and  C4_4 
REMARK    2  A    between atoms: C4_4  and  N1_5 
REMARK    3  A    between atoms: N1_5  and  N2_6 
REMARK    4  A    between atoms: N2_6  and  C5_8 
REMARK    5  A    between atoms: C5_8  and  C6_12 
REMARK    6  A    between atoms: C10_18  and  N4_19 
REMARK    7  A    between atoms: N4_19  and  C11_21 
REMARK    8  A    between atoms: C14_24  and  N5_25 
ROOT
HETATM    1  C1  UNL     1      -9.220  25.127 -39.329  1.00  0.00     0.052 C 
HETATM    2  C2  UNL     1      -9.107  26.110 -38.250  1.00  0.00    -0.014 A 
HETATM    3  C3  UNL     1     -10.022  26.106 -37.230  1.00  0.00     0.003 A 
HETATM    4  C8  UNL     1      -9.941  27.017 -36.202  1.00  0.00     0.017 A 
HETATM    5  C9  UNL     1      -8.914  27.942 -36.221  1.00  0.00     0.032 A 
HETATM    6  C10 UNL     1      -7.988  27.949 -37.249  1.00  0.00     0.062 A 
HETATM    7  C14 UNL     1      -8.065  27.038 -38.280  1.00  0.00     0.136 A 
ENDROOT
BRANCH   3   8
HETATM    8  C4  UNL     1     -11.125  25.109 -37.220  1.00  0.00     0.221 C 
BRANCH   8   9
HETATM    9  N1  UNL     1     -11.890  25.037 -36.341  1.00  0.00    -0.336 NA
BRANCH   9  10
HETATM   10  N2  UNL     1     -12.604  24.840 -35.279  1.00  0.00    -0.221 N 
ATOM     11  H2  UNL     1     -13.610  25.013 -35.294  1.00  0.00     0.203 HD
BRANCH  10  12
HETATM   12  C5  UNL     1     -11.953  24.368 -34.057  1.00  0.00     0.140 C 
HETATM   13  N3  UNL     1     -11.331  23.243 -34.076  1.00  0.00    -0.385 N 
ATOM     14  H32 UNL     1     -11.252  22.636 -34.892  1.00  0.00     0.157 HD
ATOM     15  H31 UNL     1     -10.877  22.914 -33.223  1.00  0.00     0.157 HD
BRANCH  12  16
HETATM   16  C6  UNL     1     -12.067  25.240 -32.885  1.00  0.00     0.169 C 
HETATM   17  C7  UNL     1     -11.240  26.489 -33.027  1.00  0.00     0.059 C 
HETATM   18 CL1  UNL     1     -13.789  25.724 -32.725  1.00  0.00    -0.093 Cl
HETATM   19 CL2  UNL     1     -11.550  24.344 -31.430  1.00  0.00    -0.093 Cl
ENDBRANCH  12  16
ENDBRANCH  10  12
ENDBRANCH   9  10
ENDBRANCH   8   9
ENDBRANCH   3   8
BRANCH   7  20
HETATM   20  N5  UNL     1      -7.167  26.991 -39.344  1.00  0.00    -0.113 N 
HETATM   21  O1  UNL     1      -6.068  26.390 -39.170  1.00  0.00    -0.532 OA
HETATM   22  O2  UNL     1      -7.364  27.543 -40.580  1.00  0.00    -0.532 OA
ENDBRANCH   7  20
BRANCH   6  23
HETATM   23  N4  UNL     1      -6.915  28.898 -37.288  1.00  0.00    -0.383 N 
ATOM     24  H4  UNL     1      -6.189  28.814 -38.000  1.00  0.00     0.160 HD
BRANCH  23  25
HETATM   25  C11 UNL     1      -6.855  29.965 -36.332  1.00  0.00     0.082 A 
HETATM   26  C12 UNL     1      -6.608  31.345 -36.908  1.00  0.00     0.027 A 
HETATM   27  C13 UNL     1      -5.591  30.675 -36.015  1.00  0.00     0.027 A 
ENDBRANCH  23  25
ENDBRANCH   6  23
TORSDOF 8
ENDMDL
MODEL 2
REMARK VINA RESULT: -7.469314748      5.801      7.671
REMARK  8 active torsions:
REMARK  status: ('A' for Active; 'I' for Inactive)
REMARK    1  A    between atoms: C3_3  and  C4_4 
REMARK    2  A    between atoms: C4_4  and  N1_5 
REMARK    3  A    between atoms: N1_5  and  N2_6 
REMARK    4  A    between atoms: N2_6  and  C5_8 
REMARK    5  A    between atoms: C5_8  and  C6_12 
REMARK    6  A    between atoms: C10_18  and  N4_19 
REMARK    7  A    between atoms: N4_19  and  C11_21 
REMARK    8  A    between atoms: C14_24  and  N5_25 
ROOT
HETATM    1  C1  UNL     1     -12.204  22.460 -37.516  1.00  0.00     0.052 C 
HETATM    2  C2  UNL     1     -13.413  23.198 -37.147  1.00  0.00    -0.014 A 
HETATM    3  C3  UNL     1     -14.640  22.732 -37.542  1.00  0.00     0.003 A 
HETATM    4  C8  UNL     1     -15.794  23.405 -37.210  1.00  0.00     0.017 A 
HETATM    5  C9  UNL     1     -15.689  24.567 -36.469  1.00  0.00     0.032 A 
HETATM    6  C10 UNL     1     -14.452  25.041 -36.068  1.00  0.00     0.062 A 
HETATM    7  C14 UNL     1     -13.295  24.370 -36.398  1.00  0.00     0.136 A 
ENDROOT
BRANCH   3   8
HETATM    8  C4  UNL     1     -14.742  21.483 -38.341  1.00  0.00     0.221 C 
BRANCH   8   9
HETATM    9  N1  UNL     1     -14.707  21.486 -39.508  1.00  0.00    -0.336 NA
BRANCH   9  10
HETATM   10  N2  UNL     1     -14.494  21.584 -40.781  1.00  0.00    -0.221 N 
ATOM     11  H2  UNL     1     -15.045  21.033 -41.440  1.00  0.00     0.203 HD
BRANCH  10  12
HETATM   12  C5  UNL     1     -13.456  22.495 -41.265  1.00  0.00     0.140 C 
HETATM   13  N3  UNL     1     -12.237  22.087 -41.302  1.00  0.00    -0.385 N 
ATOM     14  H32 UNL     1     -11.925  21.160 -41.015  1.00  0.00     0.157 HD
ATOM     15  H31 UNL     1     -11.513  22.722 -41.640  1.00  0.00     0.157 HD
BRANCH  12  16
HETATM   16  C6  UNL     1     -13.904  23.827 -41.677  1.00  0.00     0.169 C 
HETATM   17  C7  UNL     1     -13.018  24.416 -42.742  1.00  0.00     0.059 C 
HETATM   18 CL1  UNL     1     -15.560  23.666 -42.352  1.00  0.00    -0.093 Cl
HETATM   19 CL2  UNL     1     -13.928  24.907 -40.256  1.00  0.00    -0.093 Cl
ENDBRANCH  12  16
ENDBRANCH  10  12
ENDBRANCH   9  10
ENDBRANCH   8   9
ENDBRANCH   3   8
BRANCH   7  20
HETATM   20  N5  UNL     1     -12.020  24.793 -36.027  1.00  0.00    -0.113 N 
HETATM   21  O1  UNL     1     -11.532  24.342 -34.951  1.00  0.00    -0.532 OA
HETATM   22  O2  UNL     1     -11.232  25.664 -36.729  1.00  0.00    -0.532 OA
ENDBRANCH   7  20
BRANCH   6  23
HETATM   23  N4  UNL     1     -14.320  26.243 -35.299  1.00  0.00    -0.383 N 
ATOM     24  H4  UNL     1     -13.889  27.068 -35.716  1.00  0.00     0.160 HD
BRANCH  23  25
HETATM   25  C11 UNL     1     -14.791  26.292 -33.945  1.00  0.00     0.082 A 
HETATM   26  C12 UNL     1     -13.747  26.025 -32.880  1.00  0.00     0.027 A 
HETATM   27  C13 UNL     1     -14.901  25.077 -33.100  1.00  0.00     0.027 A 
ENDBRANCH  23  25
ENDBRANCH   6  23
TORSDOF 8
ENDMDL
MODEL 3
REMARK VINA RESULT: -7.453040644      6.120      7.703
REMARK  8 active torsions:
REMARK  status: ('A' for Active; 'I' for Inactive)
REMARK    1  A    between atoms: C3_3  and  C4_4 
REMARK    2  A    between atoms: C4_4  and  N1_5 
REMARK    3  A    between atoms: N1_5  and  N2_6 
REMARK    4  A    between atoms: N2_6  and  C5_8 
REMARK    5  A    between atoms: C5_8  and  C6_12 
REMARK    6  A    between atoms: C10_18  and  N4_19 
REMARK    7  A    between atoms: N4_19  and  C11_21 
REMARK    8  A    between atoms: C14_24  and  N5_25 
ROOT
HETATM    1  C1  UNL     1     -12.200  22.469 -37.523  1.00  0.00     0.052 C 
HETATM    2  C2  UNL     1     -13.412  23.200 -37.149  1.00  0.00    -0.014 A 
HETATM    3  C3  UNL     1     -14.637  22.721 -37.530  1.00  0.00     0.003 A 
HETATM    4  C8  UNL     1     -15.794  23.387 -37.193  1.00  0.00     0.017 A 
HETATM    5  C9  UNL     1     -15.693  24.554 -36.460  1.00  0.00     0.032 A 
HETATM    6  C10 UNL     1     -14.457  25.041 -36.073  1.00  0.00     0.062 A 
HETATM    7  C14 UNL     1     -13.297  24.378 -36.408  1.00  0.00     0.136 A 
ENDROOT
BRANCH   3   8
HETATM    8  C4  UNL     1     -14.737  21.466 -38.321  1.00  0.00     0.221 C 
BRANCH   8   9
HETATM    9  N1  UNL     1     -14.648  21.455 -39.485  1.00  0.00    -0.336 NA
BRANCH   9  10
HETATM   10  N2  UNL     1     -14.430  21.599 -40.752  1.00  0.00    -0.221 N 
ATOM     11  H2  UNL     1     -14.973  21.067 -41.433  1.00  0.00     0.203 HD
BRANCH  10  12
HETATM   12  C5  UNL     1     -13.395  22.533 -41.199  1.00  0.00     0.140 C 
HETATM   13  N3  UNL     1     -12.169  22.148 -41.209  1.00  0.00    -0.385 N 
ATOM     14  H32 UNL     1     -11.849  21.222 -40.925  1.00  0.00     0.157 HD
ATOM     15  H31 UNL     1     -11.448  22.799 -41.521  1.00  0.00     0.157 HD
BRANCH  12  16
HETATM   16  C6  UNL     1     -13.857  23.863 -41.606  1.00  0.00     0.169 C 
HETATM   17  C7  UNL     1     -13.889  24.828 -40.451  1.00  0.00     0.059 C 
HETATM   18 CL1  UNL     1     -12.703  24.493 -42.830  1.00  0.00    -0.093 Cl
HETATM   19 CL2  UNL     1     -15.488  23.729 -42.319  1.00  0.00    -0.093 Cl
ENDBRANCH  12  16
ENDBRANCH  10  12
ENDBRANCH   9  10
ENDBRANCH   8   9
ENDBRANCH   3   8
BRANCH   7  20
HETATM   20  N5  UNL     1     -12.022  24.813 -36.051  1.00  0.00    -0.113 N 
HETATM   21  O1  UNL     1     -11.517  24.365 -34.982  1.00  0.00    -0.532 OA
HETATM   22  O2  UNL     1     -11.252  25.695 -36.760  1.00  0.00    -0.532 OA
ENDBRANCH   7  20
BRANCH   6  23
HETATM   23  N4  UNL     1     -14.328  26.249 -35.313  1.00  0.00    -0.383 N 
ATOM     24  H4  UNL     1     -13.907  27.075 -35.739  1.00  0.00     0.160 HD
BRANCH  23  25
HETATM   25  C11 UNL     1     -14.789  26.304 -33.956  1.00  0.00     0.082 A 
HETATM   26  C12 UNL     1     -13.736  26.044 -32.898  1.00  0.00     0.027 A 
HETATM   27  C13 UNL     1     -14.890  25.093 -33.104  1.00  0.00     0.027 A 
ENDBRANCH  23  25
ENDBRANCH   6  23
TORSDOF 8
ENDMDL
MODEL 4
REMARK VINA RESULT: -7.379849897      5.839      7.683
REMARK  8 active torsions:
REMARK  status: ('A' for Active; 'I' for Inactive)
REMARK    1  A    between atoms: C3_3  and  C4_4 
REMARK    2  A    between atoms: C4_4  and  N1_5 
REMARK    3  A    between atoms: N1_5  and  N2_6 
REMARK    4  A    between atoms: N2_6  and  C5_8 
REMARK    5  A    between atoms: C5_8  and  C6_12 
REMARK    6  A    between atoms: C10_18  and  N4_19 
REMARK    7  A    between atoms: N4_19  and  C11_21 
REMARK    8  A    between atoms: C14_24  and  N5_25 
ROOT
HETATM    1  C1  UNL     1     -12.265  22.274 -37.374  1.00  0.00     0.052 C 
HETATM    2  C2  UNL     1     -13.453  23.085 -37.103  1.00  0.00    -0.014 A 
HETATM    3  C3  UNL     1     -14.675  22.676 -37.569  1.00  0.00     0.003 A 
HETATM    4  C8  UNL     1     -15.809  23.418 -37.329  1.00  0.00     0.017 A 
HETATM    5  C9  UNL     1     -15.690  24.590 -36.606  1.00  0.00     0.032 A 
HETATM    6  C10 UNL     1     -14.458  25.006 -36.133  1.00  0.00     0.062 A 
HETATM    7  C14 UNL     1     -13.320  24.267 -36.371  1.00  0.00     0.136 A 
ENDROOT
BRANCH   3   8
HETATM    8  C4  UNL     1     -14.793  21.416 -38.348  1.00  0.00     0.221 C 
BRANCH   8   9
HETATM    9  N1  UNL     1     -14.625  21.380 -39.502  1.00  0.00    -0.336 NA
BRANCH   9  10
HETATM   10  N2  UNL     1     -14.360  21.520 -40.762  1.00  0.00    -0.221 N 
ATOM     11  H2  UNL     1     -14.080  20.716 -41.323  1.00  0.00     0.203 HD
BRANCH  10  12
HETATM   12  C5  UNL     1     -14.466  22.847 -41.371  1.00  0.00     0.140 C 
HETATM   13  N3  UNL     1     -15.597  23.224 -41.853  1.00  0.00    -0.385 N 
ATOM     14  H32 UNL     1     -16.448  22.661 -41.847  1.00  0.00     0.157 HD
ATOM     15  H31 UNL     1     -15.670  24.149 -42.277  1.00  0.00     0.157 HD
BRANCH  12  16
HETATM   16  C6  UNL     1     -13.244  23.655 -41.379  1.00  0.00     0.169 C 
HETATM   17  C7  UNL     1     -13.030  24.341 -42.701  1.00  0.00     0.059 C 
HETATM   18 CL1  UNL     1     -13.411  24.918 -40.113  1.00  0.00    -0.093 Cl
HETATM   19 CL2  UNL     1     -11.843  22.610 -41.015  1.00  0.00    -0.093 Cl
ENDBRANCH  12  16
ENDBRANCH  10  12
ENDBRANCH   9  10
ENDBRANCH   8   9
ENDBRANCH   3   8
BRANCH   7  20
HETATM   20  N5  UNL     1     -12.050  24.629 -35.924  1.00  0.00    -0.113 N 
HETATM   21  O1  UNL     1     -11.423  25.518 -36.568  1.00  0.00    -0.532 OA
HETATM   22  O2  UNL     1     -11.407  24.104 -34.837  1.00  0.00    -0.532 OA
ENDBRANCH   7  20
BRANCH   6  23
HETATM   23  N4  UNL     1     -14.311  26.217 -35.381  1.00  0.00    -0.383 N 
ATOM     24  H4  UNL     1     -13.876  27.033 -35.813  1.00  0.00     0.160 HD
BRANCH  23  25
HETATM   25  C11 UNL     1     -14.771  26.289 -34.025  1.00  0.00     0.082 A 
HETATM   26  C12 UNL     1     -13.717  26.054 -32.963  1.00  0.00     0.027 A 
HETATM   27  C13 UNL     1     -14.862  25.090 -33.155  1.00  0.00     0.027 A 
ENDBRANCH  23  25
ENDBRANCH   6  23
TORSDOF 8
ENDMDL
MODEL 5
REMARK VINA RESULT: -7.310699021      5.939      7.913
REMARK  8 active torsions:
REMARK  status: ('A' for Active; 'I' for Inactive)
REMARK    1  A    between atoms: C3_3  and  C4_4 
REMARK    2  A    between atoms: C4_4  and  N1_5 
REMARK    3  A    between atoms: N1_5  and  N2_6 
REMARK    4  A    between atoms: N2_6  and  C5_8 
REMARK    5  A    between atoms: C5_8  and  C6_12 
REMARK    6  A    between atoms: C10_18  and  N4_19 
REMARK    7  A    between atoms: N4_19  and  C11_21 
REMARK    8  A    between atoms: C14_24  and  N5_25 
ROOT
HETATM    1  C1  UNL     1     -12.193  22.478 -37.454  1.00  0.00     0.052 C 
HETATM    2  C2  UNL     1     -13.403  23.221 -37.100  1.00  0.00    -0.014 A 
HETATM    3  C3  UNL     1     -14.627  22.756 -37.501  1.00  0.00     0.003 A 
HETATM    4  C8  UNL     1     -15.782  23.434 -37.182  1.00  0.00     0.017 A 
HETATM    5  C9  UNL     1     -15.680  24.599 -36.446  1.00  0.00     0.032 A 
HETATM    6  C10 UNL     1     -14.446  25.073 -36.039  1.00  0.00     0.062 A 
HETATM    7  C14 UNL     1     -13.287  24.397 -36.356  1.00  0.00     0.136 A 
ENDROOT
BRANCH   3   8
HETATM    8  C4  UNL     1     -14.727  21.503 -38.294  1.00  0.00     0.221 C 
BRANCH   8   9
HETATM    9  N1  UNL     1     -14.805  21.508 -39.459  1.00  0.00    -0.336 NA
BRANCH   9  10
HETATM   10  N2  UNL     1     -14.735  21.635 -40.746  1.00  0.00    -0.221 N 
ATOM     11  H2  UNL     1     -15.364  22.271 -41.236  1.00  0.00     0.203 HD
BRANCH  10  12
HETATM   12  C5  UNL     1     -13.745  20.854 -41.488  1.00  0.00     0.140 C 
HETATM   13  N3  UNL     1     -14.092  19.726 -41.996  1.00  0.00    -0.385 N 
ATOM     14  H32 UNL     1     -15.025  19.319 -41.924  1.00  0.00     0.157 HD
ATOM     15  H31 UNL     1     -13.402  19.183 -42.514  1.00  0.00     0.157 HD
BRANCH  12  16
HETATM   16  C6  UNL     1     -12.406  21.440 -41.592  1.00  0.00     0.169 C 
HETATM   17  C7  UNL     1     -11.436  20.806 -40.631  1.00  0.00     0.059 C 
HETATM   18 CL1  UNL     1     -11.809  21.154 -43.262  1.00  0.00    -0.093 Cl
HETATM   19 CL2  UNL     1     -12.502  23.194 -41.273  1.00  0.00    -0.093 Cl
ENDBRANCH  12  16
ENDBRANCH  10  12
ENDBRANCH   9  10
ENDBRANCH   8   9
ENDBRANCH   3   8
BRANCH   7  20
HETATM   20  N5  UNL     1     -12.014  24.818 -35.978  1.00  0.00    -0.113 N 
HETATM   21  O1  UNL     1     -11.526  24.355 -34.907  1.00  0.00    -0.532 OA
HETATM   22  O2  UNL     1     -11.228  25.701 -36.666  1.00  0.00    -0.532 OA
ENDBRANCH   7  20
BRANCH   6  23
HETATM   23  N4  UNL     1     -14.317  26.278 -35.275  1.00  0.00    -0.383 N 
ATOM     24  H4  UNL     1     -13.898  27.106 -35.700  1.00  0.00     0.160 HD
BRANCH  23  25
HETATM   25  C11 UNL     1     -14.772  26.328 -33.917  1.00  0.00     0.082 A 
HETATM   26  C12 UNL     1     -13.726  26.023 -32.865  1.00  0.00     0.027 A 
HETATM   27  C13 UNL     1     -14.908  25.109 -33.081  1.00  0.00     0.027 A 
ENDBRANCH  23  25
ENDBRANCH   6  23
TORSDOF 8
ENDMDL
