MODEL 1
REMARK VINA RESULT: -8.426723860      0.000      0.000
REMARK  8 active torsions:
REMARK  status: ('A' for Active; 'I' for Inactive)
REMARK    1  A    between atoms: C2_2  and  O1_5 
REMARK    2  A    between atoms: O1_5  and  C5_6 
REMARK       I    between atoms: C5_6  and  N1_8 
REMARK    3  A    between atoms: N1_8  and  N2_9 
REMARK       I    between atoms: N2_9  and  C6_11 
REMARK    4  A    between atoms: C6_11  and  C7_13 
REMARK    5  A    between atoms: C9_15  and  O4_16 
REMARK    6  A    between atoms: N3_18  and  C10_19 
REMARK    7  A    between atoms: C10_19  and  C13_22 
REMARK    8  A    between atoms: C13_22  and  C14_23 
ROOT
HETATM    1  C7  UNL     1     -10.357  27.741 -34.204  1.00  0.00     0.054 A 
HETATM    2  C8  UNL     1     -10.330  27.227 -32.863  1.00  0.00     0.074 A 
HETATM    3  C9  UNL     1     -11.124  26.123 -32.853  1.00  0.00     0.143 A 
HETATM    4  N3  UNL     1     -11.631  25.925 -34.074  1.00  0.00    -0.328 N 
HETATM    5  C15 UNL     1     -11.176  26.873 -34.871  1.00  0.00     0.111 A 
ENDROOT
BRANCH   1   6
HETATM    6  C6  UNL     1      -9.725  28.993 -34.571  1.00  0.00     0.281 C 
HETATM    7  N2  UNL     1      -8.399  28.935 -35.122  1.00  0.00    -0.193 N 
ATOM      8  H2  UNL     1      -7.979  28.032 -35.344  1.00  0.00     0.205 HD
HETATM    9  O3  UNL     1     -10.241  30.108 -34.426  1.00  0.00    -0.265 OA
BRANCH   7  10
HETATM   10  N1  UNL     1      -7.713  30.061 -35.342  1.00  0.00    -0.256 NA
HETATM   11  C5  UNL     1      -7.015  31.207 -35.568  1.00  0.00     0.459 C 
HETATM   12  O2  UNL     1      -6.792  31.632 -36.754  1.00  0.00    -0.219 OA
BRANCH  11  13
HETATM   13  O1  UNL     1      -6.466  32.049 -34.580  1.00  0.00    -0.281 OA
BRANCH  13  14
HETATM   14  C2  UNL     1      -7.358  32.621 -33.603  1.00  0.00     0.062 C 
HETATM   15  C1  UNL     1      -6.574  33.774 -33.012  1.00  0.00     0.046 C 
HETATM   16  C3  UNL     1      -7.820  31.702 -32.543  1.00  0.00     0.046 C 
HETATM   17  C4  UNL     1      -8.563  33.247 -34.345  1.00  0.00     0.046 C 
ENDBRANCH  13  14
ENDBRANCH  11  13
ENDBRANCH   7  10
ENDBRANCH   1   6
BRANCH   3  18
HETATM   18  O4  UNL     1     -11.295  25.394 -31.663  1.00  0.00    -0.346 OA
ATOM     19  H4  UNL     1     -12.072  24.861 -31.542  1.00  0.00     0.219 HD
ENDBRANCH   3  18
BRANCH   4  20
HETATM   20  C10 UNL     1     -12.544  24.847 -34.359  1.00  0.00     0.036 C 
HETATM   21  C11 UNL     1     -12.793  24.809 -35.834  1.00  0.00     0.039 C 
HETATM   22  C12 UNL     1     -11.779  23.527 -34.062  1.00  0.00     0.039 C 
BRANCH  20  23
HETATM   23  C13 UNL     1     -13.850  24.845 -33.664  1.00  0.00     0.101 C 
BRANCH  23  24
HETATM   24  C14 UNL     1     -14.434  26.098 -33.173  1.00  0.00     0.355 C 
HETATM   25  F1  UNL     1     -14.896  26.778 -34.320  1.00  0.00    -0.214 F 
HETATM   26  F2  UNL     1     -15.535  25.947 -32.362  1.00  0.00    -0.214 F 
ENDBRANCH  23  24
ENDBRANCH  20  23
ENDBRANCH   4  20
TORSDOF 8
ENDMDL
MODEL 2
REMARK VINA RESULT: -8.224076510      1.350      1.647
REMARK  8 active torsions:
REMARK  status: ('A' for Active; 'I' for Inactive)
REMARK    1  A    between atoms: C2_2  and  O1_5 
REMARK    2  A    between atoms: O1_5  and  C5_6 
REMARK       I    between atoms: C5_6  and  N1_8 
REMARK    3  A    between atoms: N1_8  and  N2_9 
REMARK       I    between atoms: N2_9  and  C6_11 
REMARK    4  A    between atoms: C6_11  and  C7_13 
REMARK    5  A    between atoms: C9_15  and  O4_16 
REMARK    6  A    between atoms: N3_18  and  C10_19 
REMARK    7  A    between atoms: C10_19  and  C13_22 
REMARK    8  A    between atoms: C13_22  and  C14_23 
ROOT
HETATM    1  C7  UNL     1     -10.356  27.757 -33.855  1.00  0.00     0.054 A 
HETATM    2  C8  UNL     1     -10.933  27.395 -35.119  1.00  0.00     0.074 A 
HETATM    3  C9  UNL     1     -11.675  26.275 -34.903  1.00  0.00     0.143 A 
HETATM    4  N3  UNL     1     -11.595  25.928 -33.614  1.00  0.00    -0.328 N 
HETATM    5  C15 UNL     1     -10.824  26.803 -32.996  1.00  0.00     0.111 A 
ENDROOT
BRANCH   1   6
HETATM    6  C6  UNL     1      -9.395  28.833 -33.716  1.00  0.00     0.281 C 
HETATM    7  N2  UNL     1      -9.125  29.641 -34.875  1.00  0.00    -0.193 N 
ATOM      8  H2  UNL     1      -9.682  29.519 -35.720  1.00  0.00     0.205 HD
HETATM    9  O3  UNL     1      -8.776  29.092 -32.676  1.00  0.00    -0.265 OA
BRANCH   7  10
HETATM   10  N1  UNL     1      -8.146  30.550 -34.846  1.00  0.00    -0.256 NA
HETATM   11  C5  UNL     1      -7.147  31.474 -34.818  1.00  0.00     0.459 C 
HETATM   12  O2  UNL     1      -6.411  31.694 -35.840  1.00  0.00    -0.219 OA
BRANCH  11  13
HETATM   13  O1  UNL     1      -6.800  32.283 -33.717  1.00  0.00    -0.281 OA
BRANCH  13  14
HETATM   14  C2  UNL     1      -7.793  33.194 -33.204  1.00  0.00     0.062 C 
HETATM   15  C1  UNL     1      -6.999  34.183 -32.376  1.00  0.00     0.046 C 
HETATM   16  C3  UNL     1      -8.868  32.579 -32.398  1.00  0.00     0.046 C 
HETATM   17  C4  UNL     1      -8.387  33.992 -34.388  1.00  0.00     0.046 C 
ENDBRANCH  13  14
ENDBRANCH  11  13
ENDBRANCH   7  10
ENDBRANCH   1   6
BRANCH   3  18
HETATM   18  O4  UNL     1     -12.370  25.679 -35.969  1.00  0.00    -0.346 OA
ATOM     19  H4  UNL     1     -13.319  25.698 -35.985  1.00  0.00     0.219 HD
ENDBRANCH   3  18
BRANCH   4  20
HETATM   20  C10 UNL     1     -12.250  24.754 -33.096  1.00  0.00     0.036 C 
HETATM   21  C11 UNL     1     -11.750  23.559 -33.845  1.00  0.00     0.039 C 
HETATM   22  C12 UNL     1     -11.721  24.551 -31.648  1.00  0.00     0.039 C 
BRANCH  20  23
HETATM   23  C13 UNL     1     -13.729  24.726 -33.105  1.00  0.00     0.101 C 
BRANCH  23  24
HETATM   24  C14 UNL     1     -14.499  25.928 -32.765  1.00  0.00     0.355 C 
HETATM   25  F1  UNL     1     -14.808  26.544 -33.996  1.00  0.00    -0.214 F 
HETATM   26  F2  UNL     1     -15.708  25.690 -32.155  1.00  0.00    -0.214 F 
ENDBRANCH  23  24
ENDBRANCH  20  23
ENDBRANCH   4  20
TORSDOF 8
ENDMDL
MODEL 3
REMARK VINA RESULT: -8.053379711      1.012      1.445
REMARK  8 active torsions:
REMARK  status: ('A' for Active; 'I' for Inactive)
REMARK    1  A    between atoms: C2_2  and  O1_5 
REMARK    2  A    between atoms: O1_5  and  C5_6 
REMARK       I    between atoms: C5_6  and  N1_8 
REMARK    3  A    between atoms: N1_8  and  N2_9 
REMARK       I    between atoms: N2_9  and  C6_11 
REMARK    4  A    between atoms: C6_11  and  C7_13 
REMARK    5  A    between atoms: C9_15  and  O4_16 
REMARK    6  A    between atoms: N3_18  and  C10_19 
REMARK    7  A    between atoms: C10_19  and  C13_22 
REMARK    8  A    between atoms: C13_22  and  C14_23 
ROOT
HETATM    1  C7  UNL     1     -10.434  27.923 -34.156  1.00  0.00     0.054 A 
HETATM    2  C8  UNL     1     -10.214  27.264 -32.899  1.00  0.00     0.074 A 
HETATM    3  C9  UNL     1     -11.103  26.235 -32.839  1.00  0.00     0.143 A 
HETATM    4  N3  UNL     1     -11.843  26.217 -33.953  1.00  0.00    -0.328 N 
HETATM    5  C15 UNL     1     -11.445  27.206 -34.730  1.00  0.00     0.111 A 
ENDROOT
BRANCH   1   6
HETATM    6  C6  UNL     1      -9.754  29.151 -34.521  1.00  0.00     0.281 C 
HETATM    7  N2  UNL     1      -8.451  29.041 -35.117  1.00  0.00    -0.193 N 
ATOM      8  H2  UNL     1      -8.083  28.124 -35.371  1.00  0.00     0.205 HD
HETATM    9  O3  UNL     1     -10.210  30.286 -34.336  1.00  0.00    -0.265 OA
BRANCH   7  10
HETATM   10  N1  UNL     1      -7.719  30.138 -35.339  1.00  0.00    -0.256 NA
HETATM   11  C5  UNL     1      -6.974  31.253 -35.566  1.00  0.00     0.459 C 
HETATM   12  O2  UNL     1      -6.729  31.663 -36.752  1.00  0.00    -0.219 OA
BRANCH  11  13
HETATM   13  O1  UNL     1      -6.396  32.076 -34.579  1.00  0.00    -0.281 OA
BRANCH  13  14
HETATM   14  C2  UNL     1      -7.269  32.690 -33.609  1.00  0.00     0.062 C 
HETATM   15  C1  UNL     1      -6.440  33.809 -33.015  1.00  0.00     0.046 C 
HETATM   16  C3  UNL     1      -7.777  31.793 -32.550  1.00  0.00     0.046 C 
HETATM   17  C4  UNL     1      -8.441  33.365 -34.360  1.00  0.00     0.046 C 
ENDBRANCH  13  14
ENDBRANCH  11  13
ENDBRANCH   7  10
ENDBRANCH   1   6
BRANCH   3  18
HETATM   18  O4  UNL     1     -11.127  25.396 -31.711  1.00  0.00    -0.346 OA
ATOM     19  H4  UNL     1     -11.723  24.657 -31.684  1.00  0.00     0.219 HD
ENDBRANCH   3  18
BRANCH   4  20
HETATM   20  C10 UNL     1     -12.898  25.257 -34.155  1.00  0.00     0.036 C 
HETATM   21  C11 UNL     1     -12.361  23.890 -33.865  1.00  0.00     0.039 C 
HETATM   22  C12 UNL     1     -13.946  25.506 -33.034  1.00  0.00     0.039 C 
BRANCH  20  23
HETATM   23  C13 UNL     1     -13.563  25.228 -35.475  1.00  0.00     0.101 C 
BRANCH  23  24
HETATM   24  C14 UNL     1     -15.019  25.073 -35.573  1.00  0.00     0.355 C 
HETATM   25  F1  UNL     1     -15.475  26.206 -36.280  1.00  0.00    -0.214 F 
HETATM   26  F2  UNL     1     -15.440  23.986 -36.302  1.00  0.00    -0.214 F 
ENDBRANCH  23  24
ENDBRANCH  20  23
ENDBRANCH   4  20
TORSDOF 8
ENDMDL
MODEL 4
REMARK VINA RESULT: -7.970070056      5.143      8.903
REMARK  8 active torsions:
REMARK  status: ('A' for Active; 'I' for Inactive)
REMARK    1  A    between atoms: C2_2  and  O1_5 
REMARK    2  A    between atoms: O1_5  and  C5_6 
REMARK       I    between atoms: C5_6  and  N1_8 
REMARK    3  A    between atoms: N1_8  and  N2_9 
REMARK       I    between atoms: N2_9  and  C6_11 
REMARK    4  A    between atoms: C6_11  and  C7_13 
REMARK    5  A    between atoms: C9_15  and  O4_16 
REMARK    6  A    between atoms: N3_18  and  C10_19 
REMARK    7  A    between atoms: C10_19  and  C13_22 
REMARK    8  A    between atoms: C13_22  and  C14_23 
ROOT
HETATM    1  C7  UNL     1     -11.833  23.695 -36.345  1.00  0.00     0.054 A 
HETATM    2  C8  UNL     1     -11.824  25.109 -36.593  1.00  0.00     0.074 A 
HETATM    3  C9  UNL     1     -11.935  25.717 -35.381  1.00  0.00     0.143 A 
HETATM    4  N3  UNL     1     -12.011  24.790 -34.420  1.00  0.00    -0.328 N 
HETATM    5  C15 UNL     1     -11.945  23.600 -34.986  1.00  0.00     0.111 A 
ENDROOT
BRANCH   1   6
HETATM    6  C6  UNL     1     -11.860  22.716 -37.415  1.00  0.00     0.281 C 
HETATM    7  N2  UNL     1     -10.937  22.891 -38.502  1.00  0.00    -0.193 N 
ATOM      8  H2  UNL     1     -10.221  23.615 -38.451  1.00  0.00     0.205 HD
HETATM    9  O3  UNL     1     -12.636  21.753 -37.465  1.00  0.00    -0.265 OA
BRANCH   7  10
HETATM   10  N1  UNL     1     -11.016  22.106 -39.582  1.00  0.00    -0.256 NA
HETATM   11  C5  UNL     1     -11.095  21.309 -40.682  1.00  0.00     0.459 C 
HETATM   12  O2  UNL     1     -10.181  21.312 -41.577  1.00  0.00    -0.219 OA
BRANCH  11  13
HETATM   13  O1  UNL     1     -12.139  20.410 -40.978  1.00  0.00    -0.281 OA
BRANCH  13  14
HETATM   14  C2  UNL     1     -13.318  20.928 -41.627  1.00  0.00     0.062 C 
HETATM   15  C1  UNL     1     -13.944  19.717 -42.285  1.00  0.00     0.046 C 
HETATM   16  C3  UNL     1     -13.084  22.001 -42.615  1.00  0.00     0.046 C 
HETATM   17  C4  UNL     1     -14.312  21.397 -40.538  1.00  0.00     0.046 C 
ENDBRANCH  13  14
ENDBRANCH  11  13
ENDBRANCH   7  10
ENDBRANCH   1   6
BRANCH   3  18
HETATM   18  O4  UNL     1     -11.953  27.121 -35.301  1.00  0.00    -0.346 OA
ATOM     19  H4  UNL     1     -11.855  27.548 -34.458  1.00  0.00     0.219 HD
ENDBRANCH   3  18
BRANCH   4  20
HETATM   20  C10 UNL     1     -12.174  25.139 -33.031  1.00  0.00     0.036 C 
HETATM   21  C11 UNL     1     -12.070  23.891 -32.211  1.00  0.00     0.039 C 
HETATM   22  C12 UNL     1     -10.922  25.970 -32.632  1.00  0.00     0.039 C 
BRANCH  20  23
HETATM   23  C13 UNL     1     -13.407  25.855 -32.639  1.00  0.00     0.101 C 
BRANCH  23  24
HETATM   24  C14 UNL     1     -14.702  25.486 -33.222  1.00  0.00     0.355 C 
HETATM   25  F1  UNL     1     -15.664  25.794 -32.238  1.00  0.00    -0.214 F 
HETATM   26  F2  UNL     1     -15.064  26.208 -34.335  1.00  0.00    -0.214 F 
ENDBRANCH  23  24
ENDBRANCH  20  23
ENDBRANCH   4  20
TORSDOF 8
ENDMDL
MODEL 5
REMARK VINA RESULT: -7.905213090      1.634      2.303
REMARK  8 active torsions:
REMARK  status: ('A' for Active; 'I' for Inactive)
REMARK    1  A    between atoms: C2_2  and  O1_5 
REMARK    2  A    between atoms: O1_5  and  C5_6 
REMARK       I    between atoms: C5_6  and  N1_8 
REMARK    3  A    between atoms: N1_8  and  N2_9 
REMARK       I    between atoms: N2_9  and  C6_11 
REMARK    4  A    between atoms: C6_11  and  C7_13 
REMARK    5  A    between atoms: C9_15  and  O4_16 
REMARK    6  A    between atoms: N3_18  and  C10_19 
REMARK    7  A    between atoms: C10_19  and  C13_22 
REMARK    8  A    between atoms: C13_22  and  C14_23 
ROOT
HETATM    1  C7  UNL     1     -10.484  28.068 -34.102  1.00  0.00     0.054 A 
HETATM    2  C8  UNL     1     -10.133  27.269 -32.962  1.00  0.00     0.074 A 
HETATM    3  C9  UNL     1     -11.098  26.318 -32.840  1.00  0.00     0.143 A 
HETATM    4  N3  UNL     1     -12.004  26.475 -33.811  1.00  0.00    -0.328 N 
HETATM    5  C15 UNL     1     -11.640  27.500 -34.557  1.00  0.00     0.111 A 
ENDROOT
BRANCH   1   6
HETATM    6  C6  UNL     1      -9.752  29.265 -34.470  1.00  0.00     0.281 C 
HETATM    7  N2  UNL     1      -8.463  29.098 -35.082  1.00  0.00    -0.193 N 
ATOM      8  H2  UNL     1      -8.141  28.166 -35.344  1.00  0.00     0.205 HD
HETATM    9  O3  UNL     1     -10.154  30.419 -34.275  1.00  0.00    -0.265 OA
BRANCH   7  10
HETATM   10  N1  UNL     1      -7.684  30.161 -35.308  1.00  0.00    -0.256 NA
HETATM   11  C5  UNL     1      -6.891  31.242 -35.539  1.00  0.00     0.459 C 
HETATM   12  O2  UNL     1      -6.603  31.618 -36.727  1.00  0.00    -0.219 OA
BRANCH  11  13
HETATM   13  O1  UNL     1      -6.303  32.062 -34.556  1.00  0.00    -0.281 OA
BRANCH  13  14
HETATM   14  C2  UNL     1      -7.175  32.841 -33.712  1.00  0.00     0.062 C 
HETATM   15  C1  UNL     1      -7.575  31.887 -32.606  1.00  0.00     0.046 C 
HETATM   16  C3  UNL     1      -8.368  33.407 -34.374  1.00  0.00     0.046 C 
HETATM   17  C4  UNL     1      -6.341  33.959 -33.043  1.00  0.00     0.046 C 
ENDBRANCH  13  14
ENDBRANCH  11  13
ENDBRANCH   7  10
ENDBRANCH   1   6
BRANCH   3  18
HETATM   18  O4  UNL     1     -11.025  25.375 -31.801  1.00  0.00    -0.346 OA
ATOM     19  H4  UNL     1     -11.547  24.583 -31.843  1.00  0.00     0.219 HD
ENDBRANCH   3  18
BRANCH   4  20
HETATM   20  C10 UNL     1     -13.169  25.632 -33.914  1.00  0.00     0.036 C 
HETATM   21  C11 UNL     1     -13.985  25.794 -32.670  1.00  0.00     0.039 C 
HETATM   22  C12 UNL     1     -14.056  26.233 -35.040  1.00  0.00     0.039 C 
BRANCH  20  23
HETATM   23  C13 UNL     1     -12.958  24.187 -34.149  1.00  0.00     0.101 C 
BRANCH  23  24
HETATM   24  C14 UNL     1     -11.917  23.727 -35.076  1.00  0.00     0.355 C 
HETATM   25  F1  UNL     1     -11.221  22.708 -34.392  1.00  0.00    -0.214 F 
HETATM   26  F2  UNL     1     -12.385  23.147 -36.232  1.00  0.00    -0.214 F 
ENDBRANCH  23  24
ENDBRANCH  20  23
ENDBRANCH   4  20
TORSDOF 8
ENDMDL
