MODEL 1
REMARK VINA RESULT: -8.342622290      0.000      0.000
REMARK  5 active torsions:
REMARK  status: ('A' for Active; 'I' for Inactive)
REMARK    1  A    between atoms: C3_5  and  S1_6 
REMARK    2  A    between atoms: S1_6  and  C4_7 
REMARK    3  A    between atoms: C6_13  and  C7_14 
REMARK    4  A    between atoms: C7_14  and  N3_15 
REMARK    5  A    between atoms: C7_14  and  C9_22 
REMARK       I    between atoms: N3_15  and  C8_17 
ROOT
HETATM    1  C4  UNL     1      -6.213  27.500 -39.700  1.00  0.00     0.386 C 
HETATM    2  F1  UNL     1      -5.585  27.785 -40.877  1.00  0.00    -0.177 F 
HETATM    3  F2  UNL     1      -5.760  26.512 -38.945  1.00  0.00    -0.177 F 
HETATM    4  C5  UNL     1      -5.962  28.769 -38.903  1.00  0.00     0.150 C 
HETATM    5  N2  UNL     1      -5.747  29.734 -38.261  1.00  0.00    -0.190 NA
ENDROOT
BRANCH   1   6
HETATM    6  S1  UNL     1      -8.009  27.382 -39.977  1.00  0.00    -0.012 SA
BRANCH   6   7
HETATM    7  C3  UNL     1      -8.805  27.019 -38.410  1.00  0.00     0.119 A 
HETATM    8  N1  UNL     1      -8.661  27.648 -37.255  1.00  0.00    -0.348 N 
HETATM    9  C2  UNL     1      -9.343  27.297 -36.223  1.00  0.00     0.021 A 
ATOM     10  H1  UNL     1      -8.001  28.422 -37.182  1.00  0.00     0.167 HD
HETATM   11  C1  UNL     1      -9.263  28.016 -34.879  1.00  0.00     0.069 C 
HETATM   12  C6  UNL     1     -10.228  26.255 -36.327  1.00  0.00     0.030 A 
HETATM   13  S2  UNL     1     -10.007  25.839 -37.996  1.00  0.00    -0.066 SA
BRANCH  12  14
HETATM   14  C7  UNL     1     -10.983  25.460 -35.391  1.00  0.00     0.130 C 
BRANCH  14  15
HETATM   15  N3  UNL     1     -11.176  24.156 -36.128  1.00  0.00    -0.355 N 
HETATM   16  C8  UNL     1     -10.526  22.971 -35.815  1.00  0.00     0.182 C 
HETATM   17  N4  UNL     1     -11.128  22.080 -35.076  1.00  0.00    -0.374 N 
HETATM   18  N5  UNL     1      -9.203  22.598 -36.229  1.00  0.00    -0.064 NA
ATOM     19  H42 UNL     1     -12.069  22.345 -34.783  1.00  0.00     0.158 HD
ATOM     20  H41 UNL     1     -10.650  21.208 -34.846  1.00  0.00     0.158 HD
ATOM     21  H3  UNL     1     -11.831  24.146 -36.910  1.00  0.00     0.162 HD
ENDBRANCH  14  15
BRANCH  14  22
HETATM   22  C9  UNL     1     -12.368  25.852 -35.082  1.00  0.00     0.013 C 
HETATM   23  C10 UNL     1     -12.379  26.330 -33.625  1.00  0.00     0.007 C 
HETATM   24  C11 UNL     1     -13.534  25.645 -32.887  1.00  0.00     0.000 C 
HETATM   25  C12 UNL     1     -14.846  26.043 -33.523  1.00  0.00     0.000 C 
HETATM   26  C13 UNL     1     -14.775  25.854 -35.030  1.00  0.00     0.000 C 
HETATM   27  C14 UNL     1     -13.533  24.961 -35.324  1.00  0.00     0.007 C 
ENDBRANCH  14  22
ENDBRANCH  12  14
ENDBRANCH   6   7
ENDBRANCH   1   6
TORSDOF 5
ENDMDL
MODEL 2
REMARK VINA RESULT: -8.195273923      2.437      3.616
REMARK  5 active torsions:
REMARK  status: ('A' for Active; 'I' for Inactive)
REMARK    1  A    between atoms: C3_5  and  S1_6 
REMARK    2  A    between atoms: S1_6  and  C4_7 
REMARK    3  A    between atoms: C6_13  and  C7_14 
REMARK    4  A    between atoms: C7_14  and  N3_15 
REMARK    5  A    between atoms: C7_14  and  C9_22 
REMARK       I    between atoms: N3_15  and  C8_17 
ROOT
HETATM    1  C4  UNL     1      -7.997  27.166 -38.858  1.00  0.00     0.386 C 
HETATM    2  F1  UNL     1      -7.996  26.924 -37.516  1.00  0.00    -0.177 F 
HETATM    3  F2  UNL     1      -8.463  28.319 -39.310  1.00  0.00    -0.177 F 
HETATM    4  C5  UNL     1      -6.511  27.179 -39.169  1.00  0.00     0.150 C 
HETATM    5  N2  UNL     1      -5.359  27.224 -39.419  1.00  0.00    -0.190 NA
ENDROOT
BRANCH   1   6
HETATM    6  S1  UNL     1      -8.722  25.744 -39.736  1.00  0.00    -0.012 SA
BRANCH   6   7
HETATM    7  C3  UNL     1      -9.922  24.959 -38.656  1.00  0.00     0.119 A 
HETATM    8  N1  UNL     1     -10.484  23.769 -38.787  1.00  0.00    -0.348 N 
HETATM    9  C2  UNL     1     -11.296  23.321 -37.896  1.00  0.00     0.021 A 
ATOM     10  H1  UNL     1     -10.271  23.199 -39.605  1.00  0.00     0.167 HD
HETATM   11  C1  UNL     1     -11.935  21.936 -37.963  1.00  0.00     0.069 C 
HETATM   12  C6  UNL     1     -11.579  24.093 -36.799  1.00  0.00     0.030 A 
HETATM   13  S2  UNL     1     -10.597  25.479 -37.146  1.00  0.00    -0.066 SA
BRANCH  12  14
HETATM   14  C7  UNL     1     -12.555  24.040 -35.740  1.00  0.00     0.130 C 
BRANCH  14  15
HETATM   15  N3  UNL     1     -13.658  24.940 -36.244  1.00  0.00    -0.355 N 
HETATM   16  C8  UNL     1     -14.582  24.585 -37.215  1.00  0.00     0.182 C 
HETATM   17  N4  UNL     1     -15.762  24.157 -36.857  1.00  0.00    -0.374 N 
HETATM   18  N5  UNL     1     -14.379  24.634 -38.635  1.00  0.00    -0.064 NA
ATOM     19  H42 UNL     1     -15.907  24.122 -35.847  1.00  0.00     0.158 HD
ATOM     20  H41 UNL     1     -16.442  23.895 -37.571  1.00  0.00     0.158 HD
ATOM     21  H3  UNL     1     -13.728  25.875 -35.843  1.00  0.00     0.162 HD
ENDBRANCH  14  15
BRANCH  14  22
HETATM   22  C9  UNL     1     -12.226  24.649 -34.440  1.00  0.00     0.013 C 
HETATM   23  C10 UNL     1     -11.555  23.558 -33.596  1.00  0.00     0.007 C 
HETATM   24  C11 UNL     1     -12.214  23.526 -32.213  1.00  0.00     0.000 C 
HETATM   25  C12 UNL     1     -12.003  24.853 -31.522  1.00  0.00     0.000 C 
HETATM   26  C13 UNL     1     -12.390  25.994 -32.450  1.00  0.00     0.000 C 
HETATM   27  C14 UNL     1     -13.223  25.379 -33.613  1.00  0.00     0.007 C 
ENDBRANCH  14  22
ENDBRANCH  12  14
ENDBRANCH   6   7
ENDBRANCH   1   6
TORSDOF 5
ENDMDL
MODEL 3
REMARK VINA RESULT: -8.070468167      4.129      6.251
REMARK  5 active torsions:
REMARK  status: ('A' for Active; 'I' for Inactive)
REMARK    1  A    between atoms: C3_5  and  S1_6 
REMARK    2  A    between atoms: S1_6  and  C4_7 
REMARK    3  A    between atoms: C6_13  and  C7_14 
REMARK    4  A    between atoms: C7_14  and  N3_15 
REMARK    5  A    between atoms: C7_14  and  C9_22 
REMARK       I    between atoms: N3_15  and  C8_17 
ROOT
HETATM    1  C4  UNL     1     -13.913  21.616 -41.052  1.00  0.00     0.386 C 
HETATM    2  F1  UNL     1     -14.351  20.438 -41.580  1.00  0.00    -0.177 F 
HETATM    3  F2  UNL     1     -14.041  22.731 -41.755  1.00  0.00    -0.177 F 
HETATM    4  C5  UNL     1     -14.837  21.780 -39.858  1.00  0.00     0.150 C 
HETATM    5  N2  UNL     1     -15.568  21.937 -38.947  1.00  0.00    -0.190 NA
ENDROOT
BRANCH   1   6
HETATM    6  S1  UNL     1     -12.223  21.406 -40.405  1.00  0.00    -0.012 SA
BRANCH   6   7
HETATM    7  C3  UNL     1     -12.049  22.415 -38.929  1.00  0.00     0.119 A 
HETATM    8  N1  UNL     1     -11.736  22.024 -37.705  1.00  0.00    -0.348 N 
HETATM    9  C2  UNL     1     -11.601  22.879 -36.754  1.00  0.00     0.021 A 
ATOM     10  H1  UNL     1     -11.601  21.032 -37.512  1.00  0.00     0.167 HD
HETATM   11  C1  UNL     1     -11.189  22.498 -35.335  1.00  0.00     0.069 C 
HETATM   12  C6  UNL     1     -11.784  24.211 -37.020  1.00  0.00     0.030 A 
HETATM   13  S2  UNL     1     -12.153  24.132 -38.712  1.00  0.00    -0.066 SA
BRANCH  12  14
HETATM   14  C7  UNL     1     -11.926  25.401 -36.219  1.00  0.00     0.130 C 
BRANCH  14  15
HETATM   15  N3  UNL     1     -10.497  25.771 -35.900  1.00  0.00    -0.355 N 
HETATM   16  C8  UNL     1      -9.620  26.371 -36.791  1.00  0.00     0.182 C 
HETATM   17  N4  UNL     1      -9.448  27.664 -36.757  1.00  0.00    -0.374 N 
HETATM   18  N5  UNL     1      -8.846  25.699 -37.796  1.00  0.00    -0.064 NA
ATOM     19  H42 UNL     1      -9.997  28.141 -36.042  1.00  0.00     0.158 HD
ATOM     20  H41 UNL     1      -8.803  28.105 -37.413  1.00  0.00     0.158 HD
ATOM     21  H3  UNL     1     -10.153  25.566 -34.961  1.00  0.00     0.162 HD
ENDBRANCH  14  15
BRANCH  14  22
HETATM   22  C9  UNL     1     -12.526  25.289 -34.880  1.00  0.00     0.013 C 
HETATM   23  C10 UNL     1     -14.042  25.181 -35.080  1.00  0.00     0.007 C 
HETATM   24  C11 UNL     1     -14.738  26.175 -34.143  1.00  0.00     0.000 C 
HETATM   25  C12 UNL     1     -14.426  25.818 -32.708  1.00  0.00     0.000 C 
HETATM   26  C13 UNL     1     -12.929  25.627 -32.530  1.00  0.00     0.000 C 
HETATM   27  C14 UNL     1     -12.234  26.245 -33.780  1.00  0.00     0.007 C 
ENDBRANCH  14  22
ENDBRANCH  12  14
ENDBRANCH   6   7
ENDBRANCH   1   6
TORSDOF 5
ENDMDL
MODEL 4
REMARK VINA RESULT: -7.965435393      3.830      5.984
REMARK  5 active torsions:
REMARK  status: ('A' for Active; 'I' for Inactive)
REMARK    1  A    between atoms: C3_5  and  S1_6 
REMARK    2  A    between atoms: S1_6  and  C4_7 
REMARK    3  A    between atoms: C6_13  and  C7_14 
REMARK    4  A    between atoms: C7_14  and  N3_15 
REMARK    5  A    between atoms: C7_14  and  C9_22 
REMARK       I    between atoms: N3_15  and  C8_17 
ROOT
HETATM    1  C4  UNL     1     -11.364  21.346 -40.581  1.00  0.00     0.386 C 
HETATM    2  F1  UNL     1     -11.248  20.975 -39.274  1.00  0.00    -0.177 F 
HETATM    3  F2  UNL     1     -10.280  21.695 -41.256  1.00  0.00    -0.177 F 
HETATM    4  C5  UNL     1     -11.847  20.058 -41.225  1.00  0.00     0.150 C 
HETATM    5  N2  UNL     1     -12.190  19.057 -41.744  1.00  0.00    -0.190 NA
ENDROOT
BRANCH   1   6
HETATM    6  S1  UNL     1     -12.700  22.572 -40.753  1.00  0.00    -0.012 SA
BRANCH   6   7
HETATM    7  C3  UNL     1     -12.921  23.399 -39.175  1.00  0.00     0.119 A 
HETATM    8  N1  UNL     1     -14.047  23.607 -38.513  1.00  0.00    -0.348 N 
HETATM    9  C2  UNL     1     -14.038  24.177 -37.360  1.00  0.00     0.021 A 
ATOM     10  H1  UNL     1     -14.934  23.312 -38.921  1.00  0.00     0.167 HD
HETATM   11  C1  UNL     1     -15.295  24.396 -36.522  1.00  0.00     0.069 C 
HETATM   12  C6  UNL     1     -12.843  24.572 -36.817  1.00  0.00     0.030 A 
HETATM   13  S2  UNL     1     -11.760  24.061 -38.071  1.00  0.00    -0.066 SA
BRANCH  12  14
HETATM   14  C7  UNL     1     -12.452  25.395 -35.700  1.00  0.00     0.130 C 
BRANCH  14  15
HETATM   15  N3  UNL     1     -10.960  25.537 -35.885  1.00  0.00    -0.355 N 
HETATM   16  C8  UNL     1     -10.281  26.746 -35.917  1.00  0.00     0.182 C 
HETATM   17  N4  UNL     1      -9.697  27.187 -34.836  1.00  0.00    -0.374 N 
HETATM   18  N5  UNL     1     -10.145  27.609 -37.055  1.00  0.00    -0.064 NA
ATOM     19  H42 UNL     1      -9.793  26.573 -34.027  1.00  0.00     0.158 HD
ATOM     20  H41 UNL     1      -9.197  28.076 -34.859  1.00  0.00     0.158 HD
ATOM     21  H3  UNL     1     -10.413  24.683 -35.994  1.00  0.00     0.162 HD
ENDBRANCH  14  15
BRANCH  14  22
HETATM   22  C9  UNL     1     -12.547  24.840 -34.341  1.00  0.00     0.013 C 
HETATM   23  C10 UNL     1     -12.747  26.026 -33.389  1.00  0.00     0.007 C 
HETATM   24  C11 UNL     1     -11.758  25.900 -32.225  1.00  0.00     0.000 C 
HETATM   25  C12 UNL     1     -12.042  24.629 -31.458  1.00  0.00     0.000 C 
HETATM   26  C13 UNL     1     -12.142  23.452 -32.415  1.00  0.00     0.000 C 
HETATM   27  C14 UNL     1     -11.534  23.910 -33.774  1.00  0.00     0.007 C 
ENDBRANCH  14  22
ENDBRANCH  12  14
ENDBRANCH   6   7
ENDBRANCH   1   6
TORSDOF 5
ENDMDL
MODEL 5
REMARK VINA RESULT: -7.939157718      3.213      3.955
REMARK  5 active torsions:
REMARK  status: ('A' for Active; 'I' for Inactive)
REMARK    1  A    between atoms: C3_5  and  S1_6 
REMARK    2  A    between atoms: S1_6  and  C4_7 
REMARK    3  A    between atoms: C6_13  and  C7_14 
REMARK    4  A    between atoms: C7_14  and  N3_15 
REMARK    5  A    between atoms: C7_14  and  C9_22 
REMARK       I    between atoms: N3_15  and  C8_17 
ROOT
HETATM    1  C4  UNL     1      -7.439  27.085 -39.173  1.00  0.00     0.386 C 
HETATM    2  F1  UNL     1      -8.124  27.637 -40.215  1.00  0.00    -0.177 F 
HETATM    3  F2  UNL     1      -6.836  25.918 -39.339  1.00  0.00    -0.177 F 
HETATM    4  C5  UNL     1      -6.322  28.094 -38.971  1.00  0.00     0.150 C 
HETATM    5  N2  UNL     1      -5.431  28.852 -38.823  1.00  0.00    -0.190 NA
ENDROOT
BRANCH   1   6
HETATM    6  S1  UNL     1      -8.474  27.114 -37.675  1.00  0.00    -0.012 SA
BRANCH   6   7
HETATM    7  C3  UNL     1      -9.558  25.683 -37.703  1.00  0.00     0.119 A 
HETATM    8  N1  UNL     1      -9.809  24.829 -36.725  1.00  0.00    -0.348 N 
HETATM    9  C2  UNL     1     -10.654  23.873 -36.885  1.00  0.00     0.021 A 
ATOM     10  H1  UNL     1      -9.325  24.929 -35.833  1.00  0.00     0.167 HD
HETATM   11  C1  UNL     1     -11.028  22.889 -35.779  1.00  0.00     0.069 C 
HETATM   12  C6  UNL     1     -11.300  23.744 -38.087  1.00  0.00     0.030 A 
HETATM   13  S2  UNL     1     -10.610  25.083 -38.944  1.00  0.00    -0.066 SA
BRANCH  12  14
HETATM   14  C7  UNL     1     -12.118  22.728 -38.701  1.00  0.00     0.130 C 
BRANCH  14  15
HETATM   15  N3  UNL     1     -11.909  22.967 -40.178  1.00  0.00    -0.355 N 
HETATM   16  C8  UNL     1     -11.336  22.056 -41.051  1.00  0.00     0.182 C 
HETATM   17  N4  UNL     1     -12.101  21.291 -41.781  1.00  0.00    -0.374 N 
HETATM   18  N5  UNL     1      -9.930  21.844 -41.249  1.00  0.00    -0.064 NA
ATOM     19  H42 UNL     1     -13.100  21.441 -41.640  1.00  0.00     0.158 HD
ATOM     20  H41 UNL     1     -11.679  20.619 -42.423  1.00  0.00     0.158 HD
ATOM     21  H3  UNL     1     -12.212  23.864 -40.560  1.00  0.00     0.162 HD
ENDBRANCH  14  15
BRANCH  14  22
HETATM   22  C9  UNL     1     -13.581  22.821 -38.574  1.00  0.00     0.013 C 
HETATM   23  C10 UNL     1     -13.884  24.171 -37.911  1.00  0.00     0.007 C 
HETATM   24  C11 UNL     1     -14.864  23.946 -36.754  1.00  0.00     0.000 C 
HETATM   25  C12 UNL     1     -16.159  23.384 -37.292  1.00  0.00     0.000 C 
HETATM   26  C13 UNL     1     -15.878  22.200 -38.204  1.00  0.00     0.000 C 
HETATM   27  C14 UNL     1     -14.407  21.758 -37.943  1.00  0.00     0.007 C 
ENDBRANCH  14  22
ENDBRANCH  12  14
ENDBRANCH   6   7
ENDBRANCH   1   6
TORSDOF 5
ENDMDL
