MODEL 1
REMARK VINA RESULT: -7.667603623      0.000      0.000
REMARK  6 active torsions:
REMARK  status: ('A' for Active; 'I' for Inactive)
REMARK    1  A    between atoms: O1_1  and  C1_3 
REMARK    2  A    between atoms: C1_3  and  C2_4 
REMARK    3  A    between atoms: C2_4  and  C3_7 
REMARK    4  A    between atoms: C3_7  and  C4_8 
REMARK    5  A    between atoms: C4_8  and  S1_9 
REMARK    6  A    between atoms: S1_9  and  C5_10 
ROOT
HETATM    1  C2  UNL     1     -12.024  23.078 -37.636  1.00  0.00     0.144 C 
HETATM    2 CL1  UNL     1     -11.240  23.473 -39.180  1.00  0.00    -0.098 Cl
HETATM    3 CL2  UNL     1     -12.915  21.563 -37.837  1.00  0.00    -0.098 Cl
ENDROOT
BRANCH   1   4
HETATM    4  C1  UNL     1     -13.080  24.162 -37.333  1.00  0.00     0.094 C 
HETATM    5  C7  UNL     1     -14.387  23.492 -37.232  1.00  0.00     0.041 C 
HETATM    6  C8  UNL     1     -15.482  24.186 -36.540  1.00  0.00     0.003 C 
HETATM    7  C9  UNL     1     -15.219  25.615 -36.176  1.00  0.00     0.001 C 
HETATM    8  C10 UNL     1     -14.587  25.608 -34.805  1.00  0.00     0.016 C 
HETATM    9  C11 UNL     1     -13.322  24.780 -34.902  1.00  0.00     0.061 C 
HETATM   10  S2  UNL     1     -12.207  25.458 -33.615  1.00  0.00    -0.092 SA
HETATM   11  C12 UNL     1     -12.607  24.972 -36.209  1.00  0.00     0.057 C 
BRANCH   4  12
HETATM   12  O1  UNL     1     -13.071  24.978 -38.488  1.00  0.00    -0.387 OA
ATOM     13  H1  UNL     1     -12.259  24.746 -38.924  1.00  0.00     0.210 HD
ENDBRANCH   4  12
ENDBRANCH   1   4
BRANCH   1  14
HETATM   14  C3  UNL     1     -10.996  23.013 -36.565  1.00  0.00     0.056 C 
BRANCH  14  15
HETATM   15  C4  UNL     1     -10.686  21.620 -36.099  1.00  0.00     0.085 C 
BRANCH  15  16
HETATM   16  S1  UNL     1     -10.188  21.539 -34.366  1.00  0.00    -0.092 SA
BRANCH  16  17
HETATM   17  C5  UNL     1      -8.472  21.071 -34.295  1.00  0.00     0.160 A 
HETATM   18  N1  UNL     1      -7.560  21.316 -35.237  1.00  0.00    -0.331 N 
HETATM   19  C6  UNL     1      -6.364  20.809 -34.828  1.00  0.00     0.199 A 
ATOM     20  H1  UNL     1      -7.731  21.803 -36.117  1.00  0.00     0.168 HD
HETATM   21  N2  UNL     1      -6.561  20.258 -33.636  1.00  0.00    -0.294 N 
HETATM   22  N3  UNL     1      -7.850  20.418 -33.307  1.00  0.00    -0.279 N 
ATOM     23  H2  UNL     1      -5.852  19.794 -33.067  1.00  0.00     0.187 HD
ATOM     24  H3  UNL     1      -8.286  20.094 -32.445  1.00  0.00     0.189 HD
ENDBRANCH  16  17
ENDBRANCH  15  16
ENDBRANCH  14  15
ENDBRANCH   1  14
TORSDOF 6
ENDMDL
MODEL 2
REMARK VINA RESULT: -7.645657284      1.147      1.385
REMARK  6 active torsions:
REMARK  status: ('A' for Active; 'I' for Inactive)
REMARK    1  A    between atoms: O1_1  and  C1_3 
REMARK    2  A    between atoms: C1_3  and  C2_4 
REMARK    3  A    between atoms: C2_4  and  C3_7 
REMARK    4  A    between atoms: C3_7  and  C4_8 
REMARK    5  A    between atoms: C4_8  and  S1_9 
REMARK    6  A    between atoms: S1_9  and  C5_10 
ROOT
HETATM    1  C2  UNL     1     -11.782  23.748 -36.876  1.00  0.00     0.144 C 
HETATM    2 CL1  UNL     1     -11.328  24.386 -38.471  1.00  0.00    -0.098 Cl
HETATM    3 CL2  UNL     1     -13.047  22.532 -37.103  1.00  0.00    -0.098 Cl
ENDROOT
BRANCH   1   4
HETATM    4  C1  UNL     1     -12.425  24.889 -36.058  1.00  0.00     0.094 C 
HETATM    5  C7  UNL     1     -13.882  24.794 -36.233  1.00  0.00     0.041 C 
HETATM    6  C8  UNL     1     -14.754  25.459 -35.253  1.00  0.00     0.003 C 
HETATM    7  C9  UNL     1     -14.063  26.355 -34.272  1.00  0.00     0.001 C 
HETATM    8  C10 UNL     1     -13.679  25.497 -33.090  1.00  0.00     0.016 C 
HETATM    9  C11 UNL     1     -12.784  24.394 -33.614  1.00  0.00     0.061 C 
HETATM   10  S2  UNL     1     -11.701  23.946 -32.205  1.00  0.00    -0.092 SA
HETATM   11  C12 UNL     1     -11.866  24.865 -34.705  1.00  0.00     0.057 C 
BRANCH   4  12
HETATM   12  O1  UNL     1     -11.963  26.065 -36.695  1.00  0.00    -0.387 OA
ATOM     13  H1  UNL     1     -11.152  26.266 -36.243  1.00  0.00     0.210 HD
ENDBRANCH   4  12
ENDBRANCH   1   4
BRANCH   1  14
HETATM   14  C3  UNL     1     -10.573  23.214 -36.197  1.00  0.00     0.056 C 
BRANCH  14  15
HETATM   15  C4  UNL     1     -10.558  21.719 -36.063  1.00  0.00     0.085 C 
BRANCH  15  16
HETATM   16  S1  UNL     1     -10.138  21.154 -34.401  1.00  0.00    -0.092 SA
BRANCH  16  17
HETATM   17  C5  UNL     1      -8.384  20.855 -34.335  1.00  0.00     0.160 A 
HETATM   18  N1  UNL     1      -7.517  21.102 -35.318  1.00  0.00    -0.331 N 
HETATM   19  C6  UNL     1      -6.271  20.745 -34.899  1.00  0.00     0.199 A 
ATOM     20  H1  UNL     1      -7.749  21.493 -36.231  1.00  0.00     0.168 HD
HETATM   21  N2  UNL     1      -6.393  20.284 -33.659  1.00  0.00    -0.294 N 
HETATM   22  N3  UNL     1      -7.685  20.351 -33.312  1.00  0.00    -0.279 N 
ATOM     23  H2  UNL     1      -5.634  19.938 -33.072  1.00  0.00     0.187 HD
ATOM     24  H3  UNL     1      -8.073  20.063 -32.414  1.00  0.00     0.189 HD
ENDBRANCH  16  17
ENDBRANCH  15  16
ENDBRANCH  14  15
ENDBRANCH   1  14
TORSDOF 6
ENDMDL
MODEL 3
REMARK VINA RESULT: -7.382227642      2.762      3.587
REMARK  6 active torsions:
REMARK  status: ('A' for Active; 'I' for Inactive)
REMARK    1  A    between atoms: O1_1  and  C1_3 
REMARK    2  A    between atoms: C1_3  and  C2_4 
REMARK    3  A    between atoms: C2_4  and  C3_7 
REMARK    4  A    between atoms: C3_7  and  C4_8 
REMARK    5  A    between atoms: C4_8  and  S1_9 
REMARK    6  A    between atoms: S1_9  and  C5_10 
ROOT
HETATM    1  C2  UNL     1     -12.027  22.963 -37.742  1.00  0.00     0.144 C 
HETATM    2 CL1  UNL     1     -13.114  23.895 -36.690  1.00  0.00    -0.098 Cl
HETATM    3 CL2  UNL     1     -10.879  24.084 -38.487  1.00  0.00    -0.098 Cl
ENDROOT
BRANCH   1   4
HETATM    4  C1  UNL     1     -12.858  22.367 -38.898  1.00  0.00     0.094 C 
HETATM    5  C7  UNL     1     -14.202  22.074 -38.374  1.00  0.00     0.041 C 
HETATM    6  C8  UNL     1     -15.309  21.911 -39.327  1.00  0.00     0.003 C 
HETATM    7  C9  UNL     1     -14.919  21.853 -40.772  1.00  0.00     0.001 C 
HETATM    8  C10 UNL     1     -14.918  23.275 -41.282  1.00  0.00     0.016 C 
HETATM    9  C11 UNL     1     -13.932  24.051 -40.434  1.00  0.00     0.061 C 
HETATM   10  S2  UNL     1     -13.322  25.396 -41.520  1.00  0.00    -0.092 SA
HETATM   11  C12 UNL     1     -12.723  23.238 -40.067  1.00  0.00     0.057 C 
BRANCH   4  12
HETATM   12  O1  UNL     1     -12.205  21.147 -39.191  1.00  0.00    -0.387 OA
ATOM     13  H1  UNL     1     -12.841  20.484 -38.951  1.00  0.00     0.210 HD
ENDBRANCH   4  12
ENDBRANCH   1   4
BRANCH   1  14
HETATM   14  C3  UNL     1     -11.368  21.896 -36.946  1.00  0.00     0.056 C 
BRANCH  14  15
HETATM   15  C4  UNL     1     -10.299  22.396 -36.018  1.00  0.00     0.085 C 
BRANCH  15  16
HETATM   16  S1  UNL     1     -10.101  21.379 -34.540  1.00  0.00    -0.092 SA
BRANCH  16  17
HETATM   17  C5  UNL     1      -8.380  20.951 -34.379  1.00  0.00     0.160 A 
HETATM   18  N1  UNL     1      -7.452  21.095 -35.326  1.00  0.00    -0.331 N 
HETATM   19  C6  UNL     1      -6.258  20.661 -34.835  1.00  0.00     0.199 A 
ATOM     20  H1  UNL     1      -7.610  21.468 -36.262  1.00  0.00     0.168 HD
HETATM   21  N2  UNL     1      -6.472  20.256 -33.589  1.00  0.00    -0.294 N 
HETATM   22  N3  UNL     1      -7.770  20.433 -33.307  1.00  0.00    -0.279 N 
ATOM     23  H2  UNL     1      -5.770  19.876 -32.954  1.00  0.00     0.187 HD
ATOM     24  H3  UNL     1      -8.220  20.210 -32.420  1.00  0.00     0.189 HD
ENDBRANCH  16  17
ENDBRANCH  15  16
ENDBRANCH  14  15
ENDBRANCH   1  14
TORSDOF 6
ENDMDL
MODEL 4
REMARK VINA RESULT: -7.341753914      1.590      2.051
REMARK  6 active torsions:
REMARK  status: ('A' for Active; 'I' for Inactive)
REMARK    1  A    between atoms: O1_1  and  C1_3 
REMARK    2  A    between atoms: C1_3  and  C2_4 
REMARK    3  A    between atoms: C2_4  and  C3_7 
REMARK    4  A    between atoms: C3_7  and  C4_8 
REMARK    5  A    between atoms: C4_8  and  S1_9 
REMARK    6  A    between atoms: S1_9  and  C5_10 
ROOT
HETATM    1  C2  UNL     1     -11.499  23.505 -38.079  1.00  0.00     0.144 C 
HETATM    2 CL1  UNL     1     -11.259  24.970 -37.102  1.00  0.00    -0.098 Cl
HETATM    3 CL2  UNL     1     -10.681  23.730 -39.631  1.00  0.00    -0.098 Cl
ENDROOT
BRANCH   1   4
HETATM    4  C1  UNL     1     -13.004  23.374 -38.401  1.00  0.00     0.094 C 
HETATM    5  C7  UNL     1     -13.386  21.972 -38.167  1.00  0.00     0.041 C 
HETATM    6  C8  UNL     1     -14.809  21.653 -37.976  1.00  0.00     0.003 C 
HETATM    7  C9  UNL     1     -15.767  22.773 -38.246  1.00  0.00     0.001 C 
HETATM    8  C10 UNL     1     -15.939  23.524 -36.947  1.00  0.00     0.016 C 
HETATM    9  C11 UNL     1     -14.566  24.010 -36.530  1.00  0.00     0.061 C 
HETATM   10  S2  UNL     1     -14.873  25.529 -35.551  1.00  0.00    -0.092 SA
HETATM   11  C12 UNL     1     -13.726  24.436 -37.699  1.00  0.00     0.057 C 
BRANCH   4  12
HETATM   12  O1  UNL     1     -13.078  23.644 -39.787  1.00  0.00    -0.387 OA
ATOM     13  H1  UNL     1     -12.406  24.300 -39.928  1.00  0.00     0.210 HD
ENDBRANCH   4  12
ENDBRANCH   1   4
BRANCH   1  14
HETATM   14  C3  UNL     1     -11.005  22.325 -37.324  1.00  0.00     0.056 C 
BRANCH  14  15
HETATM   15  C4  UNL     1     -10.326  22.667 -36.030  1.00  0.00     0.085 C 
BRANCH  15  16
HETATM   16  S1  UNL     1     -10.268  21.289 -34.866  1.00  0.00    -0.092 SA
BRANCH  16  17
HETATM   17  C5  UNL     1      -8.562  20.913 -34.522  1.00  0.00     0.160 A 
HETATM   18  N1  UNL     1      -7.530  21.192 -35.320  1.00  0.00    -0.331 N 
HETATM   19  C6  UNL     1      -6.387  20.755 -34.721  1.00  0.00     0.199 A 
ATOM     20  H1  UNL     1      -7.588  21.654 -36.227  1.00  0.00     0.168 HD
HETATM   21  N2  UNL     1      -6.737  20.215 -33.560  1.00  0.00    -0.294 N 
HETATM   22  N3  UNL     1      -8.067  20.311 -33.436  1.00  0.00    -0.279 N 
ATOM     23  H2  UNL     1      -6.102  19.798 -32.879  1.00  0.00     0.187 HD
ATOM     24  H3  UNL     1      -8.614  19.978 -32.642  1.00  0.00     0.189 HD
ENDBRANCH  16  17
ENDBRANCH  15  16
ENDBRANCH  14  15
ENDBRANCH   1  14
TORSDOF 6
ENDMDL
MODEL 5
REMARK VINA RESULT: -7.269012892      3.271      4.108
REMARK  6 active torsions:
REMARK  status: ('A' for Active; 'I' for Inactive)
REMARK    1  A    between atoms: O1_1  and  C1_3 
REMARK    2  A    between atoms: C1_3  and  C2_4 
REMARK    3  A    between atoms: C2_4  and  C3_7 
REMARK    4  A    between atoms: C3_7  and  C4_8 
REMARK    5  A    between atoms: C4_8  and  S1_9 
REMARK    6  A    between atoms: S1_9  and  C5_10 
ROOT
HETATM    1  C2  UNL     1     -12.369  24.802 -33.444  1.00  0.00     0.144 C 
HETATM    2 CL1  UNL     1     -14.056  24.819 -32.890  1.00  0.00    -0.098 Cl
HETATM    3 CL2  UNL     1     -11.315  24.842 -32.023  1.00  0.00    -0.098 Cl
ENDROOT
BRANCH   1   4
HETATM    4  C1  UNL     1     -12.095  26.109 -34.219  1.00  0.00     0.094 C 
HETATM    5  C7  UNL     1     -11.121  26.890 -33.441  1.00  0.00     0.041 C 
HETATM    6  C8  UNL     1     -10.363  27.949 -34.123  1.00  0.00     0.003 C 
HETATM    7  C9  UNL     1     -10.809  28.273 -35.516  1.00  0.00     0.001 C 
HETATM    8  C10 UNL     1     -10.040  27.364 -36.444  1.00  0.00     0.016 C 
HETATM    9  C11 UNL     1     -10.360  25.940 -36.038  1.00  0.00     0.061 C 
HETATM   10  S2  UNL     1     -10.172  24.952 -37.570  1.00  0.00    -0.092 SA
HETATM   11  C12 UNL     1     -11.789  25.770 -35.611  1.00  0.00     0.057 C 
BRANCH   4  12
HETATM   12  O1  UNL     1     -13.340  26.780 -34.202  1.00  0.00    -0.387 OA
ATOM     13  H1  UNL     1     -13.188  27.556 -34.729  1.00  0.00     0.210 HD
ENDBRANCH   4  12
ENDBRANCH   1   4
BRANCH   1  14
HETATM   14  C3  UNL     1     -12.145  23.610 -34.303  1.00  0.00     0.056 C 
BRANCH  14  15
HETATM   15  C4  UNL     1     -11.084  22.679 -33.792  1.00  0.00     0.085 C 
BRANCH  15  16
HETATM   16  S1  UNL     1     -10.488  21.519 -35.040  1.00  0.00    -0.092 SA
BRANCH  16  17
HETATM   17  C5  UNL     1      -8.800  21.101 -34.660  1.00  0.00     0.160 A 
HETATM   18  N1  UNL     1      -7.734  21.442 -35.385  1.00  0.00    -0.331 N 
HETATM   19  C6  UNL     1      -6.619  20.944 -34.780  1.00  0.00     0.199 A 
ATOM     20  H1  UNL     1      -7.750  21.985 -36.248  1.00  0.00     0.168 HD
HETATM   21  N2  UNL     1      -7.021  20.303 -33.688  1.00  0.00    -0.294 N 
HETATM   22  N3  UNL     1      -8.355  20.398 -33.613  1.00  0.00    -0.279 N 
ATOM     23  H2  UNL     1      -6.417  19.821 -33.022  1.00  0.00     0.187 HD
ATOM     24  H3  UNL     1      -8.937  19.999 -32.877  1.00  0.00     0.189 HD
ENDBRANCH  16  17
ENDBRANCH  15  16
ENDBRANCH  14  15
ENDBRANCH   1  14
TORSDOF 6
ENDMDL
