MODEL 1
REMARK VINA RESULT: -7.605771489      0.000      0.000
REMARK  8 active torsions:
REMARK  status: ('A' for Active; 'I' for Inactive)
REMARK    1  A    between atoms: N1_1  and  C1_4 
REMARK    2  A    between atoms: C1_4  and  C2_5 
REMARK    3  A    between atoms: C1_4  and  N2_10 
REMARK    4  A    between atoms: C2_5  and  C3_6 
REMARK    5  A    between atoms: C3_6  and  C4_7 
REMARK    6  A    between atoms: C4_7  and  C5_8 
REMARK    7  A    between atoms: N2_10  and  C6_12 
REMARK    8  A    between atoms: C7_17  and  C8_18 
ROOT
HETATM    1  C6  UNL     1      -9.487  27.978 -33.316  1.00  0.00     0.166 A 
HETATM    2  N3  UNL     1      -8.680  28.182 -32.272  1.00  0.00    -0.279 N 
ATOM      3  H3  UNL     1      -8.363  27.399 -31.702  1.00  0.00     0.189 HD
HETATM    4  N4  UNL     1      -8.315  29.364 -32.003  1.00  0.00    -0.291 N 
ATOM      5  H4  UNL     1      -7.698  29.528 -31.207  1.00  0.00     0.187 HD
HETATM    6  C7  UNL     1      -8.715  30.384 -32.731  1.00  0.00     0.105 A 
HETATM    7  S2  UNL     1      -9.700  29.569 -33.900  1.00  0.00    -0.033 SA
ENDROOT
BRANCH   1   8
HETATM    8  N2  UNL     1      -9.981  26.847 -33.765  1.00  0.00    -0.325 N 
ATOM      9  H2  UNL     1      -9.556  26.411 -34.584  1.00  0.00     0.169 HD
BRANCH   8  10
HETATM   10  C1  UNL     1     -11.079  26.220 -33.148  1.00  0.00     0.076 C 
BRANCH  10  11
HETATM   11  N1  UNL     1     -10.887  25.403 -32.193  1.00  0.00    -0.389 N 
ATOM     12  H12 UNL     1     -10.664  25.753 -31.261  1.00  0.00     0.157 HD
ATOM     13  H11 UNL     1     -10.956  24.398 -32.353  1.00  0.00     0.157 HD
ENDBRANCH  10  11
BRANCH  10  14
HETATM   14  C2  UNL     1     -12.444  26.516 -33.611  1.00  0.00     0.076 C 
BRANCH  14  15
HETATM   15  C3  UNL     1     -13.407  25.795 -32.693  1.00  0.00     0.008 C 
BRANCH  15  16
HETATM   16  C4  UNL     1     -14.759  25.596 -33.338  1.00  0.00     0.011 C 
BRANCH  16  17
HETATM   17  C5  UNL     1     -14.742  26.331 -34.660  1.00  0.00     0.086 C 
HETATM   18  S1  UNL     1     -14.932  25.073 -35.971  1.00  0.00    -0.098 SA
ENDBRANCH  16  17
ENDBRANCH  15  16
ENDBRANCH  14  15
ENDBRANCH  10  14
ENDBRANCH   8  10
ENDBRANCH   1   8
BRANCH   6  19
HETATM   19  C8  UNL     1      -8.433  31.811 -32.621  1.00  0.00     0.038 A 
HETATM   20  C9  UNL     1      -7.295  32.331 -33.126  1.00  0.00     0.103 A 
HETATM   21  N5  UNL     1      -7.012  33.668 -33.033  1.00  0.00    -0.373 N 
HETATM   22  C10 UNL     1      -7.889  34.491 -32.421  1.00  0.00     0.113 A 
ATOM     23  H5  UNL     1      -6.146  34.038 -33.422  1.00  0.00     0.164 HD
HETATM   24  C11 UNL     1      -9.073  34.015 -31.884  1.00  0.00     0.072 A 
HETATM   25 CL1  UNL     1     -10.241  35.017 -31.087  1.00  0.00    -0.081 Cl
HETATM   26  C12 UNL     1      -9.326  32.651 -31.998  1.00  0.00     0.071 A 
HETATM   27 CL2  UNL     1     -10.815  32.033 -31.326  1.00  0.00    -0.081 Cl
ENDBRANCH   6  19
TORSDOF 8
ENDMDL
MODEL 2
REMARK VINA RESULT: -7.515929665      4.259      4.885
REMARK  8 active torsions:
REMARK  status: ('A' for Active; 'I' for Inactive)
REMARK    1  A    between atoms: N1_1  and  C1_4 
REMARK    2  A    between atoms: C1_4  and  C2_5 
REMARK    3  A    between atoms: C1_4  and  N2_10 
REMARK    4  A    between atoms: C2_5  and  C3_6 
REMARK    5  A    between atoms: C3_6  and  C4_7 
REMARK    6  A    between atoms: C4_7  and  C5_8 
REMARK    7  A    between atoms: N2_10  and  C6_12 
REMARK    8  A    between atoms: C7_17  and  C8_18 
ROOT
HETATM    1  C6  UNL     1     -10.473  27.098 -33.016  1.00  0.00     0.166 A 
HETATM    2  N3  UNL     1      -9.200  27.291 -32.664  1.00  0.00    -0.279 N 
ATOM      3  H3  UNL     1      -8.890  27.094 -31.713  1.00  0.00     0.189 HD
HETATM    4  N4  UNL     1      -8.384  27.723 -33.530  1.00  0.00    -0.291 N 
ATOM      5  H4  UNL     1      -7.409  27.873 -33.268  1.00  0.00     0.187 HD
HETATM    6  C7  UNL     1      -8.769  27.981 -34.760  1.00  0.00     0.105 A 
HETATM    7  S2  UNL     1     -10.447  27.567 -34.659  1.00  0.00    -0.033 SA
ENDROOT
BRANCH   1   8
HETATM    8  N2  UNL     1     -11.473  26.663 -32.284  1.00  0.00    -0.325 N 
ATOM      9  H2  UNL     1     -12.029  27.334 -31.755  1.00  0.00     0.169 HD
BRANCH   8  10
HETATM   10  C1  UNL     1     -11.796  25.295 -32.210  1.00  0.00     0.076 C 
BRANCH  10  11
HETATM   11  N1  UNL     1     -11.087  24.514 -31.501  1.00  0.00    -0.389 N 
ATOM     12  H12 UNL     1     -11.444  23.593 -31.247  1.00  0.00     0.157 HD
ATOM     13  H11 UNL     1     -10.161  24.803 -31.185  1.00  0.00     0.157 HD
ENDBRANCH  10  11
BRANCH  10  14
HETATM   14  C2  UNL     1     -12.955  24.777 -32.955  1.00  0.00     0.076 C 
BRANCH  14  15
HETATM   15  C3  UNL     1     -14.085  25.770 -32.796  1.00  0.00     0.008 C 
BRANCH  15  16
HETATM   16  C4  UNL     1     -14.720  26.119 -34.122  1.00  0.00     0.011 C 
BRANCH  16  17
HETATM   17  C5  UNL     1     -13.903  25.448 -35.205  1.00  0.00     0.086 C 
HETATM   18  S1  UNL     1     -15.083  24.833 -36.457  1.00  0.00    -0.098 SA
ENDBRANCH  16  17
ENDBRANCH  15  16
ENDBRANCH  14  15
ENDBRANCH  10  14
ENDBRANCH   8  10
ENDBRANCH   1   8
BRANCH   6  19
HETATM   19  C8  UNL     1      -8.026  28.477 -35.915  1.00  0.00     0.038 A 
HETATM   20  C9  UNL     1      -7.278  29.595 -35.826  1.00  0.00     0.103 A 
HETATM   21  N5  UNL     1      -6.573  30.075 -36.898  1.00  0.00    -0.373 N 
HETATM   22  C10 UNL     1      -6.626  29.419 -38.075  1.00  0.00     0.113 A 
ATOM     23  H5  UNL     1      -6.014  30.923 -36.807  1.00  0.00     0.164 HD
HETATM   24  C11 UNL     1      -7.377  28.266 -38.227  1.00  0.00     0.072 A 
HETATM   25 CL1  UNL     1      -7.487  27.374 -39.709  1.00  0.00    -0.081 Cl
HETATM   26  C12 UNL     1      -8.078  27.808 -37.115  1.00  0.00     0.071 A 
HETATM   27 CL2  UNL     1      -9.032  26.354 -37.287  1.00  0.00    -0.081 Cl
ENDBRANCH   6  19
TORSDOF 8
ENDMDL
MODEL 3
REMARK VINA RESULT: -7.472844818      1.245      1.294
REMARK  8 active torsions:
REMARK  status: ('A' for Active; 'I' for Inactive)
REMARK    1  A    between atoms: N1_1  and  C1_4 
REMARK    2  A    between atoms: C1_4  and  C2_5 
REMARK    3  A    between atoms: C1_4  and  N2_10 
REMARK    4  A    between atoms: C2_5  and  C3_6 
REMARK    5  A    between atoms: C3_6  and  C4_7 
REMARK    6  A    between atoms: C4_7  and  C5_8 
REMARK    7  A    between atoms: N2_10  and  C6_12 
REMARK    8  A    between atoms: C7_17  and  C8_18 
ROOT
HETATM    1  C6  UNL     1     -10.194  27.249 -33.432  1.00  0.00     0.166 A 
HETATM    2  N3  UNL     1      -9.282  27.605 -32.524  1.00  0.00    -0.279 N 
ATOM      3  H3  UNL     1      -8.982  26.948 -31.805  1.00  0.00     0.189 HD
HETATM    4  N4  UNL     1      -8.795  28.773 -32.571  1.00  0.00    -0.291 N 
ATOM      5  H4  UNL     1      -8.098  29.053 -31.881  1.00  0.00     0.187 HD
HETATM    6  C7  UNL     1      -9.171  29.632 -33.493  1.00  0.00     0.105 A 
HETATM    7  S2  UNL     1     -10.323  28.675 -34.364  1.00  0.00    -0.033 SA
ENDROOT
BRANCH   1   8
HETATM    8  N2  UNL     1     -10.820  26.102 -33.563  1.00  0.00    -0.325 N 
ATOM      9  H2  UNL     1     -10.892  25.680 -34.488  1.00  0.00     0.169 HD
BRANCH   8  10
HETATM   10  C1  UNL     1     -11.393  25.441 -32.461  1.00  0.00     0.076 C 
BRANCH  10  11
HETATM   11  N1  UNL     1     -10.727  24.558 -31.835  1.00  0.00    -0.389 N 
ATOM     12  H12 UNL     1     -11.201  23.919 -31.197  1.00  0.00     0.157 HD
ATOM     13  H11 UNL     1      -9.718  24.483 -31.968  1.00  0.00     0.157 HD
ENDBRANCH  10  11
BRANCH  10  14
HETATM   14  C2  UNL     1     -12.763  25.776 -32.038  1.00  0.00     0.076 C 
BRANCH  14  15
HETATM   15  C3  UNL     1     -13.718  25.104 -33.000  1.00  0.00     0.008 C 
BRANCH  15  16
HETATM   16  C4  UNL     1     -14.887  25.996 -33.348  1.00  0.00     0.011 C 
BRANCH  16  17
HETATM   17  C5  UNL     1     -14.737  26.393 -34.800  1.00  0.00     0.086 C 
HETATM   18  S1  UNL     1     -13.884  25.013 -35.642  1.00  0.00    -0.098 SA
ENDBRANCH  16  17
ENDBRANCH  15  16
ENDBRANCH  14  15
ENDBRANCH  10  14
ENDBRANCH   8  10
ENDBRANCH   1   8
BRANCH   6  19
HETATM   19  C8  UNL     1      -8.760  31.009 -33.748  1.00  0.00     0.038 A 
HETATM   20  C9  UNL     1      -7.804  31.287 -34.657  1.00  0.00     0.103 A 
HETATM   21  N5  UNL     1      -7.405  32.573 -34.910  1.00  0.00    -0.373 N 
HETATM   22  C10 UNL     1      -7.978  33.591 -34.235  1.00  0.00     0.113 A 
ATOM     23  H5  UNL     1      -6.680  32.759 -35.603  1.00  0.00     0.164 HD
HETATM   24  C11 UNL     1      -8.964  33.367 -33.290  1.00  0.00     0.072 A 
HETATM   25 CL1  UNL     1      -9.742  34.627 -32.390  1.00  0.00    -0.081 Cl
HETATM   26  C12 UNL     1      -9.344  32.047 -33.061  1.00  0.00     0.071 A 
HETATM   27 CL2  UNL     1     -10.588  31.745 -31.871  1.00  0.00    -0.081 Cl
ENDBRANCH   6  19
TORSDOF 8
ENDMDL
MODEL 4
REMARK VINA RESULT: -7.201270719      3.745      4.488
REMARK  8 active torsions:
REMARK  status: ('A' for Active; 'I' for Inactive)
REMARK    1  A    between atoms: N1_1  and  C1_4 
REMARK    2  A    between atoms: C1_4  and  C2_5 
REMARK    3  A    between atoms: C1_4  and  N2_10 
REMARK    4  A    between atoms: C2_5  and  C3_6 
REMARK    5  A    between atoms: C3_6  and  C4_7 
REMARK    6  A    between atoms: C4_7  and  C5_8 
REMARK    7  A    between atoms: N2_10  and  C6_12 
REMARK    8  A    between atoms: C7_17  and  C8_18 
ROOT
HETATM    1  C6  UNL     1     -10.557  27.037 -33.029  1.00  0.00     0.166 A 
HETATM    2  N3  UNL     1      -9.302  27.366 -32.712  1.00  0.00    -0.279 N 
ATOM      3  H3  UNL     1      -8.984  27.321 -31.744  1.00  0.00     0.189 HD
HETATM    4  N4  UNL     1      -8.514  27.733 -33.632  1.00  0.00    -0.291 N 
ATOM      5  H4  UNL     1      -7.555  27.987 -33.397  1.00  0.00     0.187 HD
HETATM    6  C7  UNL     1      -8.910  27.794 -34.884  1.00  0.00     0.105 A 
HETATM    7  S2  UNL     1     -10.556  27.279 -34.720  1.00  0.00    -0.033 SA
ENDROOT
BRANCH   1   8
HETATM    8  N2  UNL     1     -11.526  26.634 -32.240  1.00  0.00    -0.325 N 
ATOM      9  H2  UNL     1     -12.021  27.321 -31.672  1.00  0.00     0.169 HD
BRANCH   8  10
HETATM   10  C1  UNL     1     -11.901  25.280 -32.158  1.00  0.00     0.076 C 
BRANCH  10  11
HETATM   11  N1  UNL     1     -11.245  24.486 -31.413  1.00  0.00    -0.389 N 
ATOM     12  H12 UNL     1     -11.722  23.978 -30.668  1.00  0.00     0.157 HD
ATOM     13  H11 UNL     1     -10.244  24.353 -31.556  1.00  0.00     0.157 HD
ENDBRANCH  10  11
BRANCH  10  14
HETATM   14  C2  UNL     1     -13.050  24.791 -32.936  1.00  0.00     0.076 C 
BRANCH  14  15
HETATM   15  C3  UNL     1     -14.159  25.812 -32.809  1.00  0.00     0.008 C 
BRANCH  15  16
HETATM   16  C4  UNL     1     -14.749  26.174 -34.152  1.00  0.00     0.011 C 
BRANCH  16  17
HETATM   17  C5  UNL     1     -13.921  25.480 -35.211  1.00  0.00     0.086 C 
HETATM   18  S1  UNL     1     -15.092  24.769 -36.420  1.00  0.00    -0.098 SA
ENDBRANCH  16  17
ENDBRANCH  15  16
ENDBRANCH  14  15
ENDBRANCH  10  14
ENDBRANCH   8  10
ENDBRANCH   1   8
BRANCH   6  19
HETATM   19  C8  UNL     1      -8.199  28.180 -36.099  1.00  0.00     0.038 A 
HETATM   20  C9  UNL     1      -8.224  27.393 -37.193  1.00  0.00     0.103 A 
HETATM   21  N5  UNL     1      -7.562  27.738 -38.342  1.00  0.00    -0.373 N 
HETATM   22  C10 UNL     1      -6.866  28.893 -38.386  1.00  0.00     0.113 A 
ATOM     23  H5  UNL     1      -7.596  27.127 -39.158  1.00  0.00     0.164 HD
HETATM   24  C11 UNL     1      -6.803  29.741 -37.294  1.00  0.00     0.072 A 
HETATM   25 CL1  UNL     1      -5.928  31.237 -37.283  1.00  0.00    -0.081 Cl
HETATM   26  C12 UNL     1      -7.488  29.357 -36.145  1.00  0.00     0.071 A 
HETATM   27 CL2  UNL     1      -7.420  30.415 -34.756  1.00  0.00    -0.081 Cl
ENDBRANCH   6  19
TORSDOF 8
ENDMDL
MODEL 5
REMARK VINA RESULT: -7.195565432      2.631      3.584
REMARK  8 active torsions:
REMARK  status: ('A' for Active; 'I' for Inactive)
REMARK    1  A    between atoms: N1_1  and  C1_4 
REMARK    2  A    between atoms: C1_4  and  C2_5 
REMARK    3  A    between atoms: C1_4  and  N2_10 
REMARK    4  A    between atoms: C2_5  and  C3_6 
REMARK    5  A    between atoms: C3_6  and  C4_7 
REMARK    6  A    between atoms: C4_7  and  C5_8 
REMARK    7  A    between atoms: N2_10  and  C6_12 
REMARK    8  A    between atoms: C7_17  and  C8_18 
ROOT
HETATM    1  C6  UNL     1     -11.622  26.196 -33.443  1.00  0.00     0.166 A 
HETATM    2  N3  UNL     1     -10.605  26.349 -32.592  1.00  0.00    -0.279 N 
ATOM      3  H3  UNL     1     -10.545  25.779 -31.749  1.00  0.00     0.189 HD
HETATM    4  N4  UNL     1      -9.716  27.213 -32.850  1.00  0.00    -0.291 N 
ATOM      5  H4  UNL     1      -8.936  27.335 -32.204  1.00  0.00     0.187 HD
HETATM    6  C7  UNL     1      -9.779  27.954 -33.934  1.00  0.00     0.105 A 
HETATM    7  S2  UNL     1     -11.243  27.356 -34.640  1.00  0.00    -0.033 SA
ENDROOT
BRANCH   1   8
HETATM    8  N2  UNL     1     -12.640  25.370 -33.370  1.00  0.00    -0.325 N 
ATOM      9  H2  UNL     1     -12.614  24.611 -32.689  1.00  0.00     0.169 HD
BRANCH   8  10
HETATM   10  C1  UNL     1     -13.765  25.504 -34.204  1.00  0.00     0.076 C 
BRANCH  10  11
HETATM   11  N1  UNL     1     -14.771  26.173 -33.808  1.00  0.00    -0.389 N 
ATOM     12  H12 UNL     1     -14.702  27.186 -33.709  1.00  0.00     0.157 HD
ATOM     13  H11 UNL     1     -15.649  25.703 -33.588  1.00  0.00     0.157 HD
ENDBRANCH  10  11
BRANCH  10  14
HETATM   14  C2  UNL     1     -13.771  24.870 -35.532  1.00  0.00     0.076 C 
BRANCH  14  15
HETATM   15  C3  UNL     1     -15.134  25.102 -36.146  1.00  0.00     0.008 C 
BRANCH  15  16
HETATM   16  C4  UNL     1     -15.667  23.858 -36.820  1.00  0.00     0.011 C 
BRANCH  16  17
HETATM   17  C5  UNL     1     -14.496  23.167 -37.485  1.00  0.00     0.086 C 
HETATM   18  S1  UNL     1     -15.193  21.963 -38.670  1.00  0.00    -0.098 SA
ENDBRANCH  16  17
ENDBRANCH  15  16
ENDBRANCH  14  15
ENDBRANCH  10  14
ENDBRANCH   8  10
ENDBRANCH   1   8
BRANCH   6  19
HETATM   19  C8  UNL     1      -8.889  28.995 -34.438  1.00  0.00     0.038 A 
HETATM   20  C9  UNL     1      -8.015  28.735 -35.432  1.00  0.00     0.103 A 
HETATM   21  N5  UNL     1      -7.173  29.699 -35.918  1.00  0.00    -0.373 N 
HETATM   22  C10 UNL     1      -7.212  30.942 -35.394  1.00  0.00     0.113 A 
ATOM     23  H5  UNL     1      -6.520  29.479 -36.671  1.00  0.00     0.164 HD
HETATM   24  C11 UNL     1      -8.088  31.268 -34.373  1.00  0.00     0.072 A 
HETATM   25 CL1  UNL     1      -8.191  32.842 -33.657  1.00  0.00    -0.081 Cl
HETATM   26  C12 UNL     1      -8.929  30.262 -33.905  1.00  0.00     0.071 A 
HETATM   27 CL2  UNL     1     -10.041  30.655 -32.616  1.00  0.00    -0.081 Cl
ENDBRANCH   6  19
TORSDOF 8
ENDMDL
