MODEL 1
REMARK VINA RESULT: -7.412178054      0.000      0.000
REMARK  7 active torsions:
REMARK  status: ('A' for Active; 'I' for Inactive)
REMARK    1  A    between atoms: C2_2  and  O1_3 
REMARK    2  A    between atoms: O1_3  and  C3_4 
REMARK    3  A    between atoms: C3_4  and  C4_6 
REMARK    4  A    between atoms: C5_7  and  N1_8 
REMARK    5  A    between atoms: N1_8  and  C6_10 
REMARK    6  A    between atoms: C9_13  and  O3_14 
REMARK    7  A    between atoms: C13_19  and  N2_20 
ROOT
HETATM    1  C4  UNL     1      -9.309  26.616 -36.970  1.00  0.00     0.089 A 
HETATM    2  C5  UNL     1      -9.710  26.910 -35.700  1.00  0.00     0.048 A 
HETATM    3  C12 UNL     1      -9.165  28.029 -35.034  1.00  0.00     0.061 A 
HETATM    4  C13 UNL     1      -8.242  28.824 -35.643  1.00  0.00     0.053 A 
HETATM    5  C15 UNL     1      -7.814  28.548 -36.936  1.00  0.00     0.083 A 
HETATM    6 CL1  UNL     1      -6.625  29.590 -37.685  1.00  0.00    -0.080 Cl
HETATM    7  C16 UNL     1      -8.352  27.455 -37.571  1.00  0.00     0.076 A 
HETATM    8 CL2  UNL     1      -7.833  27.085 -39.194  1.00  0.00    -0.081 Cl
ENDROOT
BRANCH   2   9
HETATM    9  N1  UNL     1     -10.623  26.107 -34.979  1.00  0.00    -0.384 N 
ATOM     10  H1  UNL     1     -10.533  25.092 -35.036  1.00  0.00     0.160 HD
BRANCH   9  11
HETATM   11  C6  UNL     1     -11.696  26.672 -34.152  1.00  0.00     0.082 C 
HETATM   12  C7  UNL     1     -11.740  25.971 -32.803  1.00  0.00     0.027 C 
HETATM   13  C8  UNL     1     -12.467  24.664 -32.835  1.00  0.00     0.034 C 
HETATM   14  C9  UNL     1     -13.930  25.033 -33.131  1.00  0.00     0.118 C 
HETATM   15  C10 UNL     1     -13.939  25.547 -34.529  1.00  0.00     0.034 C 
HETATM   16  C11 UNL     1     -13.025  26.673 -34.829  1.00  0.00     0.027 C 
BRANCH  14  17
HETATM   17  O3  UNL     1     -14.359  26.020 -32.232  1.00  0.00    -0.396 OA
ATOM     18  H3  UNL     1     -14.370  25.665 -31.350  1.00  0.00     0.210 HD
ENDBRANCH  14  17
ENDBRANCH   9  11
ENDBRANCH   2   9
BRANCH   1  19
HETATM   19  C3  UNL     1      -9.822  25.518 -37.748  1.00  0.00     0.297 C 
HETATM   20  O2  UNL     1      -9.158  24.585 -38.219  1.00  0.00    -0.259 OA
BRANCH  19  21
HETATM   21  O1  UNL     1     -11.190  25.412 -38.050  1.00  0.00    -0.318 OA
BRANCH  21  22
HETATM   22  C2  UNL     1     -11.844  24.178 -38.235  1.00  0.00     0.174 C 
HETATM   23  C1  UNL     1     -12.213  23.489 -36.967  1.00  0.00     0.034 C 
ENDBRANCH  21  22
ENDBRANCH  19  21
ENDBRANCH   1  19
BRANCH   4  24
HETATM   24  N2  UNL     1      -7.683  29.957 -34.985  1.00  0.00    -0.393 N 
HETATM   25  C14 UNL     1      -8.542  30.739 -34.131  1.00  0.00     0.146 C 
ATOM     26  H2  UNL     1      -6.703  30.208 -35.115  1.00  0.00     0.159 HD
ENDBRANCH   4  24
TORSDOF 7
ENDMDL
MODEL 2
REMARK VINA RESULT: -7.397283873      2.690      4.943
REMARK  7 active torsions:
REMARK  status: ('A' for Active; 'I' for Inactive)
REMARK    1  A    between atoms: C2_2  and  O1_3 
REMARK    2  A    between atoms: O1_3  and  C3_4 
REMARK    3  A    between atoms: C3_4  and  C4_6 
REMARK    4  A    between atoms: C5_7  and  N1_8 
REMARK    5  A    between atoms: N1_8  and  C6_10 
REMARK    6  A    between atoms: C9_13  and  O3_14 
REMARK    7  A    between atoms: C13_19  and  N2_20 
ROOT
HETATM    1  C4  UNL     1     -11.525  26.248 -35.140  1.00  0.00     0.089 A 
HETATM    2  C5  UNL     1     -11.559  25.352 -36.167  1.00  0.00     0.048 A 
HETATM    3  C12 UNL     1     -10.546  25.374 -37.150  1.00  0.00     0.061 A 
HETATM    4  C13 UNL     1      -9.530  26.279 -37.087  1.00  0.00     0.053 A 
HETATM    5  C15 UNL     1      -9.471  27.205 -36.052  1.00  0.00     0.083 A 
HETATM    6 CL1  UNL     1      -8.153  28.354 -36.006  1.00  0.00    -0.080 Cl
HETATM    7  C16 UNL     1     -10.464  27.172 -35.104  1.00  0.00     0.076 A 
HETATM    8 CL2  UNL     1     -10.416  28.323 -33.795  1.00  0.00    -0.081 Cl
ENDROOT
BRANCH   2   9
HETATM    9  N1  UNL     1     -12.605  24.415 -36.334  1.00  0.00    -0.384 N 
ATOM     10  H1  UNL     1     -12.985  23.954 -35.507  1.00  0.00     0.160 HD
BRANCH   9  11
HETATM   11  C6  UNL     1     -13.167  24.079 -37.647  1.00  0.00     0.082 C 
HETATM   12  C7  UNL     1     -14.621  24.519 -37.722  1.00  0.00     0.027 C 
HETATM   13  C8  UNL     1     -15.568  23.557 -37.080  1.00  0.00     0.034 C 
HETATM   14  C9  UNL     1     -15.499  22.293 -37.954  1.00  0.00     0.118 C 
HETATM   15  C10 UNL     1     -14.134  21.734 -37.743  1.00  0.00     0.034 C 
HETATM   16  C11 UNL     1     -12.996  22.643 -38.012  1.00  0.00     0.027 C 
BRANCH  14  17
HETATM   17  O3  UNL     1     -15.697  22.637 -39.299  1.00  0.00    -0.396 OA
ATOM     18  H3  UNL     1     -15.895  21.857 -39.803  1.00  0.00     0.210 HD
ENDBRANCH  14  17
ENDBRANCH   9  11
ENDBRANCH   2   9
BRANCH   1  19
HETATM   19  C3  UNL     1     -12.491  26.292 -34.071  1.00  0.00     0.297 C 
HETATM   20  O2  UNL     1     -13.706  26.494 -34.195  1.00  0.00    -0.259 OA
BRANCH  19  21
HETATM   21  O1  UNL     1     -12.109  26.099 -32.733  1.00  0.00    -0.318 OA
BRANCH  21  22
HETATM   22  C2  UNL     1     -11.414  24.958 -32.289  1.00  0.00     0.174 C 
HETATM   23  C1  UNL     1     -12.081  23.668 -32.624  1.00  0.00     0.034 C 
ENDBRANCH  21  22
ENDBRANCH  19  21
ENDBRANCH   1  19
BRANCH   4  24
HETATM   24  N2  UNL     1      -8.500  26.314 -38.071  1.00  0.00    -0.393 N 
HETATM   25  C14 UNL     1      -8.725  25.621 -39.315  1.00  0.00     0.146 C 
ATOM     26  H2  UNL     1      -7.628  26.814 -37.899  1.00  0.00     0.159 HD
ENDBRANCH   4  24
TORSDOF 7
ENDMDL
MODEL 3
REMARK VINA RESULT: -7.344540021      2.787      5.055
REMARK  7 active torsions:
REMARK  status: ('A' for Active; 'I' for Inactive)
REMARK    1  A    between atoms: C2_2  and  O1_3 
REMARK    2  A    between atoms: O1_3  and  C3_4 
REMARK    3  A    between atoms: C3_4  and  C4_6 
REMARK    4  A    between atoms: C5_7  and  N1_8 
REMARK    5  A    between atoms: N1_8  and  C6_10 
REMARK    6  A    between atoms: C9_13  and  O3_14 
REMARK    7  A    between atoms: C13_19  and  N2_20 
ROOT
HETATM    1  C4  UNL     1     -11.630  25.735 -34.776  1.00  0.00     0.089 A 
HETATM    2  C5  UNL     1     -11.726  25.098 -35.978  1.00  0.00     0.048 A 
HETATM    3  C12 UNL     1     -10.848  25.446 -37.027  1.00  0.00     0.061 A 
HETATM    4  C13 UNL     1      -9.902  26.412 -36.857  1.00  0.00     0.053 A 
HETATM    5  C15 UNL     1      -9.782  27.078 -35.643  1.00  0.00     0.083 A 
HETATM    6 CL1  UNL     1      -8.557  28.314 -35.462  1.00  0.00    -0.080 Cl
HETATM    7  C16 UNL     1     -10.644  26.729 -34.632  1.00  0.00     0.076 A 
HETATM    8 CL2  UNL     1     -10.516  27.549 -33.098  1.00  0.00    -0.081 Cl
ENDROOT
BRANCH   2   9
HETATM    9  N1  UNL     1     -12.712  24.123 -36.253  1.00  0.00    -0.384 N 
ATOM     10  H1  UNL     1     -13.101  23.590 -35.476  1.00  0.00     0.160 HD
BRANCH   9  11
HETATM   11  C6  UNL     1     -13.198  23.847 -37.610  1.00  0.00     0.082 C 
HETATM   12  C7  UNL     1     -14.594  24.422 -37.792  1.00  0.00     0.027 C 
HETATM   13  C8  UNL     1     -15.674  23.549 -37.238  1.00  0.00     0.034 C 
HETATM   14  C9  UNL     1     -15.653  22.288 -38.119  1.00  0.00     0.118 C 
HETATM   15  C10 UNL     1     -14.367  21.603 -37.809  1.00  0.00     0.034 C 
HETATM   16  C11 UNL     1     -13.132  22.403 -37.977  1.00  0.00     0.027 C 
BRANCH  14  17
HETATM   17  O3  UNL     1     -15.713  22.656 -39.470  1.00  0.00    -0.396 OA
ATOM     18  H3  UNL     1     -15.313  23.510 -39.586  1.00  0.00     0.210 HD
ENDBRANCH  14  17
ENDBRANCH   9  11
ENDBRANCH   2   9
BRANCH   1  19
HETATM   19  C3  UNL     1     -12.454  25.436 -33.633  1.00  0.00     0.297 C 
HETATM   20  O2  UNL     1     -12.303  24.485 -32.855  1.00  0.00    -0.259 OA
BRANCH  19  21
HETATM   21  O1  UNL     1     -13.552  26.244 -33.292  1.00  0.00    -0.318 OA
BRANCH  21  22
HETATM   22  C2  UNL     1     -14.828  26.089 -33.867  1.00  0.00     0.174 C 
HETATM   23  C1  UNL     1     -15.066  26.947 -35.061  1.00  0.00     0.034 C 
ENDBRANCH  21  22
ENDBRANCH  19  21
ENDBRANCH   1  19
BRANCH   4  24
HETATM   24  N2  UNL     1      -9.009  26.774 -37.906  1.00  0.00    -0.393 N 
HETATM   25  C14 UNL     1      -8.744  25.804 -38.938  1.00  0.00     0.146 C 
ATOM     26  H2  UNL     1      -8.570  27.695 -37.926  1.00  0.00     0.159 HD
ENDBRANCH   4  24
TORSDOF 7
ENDMDL
MODEL 4
REMARK VINA RESULT: -7.317422570      0.770      1.041
REMARK  7 active torsions:
REMARK  status: ('A' for Active; 'I' for Inactive)
REMARK    1  A    between atoms: C2_2  and  O1_3 
REMARK    2  A    between atoms: O1_3  and  C3_4 
REMARK    3  A    between atoms: C3_4  and  C4_6 
REMARK    4  A    between atoms: C5_7  and  N1_8 
REMARK    5  A    between atoms: N1_8  and  C6_10 
REMARK    6  A    between atoms: C9_13  and  O3_14 
REMARK    7  A    between atoms: C13_19  and  N2_20 
ROOT
HETATM    1  C4  UNL     1      -9.310  26.527 -36.895  1.00  0.00     0.089 A 
HETATM    2  C5  UNL     1      -9.724  26.863 -35.639  1.00  0.00     0.048 A 
HETATM    3  C12 UNL     1      -9.198  28.014 -35.013  1.00  0.00     0.061 A 
HETATM    4  C13 UNL     1      -8.282  28.798 -35.646  1.00  0.00     0.053 A 
HETATM    5  C15 UNL     1      -7.842  28.480 -36.925  1.00  0.00     0.083 A 
HETATM    6 CL1  UNL     1      -6.663  29.510 -37.706  1.00  0.00    -0.080 Cl
HETATM    7  C16 UNL     1      -8.361  27.357 -37.522  1.00  0.00     0.076 A 
HETATM    8 CL2  UNL     1      -7.827  26.933 -39.126  1.00  0.00    -0.081 Cl
ENDROOT
BRANCH   2   9
HETATM    9  N1  UNL     1     -10.630  26.074 -34.894  1.00  0.00    -0.384 N 
ATOM     10  H1  UNL     1     -10.515  25.061 -34.899  1.00  0.00     0.160 HD
BRANCH   9  11
HETATM   11  C6  UNL     1     -11.731  26.654 -34.115  1.00  0.00     0.082 C 
HETATM   12  C7  UNL     1     -11.827  25.970 -32.760  1.00  0.00     0.027 C 
HETATM   13  C8  UNL     1     -12.557  24.666 -32.802  1.00  0.00     0.034 C 
HETATM   14  C9  UNL     1     -14.007  25.036 -33.156  1.00  0.00     0.118 C 
HETATM   15  C10 UNL     1     -13.963  25.531 -34.560  1.00  0.00     0.034 C 
HETATM   16  C11 UNL     1     -13.034  26.650 -34.840  1.00  0.00     0.027 C 
BRANCH  14  17
HETATM   17  O3  UNL     1     -14.465  26.035 -32.285  1.00  0.00    -0.396 OA
ATOM     18  H3  UNL     1     -14.075  26.868 -32.523  1.00  0.00     0.210 HD
ENDBRANCH  14  17
ENDBRANCH   9  11
ENDBRANCH   2   9
BRANCH   1  19
HETATM   19  C3  UNL     1      -9.804  25.394 -37.635  1.00  0.00     0.297 C 
HETATM   20  O2  UNL     1      -9.365  24.238 -37.575  1.00  0.00    -0.259 OA
BRANCH  19  21
HETATM   21  O1  UNL     1     -10.880  25.517 -38.530  1.00  0.00    -0.318 OA
BRANCH  21  22
HETATM   22  C2  UNL     1     -11.078  24.645 -39.619  1.00  0.00     0.174 C 
HETATM   23  C1  UNL     1     -10.496  25.130 -40.902  1.00  0.00     0.034 C 
ENDBRANCH  21  22
ENDBRANCH  19  21
ENDBRANCH   1  19
BRANCH   4  24
HETATM   24  N2  UNL     1      -7.743  29.963 -35.027  1.00  0.00    -0.393 N 
HETATM   25  C14 UNL     1      -8.587  30.705 -34.125  1.00  0.00     0.146 C 
ATOM     26  H2  UNL     1      -6.787  30.262 -35.218  1.00  0.00     0.159 HD
ENDBRANCH   4  24
TORSDOF 7
ENDMDL
MODEL 5
REMARK VINA RESULT: -7.195020811      2.751      4.989
REMARK  7 active torsions:
REMARK  status: ('A' for Active; 'I' for Inactive)
REMARK    1  A    between atoms: C2_2  and  O1_3 
REMARK    2  A    between atoms: O1_3  and  C3_4 
REMARK    3  A    between atoms: C3_4  and  C4_6 
REMARK    4  A    between atoms: C5_7  and  N1_8 
REMARK    5  A    between atoms: N1_8  and  C6_10 
REMARK    6  A    between atoms: C9_13  and  O3_14 
REMARK    7  A    between atoms: C13_19  and  N2_20 
ROOT
HETATM    1  C4  UNL     1     -11.497  25.888 -34.709  1.00  0.00     0.089 A 
HETATM    2  C5  UNL     1     -10.991  26.155 -35.946  1.00  0.00     0.048 A 
HETATM    3  C12 UNL     1     -10.034  27.182 -36.105  1.00  0.00     0.061 A 
HETATM    4  C13 UNL     1      -9.607  27.911 -35.037  1.00  0.00     0.053 A 
HETATM    5  C15 UNL     1     -10.106  27.661 -33.764  1.00  0.00     0.083 A 
HETATM    6 CL1  UNL     1      -9.534  28.618 -32.417  1.00  0.00    -0.080 Cl
HETATM    7  C16 UNL     1     -11.037  26.660 -33.626  1.00  0.00     0.076 A 
HETATM    8 CL2  UNL     1     -11.681  26.325 -32.040  1.00  0.00    -0.081 Cl
ENDROOT
BRANCH   2   9
HETATM    9  N1  UNL     1     -11.420  25.482 -37.113  1.00  0.00    -0.384 N 
ATOM     10  H1  UNL     1     -12.303  25.760 -37.541  1.00  0.00     0.160 HD
BRANCH   9  11
HETATM   11  C6  UNL     1     -10.648  24.398 -37.733  1.00  0.00     0.082 C 
HETATM   12  C7  UNL     1     -11.291  23.984 -39.047  1.00  0.00     0.027 C 
HETATM   13  C8  UNL     1     -12.446  23.050 -38.876  1.00  0.00     0.034 C 
HETATM   14  C9  UNL     1     -11.828  21.756 -38.320  1.00  0.00     0.118 C 
HETATM   15  C10 UNL     1     -11.361  22.093 -36.946  1.00  0.00     0.034 C 
HETATM   16  C11 UNL     1     -10.427  23.236 -36.824  1.00  0.00     0.027 C 
BRANCH  14  17
HETATM   17  O3  UNL     1     -10.756  21.359 -39.131  1.00  0.00    -0.396 OA
ATOM     18  H3  UNL     1     -10.450  22.100 -39.641  1.00  0.00     0.210 HD
ENDBRANCH  14  17
ENDBRANCH   9  11
ENDBRANCH   2   9
BRANCH   1  19
HETATM   19  C3  UNL     1     -12.453  24.846 -34.432  1.00  0.00     0.297 C 
HETATM   20  O2  UNL     1     -12.213  23.766 -33.877  1.00  0.00    -0.259 OA
BRANCH  19  21
HETATM   21  O1  UNL     1     -13.805  24.980 -34.790  1.00  0.00    -0.318 OA
BRANCH  21  22
HETATM   22  C2  UNL     1     -14.646  25.978 -34.258  1.00  0.00     0.174 C 
HETATM   23  C1  UNL     1     -15.074  25.729 -32.853  1.00  0.00     0.034 C 
ENDBRANCH  21  22
ENDBRANCH  19  21
ENDBRANCH   1  19
BRANCH   4  24
HETATM   24  N2  UNL     1      -8.641  28.948 -35.181  1.00  0.00    -0.393 N 
HETATM   25  C14 UNL     1      -7.632  28.801 -36.199  1.00  0.00     0.146 C 
ATOM     26  H2  UNL     1      -8.665  29.773 -34.581  1.00  0.00     0.159 HD
ENDBRANCH   4  24
TORSDOF 7
ENDMDL
