MODEL 1
REMARK VINA RESULT: -7.368279978      0.000      0.000
REMARK  16 active torsions:
REMARK  status: ('A' for Active; 'I' for Inactive)
REMARK    1  A    between atoms: C2_2  and  C3_3 
REMARK    2  A    between atoms: C6_7  and  O2_8 
REMARK    3  A    between atoms: O2_8  and  C7_9 
REMARK    4  A    between atoms: C10_13  and  O4_14 
REMARK    5  A    between atoms: O4_14  and  C11_15 
REMARK    6  A    between atoms: C11_15  and  C13_17 
REMARK    7  A    between atoms: C13_17  and  S1_18 
REMARK    8  A    between atoms: S1_18  and  C14_19 
REMARK    9  A    between atoms: C16_22  and  O6_23 
REMARK   10  A    between atoms: C17_25  and  O7_26 
REMARK   11  A    between atoms: C18_28  and  O8_29 
REMARK   12  A    between atoms: C19_31  and  O9_32 
REMARK   13  A    between atoms: C19_31  and  C20_34 
REMARK   14  A    between atoms: C20_34  and  O10_35 
REMARK   15  A    between atoms: C21_37  and  O11_38 
REMARK   16  A    between atoms: C22_40  and  O12_41 
ROOT
HETATM    1  C7  UNL     1     222.735 -64.075  -3.919  1.00  0.00     0.195 C 
HETATM    2  C8  UNL     1     222.286 -63.707  -2.529  1.00  0.00     0.153 C 
HETATM    3  C9  UNL     1     222.387 -64.817  -1.537  1.00  0.00     0.042 C 
HETATM    4  O3  UNL     1     223.133 -62.689  -2.104  1.00  0.00    -0.350 OA
HETATM    5  C10 UNL     1     224.374 -62.954  -2.660  1.00  0.00     0.305 C 
HETATM    6  C19 UNL     1     224.177 -63.694  -3.949  1.00  0.00     0.157 C 
ENDROOT
BRANCH   5   7
HETATM    7  O4  UNL     1     225.084 -61.767  -2.801  1.00  0.00    -0.321 OA
BRANCH   7   8
HETATM    8  C11 UNL     1     226.204 -61.536  -1.973  1.00  0.00     0.050 C 
HETATM    9  C12 UNL     1     226.808 -62.606  -1.496  1.00  0.00     0.047 C 
BRANCH   8  10
HETATM   10  C13 UNL     1     226.664 -60.182  -1.661  1.00  0.00     0.140 C 
BRANCH  10  11
HETATM   11  S1  UNL     1     225.669 -59.321  -0.472  1.00  0.00    -0.128 SA
BRANCH  11  12
HETATM   12  C14 UNL     1     224.265 -60.232   0.181  1.00  0.00     0.214 C 
HETATM   13  O5  UNL     1     224.295 -60.348   1.523  1.00  0.00    -0.370 OA
HETATM   14  C15 UNL     1     223.090 -60.151   2.182  1.00  0.00     0.203 C 
HETATM   15  C16 UNL     1     222.024 -60.934   1.446  1.00  0.00     0.173 C 
HETATM   16  C17 UNL     1     221.760 -60.213   0.144  1.00  0.00     0.181 C 
HETATM   17  C18 UNL     1     223.015 -59.543  -0.347  1.00  0.00     0.188 C 
BRANCH  15  18
HETATM   18  O6  UNL     1     220.861 -60.979   2.239  1.00  0.00    -0.391 OA
ATOM     19  H6  UNL     1     220.968 -60.389   2.977  1.00  0.00     0.210 HD
ENDBRANCH  15  18
BRANCH  16  20
HETATM   20  O7  UNL     1     221.227 -61.065  -0.831  1.00  0.00    -0.390 OA
ATOM     21  H7  UNL     1     221.795 -61.141  -1.588  1.00  0.00     0.210 HD
ENDBRANCH  16  20
BRANCH  17  22
HETATM   22  O8  UNL     1     223.044 -59.661  -1.735  1.00  0.00    -0.389 OA
ATOM     23  H8  UNL     1     222.601 -58.897  -2.087  1.00  0.00     0.210 HD
ENDBRANCH  17  22
ENDBRANCH  11  12
ENDBRANCH  10  11
ENDBRANCH   8  10
ENDBRANCH   7   8
ENDBRANCH   5   7
BRANCH   6  24
HETATM   24  O9  UNL     1     224.455 -62.806  -5.008  1.00  0.00    -0.380 OA
ATOM     25  H9  UNL     1     223.684 -62.645  -5.540  1.00  0.00     0.211 HD
ENDBRANCH   6  24
BRANCH   6  26
HETATM   26  C20 UNL     1     225.109 -64.867  -4.135  1.00  0.00     0.210 C 
BRANCH  26  27
HETATM   27  O10 UNL     1     226.338 -64.520  -4.652  1.00  0.00    -0.398 OA
ATOM     28  H10 UNL     1     226.801 -65.246  -5.054  1.00  0.00     0.209 HD
ENDBRANCH  26  27
ENDBRANCH   6  26
BRANCH   1  29
HETATM   29  O2  UNL     1     222.476 -65.400  -4.154  1.00  0.00    -0.347 OA
BRANCH  29  30
HETATM   30  C6  UNL     1     221.257 -65.640  -4.753  1.00  0.00     0.291 C 
HETATM   31  O1  UNL     1     221.272 -65.524  -6.124  1.00  0.00    -0.357 OA
HETATM   32  C5  UNL     1     221.937 -66.463  -6.831  1.00  0.00     0.186 C 
HETATM   33  C3  UNL     1     222.082 -67.826  -6.236  1.00  0.00     0.023 C 
HETATM   34  C4  UNL     1     223.541 -68.072  -5.830  1.00  0.00     0.024 C 
HETATM   35  C22 UNL     1     221.170 -68.108  -5.083  1.00  0.00     0.165 C 
HETATM   36  C21 UNL     1     220.598 -66.924  -4.395  1.00  0.00     0.203 C 
BRANCH  33  37
HETATM   37  C2  UNL     1     221.760 -68.815  -7.298  1.00  0.00    -0.023 C 
HETATM   38  C1  UNL     1     222.674 -69.603  -7.832  1.00  0.00     0.008 C 
ENDBRANCH  33  37
BRANCH  35  39
HETATM   39  O12 UNL     1     220.119 -68.979  -5.459  1.00  0.00    -0.392 OA
ATOM     40  H12 UNL     1     220.428 -69.662  -6.043  1.00  0.00     0.210 HD
ENDBRANCH  35  39
BRANCH  36  41
HETATM   41  O11 UNL     1     220.531 -67.190  -3.036  1.00  0.00    -0.388 OA
ATOM     42  H11 UNL     1     220.907 -68.021  -2.770  1.00  0.00     0.210 HD
ENDBRANCH  36  41
ENDBRANCH  29  30
ENDBRANCH   1  29
TORSDOF 16
ENDMDL
MODEL 2
REMARK VINA RESULT: -7.213395851      2.973      9.651
REMARK  16 active torsions:
REMARK  status: ('A' for Active; 'I' for Inactive)
REMARK    1  A    between atoms: C2_2  and  C3_3 
REMARK    2  A    between atoms: C6_7  and  O2_8 
REMARK    3  A    between atoms: O2_8  and  C7_9 
REMARK    4  A    between atoms: C10_13  and  O4_14 
REMARK    5  A    between atoms: O4_14  and  C11_15 
REMARK    6  A    between atoms: C11_15  and  C13_17 
REMARK    7  A    between atoms: C13_17  and  S1_18 
REMARK    8  A    between atoms: S1_18  and  C14_19 
REMARK    9  A    between atoms: C16_22  and  O6_23 
REMARK   10  A    between atoms: C17_25  and  O7_26 
REMARK   11  A    between atoms: C18_28  and  O8_29 
REMARK   12  A    between atoms: C19_31  and  O9_32 
REMARK   13  A    between atoms: C19_31  and  C20_34 
REMARK   14  A    between atoms: C20_34  and  O10_35 
REMARK   15  A    between atoms: C21_37  and  O11_38 
REMARK   16  A    between atoms: C22_40  and  O12_41 
ROOT
HETATM    1  C7  UNL     1     222.597 -63.669  -1.542  1.00  0.00     0.195 C 
HETATM    2  C8  UNL     1     221.199 -64.197  -1.737  1.00  0.00     0.153 C 
HETATM    3  C9  UNL     1     220.326 -63.329  -2.579  1.00  0.00     0.042 C 
HETATM    4  O3  UNL     1     221.333 -65.416  -2.394  1.00  0.00    -0.350 OA
HETATM    5  C10 UNL     1     222.426 -65.289  -3.237  1.00  0.00     0.305 C 
HETATM    6  C19 UNL     1     223.381 -64.299  -2.643  1.00  0.00     0.157 C 
ENDROOT
BRANCH   5   7
HETATM    7  O4  UNL     1     222.986 -66.540  -3.465  1.00  0.00    -0.321 OA
BRANCH   7   8
HETATM    8  C11 UNL     1     222.729 -67.194  -4.689  1.00  0.00     0.050 C 
HETATM    9  C12 UNL     1     223.540 -66.906  -5.687  1.00  0.00     0.047 C 
BRANCH   8  10
HETATM   10  C13 UNL     1     221.619 -68.136  -4.840  1.00  0.00     0.140 C 
BRANCH  10  11
HETATM   11  S1  UNL     1     222.100 -69.844  -4.874  1.00  0.00    -0.128 SA
BRANCH  11  12
HETATM   12  C14 UNL     1     222.120 -70.619  -6.495  1.00  0.00     0.214 C 
HETATM   13  O5  UNL     1     220.917 -70.590  -7.103  1.00  0.00    -0.370 OA
HETATM   14  C15 UNL     1     220.921 -70.272  -8.453  1.00  0.00     0.203 C 
HETATM   15  C16 UNL     1     222.011 -71.084  -9.119  1.00  0.00     0.173 C 
HETATM   16  C17 UNL     1     223.334 -70.497  -8.682  1.00  0.00     0.181 C 
HETATM   17  C18 UNL     1     223.225 -69.938  -7.289  1.00  0.00     0.188 C 
BRANCH  15  18
HETATM   18  O6  UNL     1     221.859 -70.993 -10.517  1.00  0.00    -0.391 OA
ATOM     19  H6  UNL     1     222.714 -70.869 -10.912  1.00  0.00     0.210 HD
ENDBRANCH  15  18
BRANCH  16  20
HETATM   20  O7  UNL     1     224.378 -71.426  -8.774  1.00  0.00    -0.390 OA
ATOM     21  H7  UNL     1     224.833 -71.536  -7.947  1.00  0.00     0.210 HD
ENDBRANCH  16  20
BRANCH  17  22
HETATM   22  O8  UNL     1     224.422 -70.206  -6.629  1.00  0.00    -0.389 OA
ATOM     23  H8  UNL     1     224.475 -71.149  -6.522  1.00  0.00     0.210 HD
ENDBRANCH  17  22
ENDBRANCH  11  12
ENDBRANCH  10  11
ENDBRANCH   8  10
ENDBRANCH   7   8
ENDBRANCH   5   7
BRANCH   6  24
HETATM   24  O9  UNL     1     224.491 -65.012  -2.143  1.00  0.00    -0.380 OA
ATOM     25  H9  UNL     1     225.139 -64.429  -1.766  1.00  0.00     0.211 HD
ENDBRANCH   6  24
BRANCH   6  26
HETATM   26  C20 UNL     1     223.938 -63.307  -3.635  1.00  0.00     0.210 C 
BRANCH  26  27
HETATM   27  O10 UNL     1     223.674 -63.630  -4.947  1.00  0.00    -0.398 OA
ATOM     28  H10 UNL     1     223.944 -64.509  -5.186  1.00  0.00     0.209 HD
ENDBRANCH  26  27
ENDBRANCH   6  26
BRANCH   1  29
HETATM   29  O2  UNL     1     222.579 -62.299  -1.548  1.00  0.00    -0.347 OA
BRANCH  29  30
HETATM   30  C6  UNL     1     222.361 -61.730  -0.311  1.00  0.00     0.291 C 
HETATM   31  O1  UNL     1     223.401 -61.896   0.575  1.00  0.00    -0.357 OA
HETATM   32  C5  UNL     1     224.547 -61.223   0.337  1.00  0.00     0.186 C 
HETATM   33  C3  UNL     1     224.471 -59.944  -0.431  1.00  0.00     0.023 C 
HETATM   34  C4  UNL     1     225.086 -60.126  -1.824  1.00  0.00     0.024 C 
HETATM   35  C22 UNL     1     223.097 -59.361  -0.544  1.00  0.00     0.165 C 
HETATM   36  C21 UNL     1     221.968 -60.297  -0.313  1.00  0.00     0.203 C 
BRANCH  33  37
HETATM   37  C2  UNL     1     225.310 -58.943   0.281  1.00  0.00    -0.023 C 
HETATM   38  C1  UNL     1     226.463 -58.517  -0.199  1.00  0.00     0.008 C 
ENDBRANCH  33  37
BRANCH  35  39
HETATM   39  O12 UNL     1     222.944 -58.232   0.296  1.00  0.00    -0.392 OA
ATOM     40  H12 UNL     1     222.707 -57.459  -0.204  1.00  0.00     0.210 HD
ENDBRANCH  35  39
BRANCH  36  41
HETATM   41  O11 UNL     1     220.938 -59.972  -1.183  1.00  0.00    -0.388 OA
ATOM     42  H11 UNL     1     220.795 -59.041  -1.309  1.00  0.00     0.210 HD
ENDBRANCH  36  41
ENDBRANCH  29  30
ENDBRANCH   1  29
TORSDOF 16
ENDMDL
MODEL 3
REMARK VINA RESULT: -7.057039213      3.180      9.395
REMARK  16 active torsions:
REMARK  status: ('A' for Active; 'I' for Inactive)
REMARK    1  A    between atoms: C2_2  and  C3_3 
REMARK    2  A    between atoms: C6_7  and  O2_8 
REMARK    3  A    between atoms: O2_8  and  C7_9 
REMARK    4  A    between atoms: C10_13  and  O4_14 
REMARK    5  A    between atoms: O4_14  and  C11_15 
REMARK    6  A    between atoms: C11_15  and  C13_17 
REMARK    7  A    between atoms: C13_17  and  S1_18 
REMARK    8  A    between atoms: S1_18  and  C14_19 
REMARK    9  A    between atoms: C16_22  and  O6_23 
REMARK   10  A    between atoms: C17_25  and  O7_26 
REMARK   11  A    between atoms: C18_28  and  O8_29 
REMARK   12  A    between atoms: C19_31  and  O9_32 
REMARK   13  A    between atoms: C19_31  and  C20_34 
REMARK   14  A    between atoms: C20_34  and  O10_35 
REMARK   15  A    between atoms: C21_37  and  O11_38 
REMARK   16  A    between atoms: C22_40  and  O12_41 
ROOT
HETATM    1  C7  UNL     1     220.867 -64.951  -1.957  1.00  0.00     0.195 C 
HETATM    2  C8  UNL     1     219.981 -64.425  -3.056  1.00  0.00     0.153 C 
HETATM    3  C9  UNL     1     220.710 -64.033  -4.297  1.00  0.00     0.042 C 
HETATM    4  O3  UNL     1     219.118 -65.464  -3.389  1.00  0.00    -0.350 OA
HETATM    5  C10 UNL     1     219.837 -66.638  -3.230  1.00  0.00     0.305 C 
HETATM    6  C19 UNL     1     220.876 -66.427  -2.171  1.00  0.00     0.157 C 
ENDROOT
BRANCH   5   7
HETATM    7  O4  UNL     1     218.965 -67.685  -2.957  1.00  0.00    -0.321 OA
BRANCH   7   8
HETATM    8  C11 UNL     1     219.039 -68.860  -3.735  1.00  0.00     0.050 C 
HETATM    9  C12 UNL     1     218.034 -69.703  -3.618  1.00  0.00     0.047 C 
BRANCH   8  10
HETATM   10  C13 UNL     1     220.175 -69.126  -4.620  1.00  0.00     0.140 C 
BRANCH  10  11
HETATM   11  S1  UNL     1     219.758 -69.250  -6.340  1.00  0.00    -0.128 SA
BRANCH  11  12
HETATM   12  C14 UNL     1     221.144 -69.239  -7.484  1.00  0.00     0.214 C 
HETATM   13  O5  UNL     1     222.264 -68.721  -6.942  1.00  0.00    -0.370 OA
HETATM   14  C15 UNL     1     223.445 -69.396  -7.217  1.00  0.00     0.203 C 
HETATM   15  C16 UNL     1     223.472 -69.701  -8.699  1.00  0.00     0.173 C 
HETATM   16  C17 UNL     1     222.454 -70.790  -8.950  1.00  0.00     0.181 C 
HETATM   17  C18 UNL     1     221.306 -70.666  -7.984  1.00  0.00     0.188 C 
BRANCH  15  18
HETATM   18  O6  UNL     1     224.766 -70.132  -9.053  1.00  0.00    -0.391 OA
ATOM     19  H6  UNL     1     224.707 -70.675  -9.831  1.00  0.00     0.210 HD
ENDBRANCH  15  18
BRANCH  16  20
HETATM   20  O7  UNL     1     222.002 -70.794 -10.275  1.00  0.00    -0.390 OA
ATOM     21  H7  UNL     1     222.521 -71.366 -10.828  1.00  0.00     0.210 HD
ENDBRANCH  16  20
BRANCH  17  22
HETATM   22  O8  UNL     1     220.138 -70.992  -8.670  1.00  0.00    -0.389 OA
ATOM     23  H8  UNL     1     219.733 -71.712  -8.200  1.00  0.00     0.210 HD
ENDBRANCH  17  22
ENDBRANCH  11  12
ENDBRANCH  10  11
ENDBRANCH   8  10
ENDBRANCH   7   8
ENDBRANCH   5   7
BRANCH   6  24
HETATM   24  O9  UNL     1     220.464 -67.119  -1.013  1.00  0.00    -0.380 OA
ATOM     25  H9  UNL     1     221.167 -67.648  -0.654  1.00  0.00     0.211 HD
ENDBRANCH   6  24
BRANCH   6  26
HETATM   26  C20 UNL     1     222.236 -66.979  -2.522  1.00  0.00     0.210 C 
BRANCH  26  27
HETATM   27  O10 UNL     1     222.621 -66.717  -3.819  1.00  0.00    -0.398 OA
ATOM     28  H10 UNL     1     223.495 -67.026  -4.027  1.00  0.00     0.209 HD
ENDBRANCH  26  27
ENDBRANCH   6  26
BRANCH   1  29
HETATM   29  O2  UNL     1     222.094 -64.344  -2.021  1.00  0.00    -0.347 OA
BRANCH  29  30
HETATM   30  C6  UNL     1     222.504 -63.771  -0.835  1.00  0.00     0.291 C 
HETATM   31  O1  UNL     1     223.750 -64.178  -0.415  1.00  0.00    -0.357 OA
HETATM   32  C5  UNL     1     224.822 -63.762  -1.124  1.00  0.00     0.186 C 
HETATM   33  C3  UNL     1     224.717 -62.479  -1.881  1.00  0.00     0.023 C 
HETATM   34  C4  UNL     1     224.681 -62.757  -3.390  1.00  0.00     0.024 C 
HETATM   35  C22 UNL     1     223.562 -61.612  -1.488  1.00  0.00     0.165 C 
HETATM   36  C21 UNL     1     222.448 -62.287  -0.776  1.00  0.00     0.203 C 
BRANCH  33  37
HETATM   37  C2  UNL     1     225.956 -61.700  -1.618  1.00  0.00    -0.023 C 
HETATM   38  C1  UNL     1     227.161 -62.213  -1.778  1.00  0.00     0.008 C 
ENDBRANCH  33  37
BRANCH  35  39
HETATM   39  O12 UNL     1     223.990 -60.496  -0.729  1.00  0.00    -0.392 OA
ATOM     40  H12 UNL     1     223.257 -59.944  -0.482  1.00  0.00     0.210 HD
ENDBRANCH  35  39
BRANCH  36  41
HETATM   41  O11 UNL     1     221.250 -61.727  -1.196  1.00  0.00    -0.388 OA
ATOM     42  H11 UNL     1     221.326 -60.870  -1.599  1.00  0.00     0.210 HD
ENDBRANCH  36  41
ENDBRANCH  29  30
ENDBRANCH   1  29
TORSDOF 16
ENDMDL
MODEL 4
REMARK VINA RESULT: -7.048897611      3.288      6.196
REMARK  16 active torsions:
REMARK  status: ('A' for Active; 'I' for Inactive)
REMARK    1  A    between atoms: C2_2  and  C3_3 
REMARK    2  A    between atoms: C6_7  and  O2_8 
REMARK    3  A    between atoms: O2_8  and  C7_9 
REMARK    4  A    between atoms: C10_13  and  O4_14 
REMARK    5  A    between atoms: O4_14  and  C11_15 
REMARK    6  A    between atoms: C11_15  and  C13_17 
REMARK    7  A    between atoms: C13_17  and  S1_18 
REMARK    8  A    between atoms: S1_18  and  C14_19 
REMARK    9  A    between atoms: C16_22  and  O6_23 
REMARK   10  A    between atoms: C17_25  and  O7_26 
REMARK   11  A    between atoms: C18_28  and  O8_29 
REMARK   12  A    between atoms: C19_31  and  O9_32 
REMARK   13  A    between atoms: C19_31  and  C20_34 
REMARK   14  A    between atoms: C20_34  and  O10_35 
REMARK   15  A    between atoms: C21_37  and  O11_38 
REMARK   16  A    between atoms: C22_40  and  O12_41 
ROOT
HETATM    1  C7  UNL     1     219.356 -69.196  -4.763  1.00  0.00     0.195 C 
HETATM    2  C8  UNL     1     218.256 -70.042  -4.178  1.00  0.00     0.153 C 
HETATM    3  C9  UNL     1     218.540 -71.507  -4.182  1.00  0.00     0.042 C 
HETATM    4  O3  UNL     1     218.126 -69.646  -2.851  1.00  0.00    -0.350 OA
HETATM    5  C10 UNL     1     219.398 -69.310  -2.415  1.00  0.00     0.305 C 
HETATM    6  C19 UNL     1     220.197 -68.827  -3.587  1.00  0.00     0.157 C 
ENDROOT
BRANCH   5   7
HETATM    7  O4  UNL     1     219.307 -68.386  -1.381  1.00  0.00    -0.321 OA
BRANCH   7   8
HETATM    8  C11 UNL     1     220.047 -68.603  -0.199  1.00  0.00     0.050 C 
HETATM    9  C12 UNL     1     219.648 -69.599   0.565  1.00  0.00     0.047 C 
BRANCH   8  10
HETATM   10  C13 UNL     1     221.192 -67.764   0.156  1.00  0.00     0.140 C 
BRANCH  10  11
HETATM   11  S1  UNL     1     220.772 -66.255   0.989  1.00  0.00    -0.128 SA
BRANCH  11  12
HETATM   12  C14 UNL     1     221.200 -64.739   0.124  1.00  0.00     0.214 C 
HETATM   13  O5  UNL     1     222.424 -64.279   0.450  1.00  0.00    -0.370 OA
HETATM   14  C15 UNL     1     223.204 -63.817  -0.600  1.00  0.00     0.203 C 
HETATM   15  C16 UNL     1     222.339 -62.923  -1.463  1.00  0.00     0.173 C 
HETATM   16  C17 UNL     1     221.368 -63.819  -2.199  1.00  0.00     0.181 C 
HETATM   17  C18 UNL     1     221.025 -65.020  -1.360  1.00  0.00     0.188 C 
BRANCH  15  18
HETATM   18  O6  UNL     1     223.163 -62.226  -2.368  1.00  0.00    -0.391 OA
ATOM     19  H6  UNL     1     222.959 -62.510  -3.251  1.00  0.00     0.210 HD
ENDBRANCH  15  18
BRANCH  16  20
HETATM   20  O7  UNL     1     220.214 -63.131  -2.594  1.00  0.00    -0.390 OA
ATOM     21  H7  UNL     1     220.417 -62.351  -3.097  1.00  0.00     0.210 HD
ENDBRANCH  16  20
BRANCH  17  22
HETATM   22  O8  UNL     1     219.677 -65.309  -1.563  1.00  0.00    -0.389 OA
ATOM     23  H8  UNL     1     219.618 -65.802  -2.373  1.00  0.00     0.210 HD
ENDBRANCH  17  22
ENDBRANCH  11  12
ENDBRANCH  10  11
ENDBRANCH   8  10
ENDBRANCH   7   8
ENDBRANCH   5   7
BRANCH   6  24
HETATM   24  O9  UNL     1     220.338 -67.429  -3.471  1.00  0.00    -0.380 OA
ATOM     25  H9  UNL     1     219.668 -67.056  -2.909  1.00  0.00     0.211 HD
ENDBRANCH   6  24
BRANCH   6  26
HETATM   26  C20 UNL     1     221.599 -69.383  -3.648  1.00  0.00     0.210 C 
BRANCH  26  27
HETATM   27  O10 UNL     1     221.701 -70.678  -3.191  1.00  0.00    -0.398 OA
ATOM     28  H10 UNL     1     222.546 -70.881  -2.805  1.00  0.00     0.209 HD
ENDBRANCH  26  27
ENDBRANCH   6  26
BRANCH   1  29
HETATM   29  O2  UNL     1     220.004 -69.894  -5.748  1.00  0.00    -0.347 OA
BRANCH  29  30
HETATM   30  C6  UNL     1     219.996 -69.274  -6.980  1.00  0.00     0.291 C 
HETATM   31  O1  UNL     1     221.003 -68.352  -7.151  1.00  0.00    -0.357 OA
HETATM   32  C5  UNL     1     222.268 -68.811  -7.260  1.00  0.00     0.186 C 
HETATM   33  C3  UNL     1     222.478 -70.192  -7.789  1.00  0.00     0.023 C 
HETATM   34  C4  UNL     1     222.959 -71.121  -6.667  1.00  0.00     0.024 C 
HETATM   35  C22 UNL     1     221.289 -70.787  -8.478  1.00  0.00     0.165 C 
HETATM   36  C21 UNL     1     219.975 -70.175  -8.162  1.00  0.00     0.203 C 
BRANCH  33  37
HETATM   37  C2  UNL     1     223.574 -70.127  -8.791  1.00  0.00    -0.023 C 
HETATM   38  C1  UNL     1     224.493 -69.179  -8.774  1.00  0.00     0.008 C 
ENDBRANCH  33  37
BRANCH  35  39
HETATM   39  O12 UNL     1     221.466 -70.809  -9.883  1.00  0.00    -0.392 OA
ATOM     40  H12 UNL     1     220.690 -71.137 -10.323  1.00  0.00     0.210 HD
ENDBRANCH  35  39
BRANCH  36  41
HETATM   41  O11 UNL     1     219.018 -71.178  -8.119  1.00  0.00    -0.388 OA
ATOM     42  H11 UNL     1     218.903 -71.660  -8.929  1.00  0.00     0.210 HD
ENDBRANCH  36  41
ENDBRANCH  29  30
ENDBRANCH   1  29
TORSDOF 16
ENDMDL
MODEL 5
REMARK VINA RESULT: -6.989458099      3.107      6.230
REMARK  16 active torsions:
REMARK  status: ('A' for Active; 'I' for Inactive)
REMARK    1  A    between atoms: C2_2  and  C3_3 
REMARK    2  A    between atoms: C6_7  and  O2_8 
REMARK    3  A    between atoms: O2_8  and  C7_9 
REMARK    4  A    between atoms: C10_13  and  O4_14 
REMARK    5  A    between atoms: O4_14  and  C11_15 
REMARK    6  A    between atoms: C11_15  and  C13_17 
REMARK    7  A    between atoms: C13_17  and  S1_18 
REMARK    8  A    between atoms: S1_18  and  C14_19 
REMARK    9  A    between atoms: C16_22  and  O6_23 
REMARK   10  A    between atoms: C17_25  and  O7_26 
REMARK   11  A    between atoms: C18_28  and  O8_29 
REMARK   12  A    between atoms: C19_31  and  O9_32 
REMARK   13  A    between atoms: C19_31  and  C20_34 
REMARK   14  A    between atoms: C20_34  and  O10_35 
REMARK   15  A    between atoms: C21_37  and  O11_38 
REMARK   16  A    between atoms: C22_40  and  O12_41 
ROOT
HETATM    1  C7  UNL     1     219.609 -69.102  -4.918  1.00  0.00     0.195 C 
HETATM    2  C8  UNL     1     218.565 -70.031  -4.355  1.00  0.00     0.153 C 
HETATM    3  C9  UNL     1     218.987 -71.461  -4.290  1.00  0.00     0.042 C 
HETATM    4  O3  UNL     1     218.330 -69.606  -3.051  1.00  0.00    -0.350 OA
HETATM    5  C10 UNL     1     219.540 -69.134  -2.568  1.00  0.00     0.305 C 
HETATM    6  C19 UNL     1     220.349 -68.615  -3.718  1.00  0.00     0.157 C 
ENDROOT
BRANCH   5   7
HETATM    7  O4  UNL     1     219.308 -68.189  -1.576  1.00  0.00    -0.321 OA
BRANCH   7   8
HETATM    8  C11 UNL     1     220.089 -68.223  -0.401  1.00  0.00     0.050 C 
HETATM    9  C12 UNL     1     220.444 -69.416   0.031  1.00  0.00     0.047 C 
BRANCH   8  10
HETATM   10  C13 UNL     1     220.479 -66.998   0.300  1.00  0.00     0.140 C 
BRANCH  10  11
HETATM   11  S1  UNL     1     220.436 -65.531  -0.698  1.00  0.00    -0.128 SA
BRANCH  11  12
HETATM   12  C14 UNL     1     222.016 -64.991  -1.362  1.00  0.00     0.214 C 
HETATM   13  O5  UNL     1     222.708 -65.990  -1.944  1.00  0.00    -0.370 OA
HETATM   14  C15 UNL     1     223.328 -65.687  -3.147  1.00  0.00     0.203 C 
HETATM   15  C16 UNL     1     224.038 -64.360  -2.982  1.00  0.00     0.173 C 
HETATM   16  C17 UNL     1     222.975 -63.287  -2.929  1.00  0.00     0.181 C 
HETATM   17  C18 UNL     1     221.720 -63.826  -2.295  1.00  0.00     0.188 C 
BRANCH  15  18
HETATM   18  O6  UNL     1     224.896 -64.162  -4.083  1.00  0.00    -0.391 OA
ATOM     19  H6  UNL     1     224.939 -63.233  -4.276  1.00  0.00     0.210 HD
ENDBRANCH  15  18
BRANCH  16  20
HETATM   20  O7  UNL     1     223.421 -62.136  -2.269  1.00  0.00    -0.390 OA
ATOM     21  H7  UNL     1     224.108 -61.691  -2.752  1.00  0.00     0.210 HD
ENDBRANCH  16  20
BRANCH  17  22
HETATM   22  O8  UNL     1     221.170 -62.811  -1.514  1.00  0.00    -0.389 OA
ATOM     23  H8  UNL     1     220.976 -62.086  -2.098  1.00  0.00     0.210 HD
ENDBRANCH  17  22
ENDBRANCH  11  12
ENDBRANCH  10  11
ENDBRANCH   8  10
ENDBRANCH   7   8
ENDBRANCH   5   7
BRANCH   6  24
HETATM   24  O9  UNL     1     220.350 -67.207  -3.648  1.00  0.00    -0.380 OA
ATOM     25  H9  UNL     1     220.452 -66.902  -2.754  1.00  0.00     0.211 HD
ENDBRANCH   6  24
BRANCH   6  26
HETATM   26  C20 UNL     1     221.799 -69.034  -3.690  1.00  0.00     0.210 C 
BRANCH  26  27
HETATM   27  O10 UNL     1     221.997 -70.311  -3.215  1.00  0.00    -0.398 OA
ATOM     28  H10 UNL     1     222.549 -70.845  -3.775  1.00  0.00     0.209 HD
ENDBRANCH  26  27
ENDBRANCH   6  26
BRANCH   1  29
HETATM   29  O2  UNL     1     220.370 -69.767  -5.844  1.00  0.00    -0.347 OA
BRANCH  29  30
HETATM   30  C6  UNL     1     220.408 -69.163  -7.083  1.00  0.00     0.291 C 
HETATM   31  O1  UNL     1     221.360 -68.176  -7.198  1.00  0.00    -0.357 OA
HETATM   32  C5  UNL     1     222.658 -68.547  -7.208  1.00  0.00     0.186 C 
HETATM   33  C3  UNL     1     222.999 -69.916  -7.698  1.00  0.00     0.023 C 
HETATM   34  C4  UNL     1     223.461 -70.796  -6.529  1.00  0.00     0.024 C 
HETATM   35  C22 UNL     1     221.907 -70.600  -8.460  1.00  0.00     0.165 C 
HETATM   36  C21 UNL     1     220.534 -70.077  -8.248  1.00  0.00     0.203 C 
BRANCH  33  37
HETATM   37  C2  UNL     1     224.158 -69.787  -8.620  1.00  0.00    -0.023 C 
HETATM   38  C1  UNL     1     224.936 -68.720  -8.634  1.00  0.00     0.008 C 
ENDBRANCH  33  37
BRANCH  35  39
HETATM   39  O12 UNL     1     222.185 -70.627  -9.848  1.00  0.00    -0.392 OA
ATOM     40  H12 UNL     1     222.437 -69.768 -10.167  1.00  0.00     0.210 HD
ENDBRANCH  35  39
BRANCH  36  41
HETATM   41  O11 UNL     1     219.648 -71.144  -8.256  1.00  0.00    -0.388 OA
ATOM     42  H11 UNL     1     220.029 -71.982  -8.490  1.00  0.00     0.210 HD
ENDBRANCH  36  41
ENDBRANCH  29  30
ENDBRANCH   1  29
TORSDOF 16
ENDMDL
