MODEL 1
REMARK VINA RESULT: -8.579769688      0.000      0.000
REMARK  14 active torsions:
REMARK  status: ('A' for Active; 'I' for Inactive)
REMARK       I    between atoms: C2_2  and  N1_4 
REMARK    1  A    between atoms: N1_4  and  C3_6 
REMARK    2  A    between atoms: C4_7  and  S1_8 
REMARK    3  A    between atoms: S1_8  and  C5_9 
REMARK    4  A    between atoms: C6_12  and  C7_13 
REMARK    5  A    between atoms: C7_13  and  O2_14 
REMARK    6  A    between atoms: O2_14  and  C8_15 
REMARK    7  A    between atoms: C8_15  and  C9_17 
REMARK    8  A    between atoms: C11_19  and  O4_20 
REMARK    9  A    between atoms: C13_23  and  O5_24 
REMARK   10  A    between atoms: C14_26  and  O6_27 
REMARK   11  A    between atoms: C17_34  and  C18_35 
REMARK   12  A    between atoms: C18_35  and  O8_36 
REMARK   13  A    between atoms: C18_35  and  C19_38 
REMARK   14  A    between atoms: C20_41  and  O11_43 
ROOT
HETATM    1  C3  UNL     1     222.689 -63.640  -2.766  1.00  0.00     0.085 C 
HETATM    2  C4  UNL     1     221.506 -63.712  -2.060  1.00  0.00     0.100 C 
HETATM    3  N3  UNL     1     221.510 -63.529  -0.664  1.00  0.00    -0.352 N 
ATOM      4  H3  UNL     1     220.625 -63.583  -0.160  1.00  0.00     0.166 HD
HETATM    5  C15 UNL     1     222.690 -63.273   0.065  1.00  0.00     0.018 C 
HETATM    6  C16 UNL     1     222.624 -63.165   1.540  1.00  0.00     0.069 C 
HETATM    7  C17 UNL     1     223.880 -63.168  -0.590  1.00  0.00     0.044 C 
HETATM    8  C20 UNL     1     223.736 -62.956  -2.033  1.00  0.00     0.131 C 
HETATM    9  C21 UNL     1     224.882 -62.511  -2.835  1.00  0.00     0.058 C 
ENDROOT
BRANCH   2  10
HETATM   10  S1  UNL     1     220.052 -64.319  -2.901  1.00  0.00    -0.057 SA
BRANCH  10  11
HETATM   11  C5  UNL     1     219.765 -66.029  -2.310  1.00  0.00     0.301 A 
HETATM   12  N2  UNL     1     220.739 -66.888  -2.846  1.00  0.00    -0.337 N 
HETATM   13  C6  UNL     1     219.895 -67.523  -3.544  1.00  0.00     0.144 A 
ATOM     14  H2  UNL     1     221.748 -66.969  -2.719  1.00  0.00     0.164 HD
HETATM   15  O7  UNL     1     218.876 -66.743  -3.083  1.00  0.00    -0.302 OA
BRANCH  13  16
HETATM   16  C7  UNL     1     219.999 -68.694  -4.508  1.00  0.00     0.263 C 
BRANCH  16  17
HETATM   17  O2  UNL     1     221.059 -68.530  -5.399  1.00  0.00    -0.309 OA
BRANCH  17  18
HETATM   18  C8  UNL     1     222.084 -69.420  -5.605  1.00  0.00     0.296 C 
HETATM   19  O3  UNL     1     222.565 -70.008  -4.597  1.00  0.00    -0.259 OA
BRANCH  18  20
HETATM   20  C9  UNL     1     222.567 -69.646  -6.952  1.00  0.00     0.078 A 
HETATM   21  C10 UNL     1     223.812 -69.196  -7.307  1.00  0.00     0.057 A 
HETATM   22  C11 UNL     1     224.302 -69.391  -8.561  1.00  0.00     0.069 A 
HETATM   23  C12 UNL     1     223.546 -70.053  -9.511  1.00  0.00     0.076 A 
HETATM   24  C13 UNL     1     222.292 -70.519  -9.190  1.00  0.00     0.102 A 
HETATM   25  C14 UNL     1     221.810 -70.305  -7.893  1.00  0.00     0.115 A 
BRANCH  22  26
HETATM   26  O4  UNL     1     225.561 -68.926  -8.889  1.00  0.00    -0.361 OA
ATOM     27  H4  UNL     1     226.331 -69.407  -8.611  1.00  0.00     0.217 HD
ENDBRANCH  22  26
BRANCH  24  28
HETATM   28  O5  UNL     1     221.533 -71.183 -10.144  1.00  0.00    -0.358 OA
ATOM     29  H5  UNL     1     220.843 -70.722 -10.608  1.00  0.00     0.217 HD
ENDBRANCH  24  28
BRANCH  25  30
HETATM   30  O6  UNL     1     220.548 -70.777  -7.580  1.00  0.00    -0.357 OA
ATOM     31  H6  UNL     1     220.405 -71.305  -6.803  1.00  0.00     0.217 HD
ENDBRANCH  25  30
ENDBRANCH  18  20
ENDBRANCH  17  18
ENDBRANCH  16  17
ENDBRANCH  13  16
ENDBRANCH  10  11
ENDBRANCH   2  10
BRANCH   1  32
HETATM   32  N1  UNL     1     222.602 -64.090  -4.086  1.00  0.00    -0.326 N 
HETATM   33  C2  UNL     1     222.913 -65.211  -4.824  1.00  0.00     0.218 C 
HETATM   34  C1  UNL     1     222.600 -65.182  -6.361  1.00  0.00     0.117 C 
HETATM   35  O1  UNL     1     223.409 -66.306  -4.556  1.00  0.00    -0.274 OA
ATOM     36  H1  UNL     1     222.184 -63.375  -4.681  1.00  0.00     0.168 HD
ENDBRANCH   1  32
BRANCH   8  37
HETATM   37  O11 UNL     1     223.066 -61.528  -1.900  1.00  0.00    -0.379 OA
ATOM     38  H11 UNL     1     223.051 -61.451  -0.953  1.00  0.00     0.211 HD
ENDBRANCH   8  37
BRANCH   7  39
HETATM   39  C18 UNL     1     225.085 -62.941   0.191  1.00  0.00     0.154 C 
BRANCH  39  40
HETATM   40  O8  UNL     1     225.397 -61.659   0.400  1.00  0.00    -0.354 OA
ATOM     41  H8  UNL     1     226.302 -61.495   0.637  1.00  0.00     0.218 HD
ENDBRANCH  39  40
BRANCH  39  42
HETATM   42  C19 UNL     1     226.059 -63.799   0.829  1.00  0.00     0.234 C 
HETATM   43  O9  UNL     1     225.716 -64.781   1.684  1.00  0.00    -0.642 OA
HETATM   44  O10 UNL     1     227.023 -64.214  -0.121  1.00  0.00    -0.642 OA
ENDBRANCH  39  42
ENDBRANCH   7  39
TORSDOF 14
ENDMDL
MODEL 2
REMARK VINA RESULT: -8.553473180      2.238      3.236
REMARK  14 active torsions:
REMARK  status: ('A' for Active; 'I' for Inactive)
REMARK       I    between atoms: C2_2  and  N1_4 
REMARK    1  A    between atoms: N1_4  and  C3_6 
REMARK    2  A    between atoms: C4_7  and  S1_8 
REMARK    3  A    between atoms: S1_8  and  C5_9 
REMARK    4  A    between atoms: C6_12  and  C7_13 
REMARK    5  A    between atoms: C7_13  and  O2_14 
REMARK    6  A    between atoms: O2_14  and  C8_15 
REMARK    7  A    between atoms: C8_15  and  C9_17 
REMARK    8  A    between atoms: C11_19  and  O4_20 
REMARK    9  A    between atoms: C13_23  and  O5_24 
REMARK   10  A    between atoms: C14_26  and  O6_27 
REMARK   11  A    between atoms: C17_34  and  C18_35 
REMARK   12  A    between atoms: C18_35  and  O8_36 
REMARK   13  A    between atoms: C18_35  and  C19_38 
REMARK   14  A    between atoms: C20_41  and  O11_43 
ROOT
HETATM    1  C3  UNL     1     225.258 -62.739  -2.255  1.00  0.00     0.085 C 
HETATM    2  C4  UNL     1     224.018 -63.052  -2.773  1.00  0.00     0.100 C 
HETATM    3  N3  UNL     1     222.867 -62.416  -2.272  1.00  0.00    -0.352 N 
ATOM      4  H3  UNL     1     221.960 -62.658  -2.670  1.00  0.00     0.166 HD
HETATM    5  C15 UNL     1     222.919 -61.456  -1.239  1.00  0.00     0.018 C 
HETATM    6  C16 UNL     1     221.658 -60.886  -0.714  1.00  0.00     0.069 C 
HETATM    7  C17 UNL     1     224.122 -61.096  -0.711  1.00  0.00     0.044 C 
HETATM    8  C20 UNL     1     225.264 -61.473  -1.548  1.00  0.00     0.131 C 
HETATM    9  C21 UNL     1     226.590 -60.896  -1.297  1.00  0.00     0.058 C 
ENDROOT
BRANCH   2  10
HETATM   10  S1  UNL     1     223.887 -64.460  -3.864  1.00  0.00    -0.057 SA
BRANCH  10  11
HETATM   11  C5  UNL     1     222.254 -65.230  -3.551  1.00  0.00     0.301 A 
HETATM   12  N2  UNL     1     222.322 -66.610  -3.805  1.00  0.00    -0.337 N 
HETATM   13  C6  UNL     1     221.536 -66.537  -4.795  1.00  0.00     0.144 A 
ATOM     14  H2  UNL     1     222.818 -67.381  -3.358  1.00  0.00     0.164 HD
HETATM   15  O7  UNL     1     221.404 -65.189  -4.633  1.00  0.00    -0.302 OA
BRANCH  13  16
HETATM   16  C7  UNL     1     220.975 -67.561  -5.767  1.00  0.00     0.263 C 
BRANCH  16  17
HETATM   17  O2  UNL     1     221.124 -68.860  -5.284  1.00  0.00    -0.309 OA
BRANCH  17  18
HETATM   18  C8  UNL     1     222.162 -69.713  -5.572  1.00  0.00     0.296 C 
HETATM   19  O3  UNL     1     222.686 -70.347  -4.614  1.00  0.00    -0.259 OA
BRANCH  18  20
HETATM   20  C9  UNL     1     222.606 -69.851  -6.943  1.00  0.00     0.078 A 
HETATM   21  C10 UNL     1     223.835 -69.365  -7.307  1.00  0.00     0.057 A 
HETATM   22  C11 UNL     1     224.289 -69.479  -8.583  1.00  0.00     0.069 A 
HETATM   23  C12 UNL     1     223.511 -70.091  -9.550  1.00  0.00     0.076 A 
HETATM   24  C13 UNL     1     222.273 -70.591  -9.221  1.00  0.00     0.102 A 
HETATM   25  C14 UNL     1     221.828 -70.462  -7.900  1.00  0.00     0.115 A 
BRANCH  22  26
HETATM   26  O4  UNL     1     225.532 -68.979  -8.920  1.00  0.00    -0.361 OA
ATOM     27  H4  UNL     1     225.650 -68.044  -9.043  1.00  0.00     0.217 HD
ENDBRANCH  22  26
BRANCH  24  28
HETATM   28  O5  UNL     1     221.492 -71.205 -10.191  1.00  0.00    -0.358 OA
ATOM     29  H5  UNL     1     221.590 -72.135 -10.360  1.00  0.00     0.217 HD
ENDBRANCH  24  28
BRANCH  25  30
HETATM   30  O6  UNL     1     220.581 -70.967  -7.579  1.00  0.00    -0.357 OA
ATOM     31  H6  UNL     1     220.496 -71.754  -7.053  1.00  0.00     0.217 HD
ENDBRANCH  25  30
ENDBRANCH  18  20
ENDBRANCH  17  18
ENDBRANCH  16  17
ENDBRANCH  13  16
ENDBRANCH  10  11
ENDBRANCH   2  10
BRANCH   1  32
HETATM   32  N1  UNL     1     226.282 -63.608  -2.641  1.00  0.00    -0.326 N 
HETATM   33  C2  UNL     1     227.276 -64.366  -2.061  1.00  0.00     0.218 C 
HETATM   34  C1  UNL     1     228.211 -65.192  -3.012  1.00  0.00     0.117 C 
HETATM   35  O1  UNL     1     227.636 -64.568  -0.901  1.00  0.00    -0.274 OA
ATOM     36  H1  UNL     1     226.298 -63.713  -3.655  1.00  0.00     0.168 HD
ENDBRANCH   1  32
BRANCH   8  37
HETATM   37  O11 UNL     1     224.889 -60.508  -2.745  1.00  0.00    -0.379 OA
ATOM     38  H11 UNL     1     224.475 -59.807  -2.255  1.00  0.00     0.211 HD
ENDBRANCH   8  37
BRANCH   7  39
HETATM   39  C18 UNL     1     224.141 -60.131   0.377  1.00  0.00     0.154 C 
BRANCH  39  40
HETATM   40  O8  UNL     1     224.322 -60.649   1.596  1.00  0.00    -0.354 OA
ATOM     41  H8  UNL     1     224.773 -60.085   2.213  1.00  0.00     0.218 HD
ENDBRANCH  39  40
BRANCH  39  42
HETATM   42  C19 UNL     1     224.019 -58.693   0.462  1.00  0.00     0.234 C 
HETATM   43  O9  UNL     1     223.471 -57.949  -0.518  1.00  0.00    -0.642 OA
HETATM   44  O10 UNL     1     223.553 -58.330   1.749  1.00  0.00    -0.642 OA
ENDBRANCH  39  42
ENDBRANCH   7  39
TORSDOF 14
ENDMDL
MODEL 3
REMARK VINA RESULT: -8.533490446      1.913      4.666
REMARK  14 active torsions:
REMARK  status: ('A' for Active; 'I' for Inactive)
REMARK       I    between atoms: C2_2  and  N1_4 
REMARK    1  A    between atoms: N1_4  and  C3_6 
REMARK    2  A    between atoms: C4_7  and  S1_8 
REMARK    3  A    between atoms: S1_8  and  C5_9 
REMARK    4  A    between atoms: C6_12  and  C7_13 
REMARK    5  A    between atoms: C7_13  and  O2_14 
REMARK    6  A    between atoms: O2_14  and  C8_15 
REMARK    7  A    between atoms: C8_15  and  C9_17 
REMARK    8  A    between atoms: C11_19  and  O4_20 
REMARK    9  A    between atoms: C13_23  and  O5_24 
REMARK   10  A    between atoms: C14_26  and  O6_27 
REMARK   11  A    between atoms: C17_34  and  C18_35 
REMARK   12  A    between atoms: C18_35  and  O8_36 
REMARK   13  A    between atoms: C18_35  and  C19_38 
REMARK   14  A    between atoms: C20_41  and  O11_43 
ROOT
HETATM    1  C3  UNL     1     222.257 -64.179  -3.136  1.00  0.00     0.085 C 
HETATM    2  C4  UNL     1     221.080 -64.776  -3.539  1.00  0.00     0.100 C 
HETATM    3  N3  UNL     1     220.893 -65.114  -4.892  1.00  0.00    -0.352 N 
ATOM      4  H3  UNL     1     220.018 -65.557  -5.171  1.00  0.00     0.166 HD
HETATM    5  C15 UNL     1     221.869 -64.862  -5.880  1.00  0.00     0.018 C 
HETATM    6  C16 UNL     1     221.568 -65.179  -7.294  1.00  0.00     0.069 C 
HETATM    7  C17 UNL     1     223.057 -64.297  -5.527  1.00  0.00     0.044 C 
HETATM    8  C20 UNL     1     223.332 -64.365  -4.090  1.00  0.00     0.131 C 
HETATM    9  C21 UNL     1     224.682 -64.096  -3.580  1.00  0.00     0.058 C 
ENDROOT
BRANCH   2  10
HETATM   10  S1  UNL     1     219.722 -64.840  -2.381  1.00  0.00    -0.057 SA
BRANCH  10  11
HETATM   11  C5  UNL     1     219.426 -66.607  -1.999  1.00  0.00     0.301 A 
HETATM   12  N2  UNL     1     220.652 -67.271  -1.833  1.00  0.00    -0.337 N 
HETATM   13  C6  UNL     1     220.486 -67.984  -2.866  1.00  0.00     0.144 A 
ATOM     14  H2  UNL     1     221.398 -67.203  -1.140  1.00  0.00     0.164 HD
HETATM   15  O7  UNL     1     219.279 -67.400  -3.116  1.00  0.00    -0.302 OA
BRANCH  13  16
HETATM   16  C7  UNL     1     221.317 -69.063  -3.541  1.00  0.00     0.263 C 
BRANCH  16  17
HETATM   17  O2  UNL     1     221.955 -68.578  -4.682  1.00  0.00    -0.309 OA
BRANCH  17  18
HETATM   18  C8  UNL     1     221.446 -68.589  -5.957  1.00  0.00     0.296 C 
HETATM   19  O3  UNL     1     220.257 -68.198  -6.120  1.00  0.00    -0.259 OA
BRANCH  18  20
HETATM   20  C9  UNL     1     222.282 -69.043  -7.050  1.00  0.00     0.078 A 
HETATM   21  C10 UNL     1     221.779 -69.941  -7.956  1.00  0.00     0.057 A 
HETATM   22  C11 UNL     1     222.531 -70.388  -8.997  1.00  0.00     0.069 A 
HETATM   23  C12 UNL     1     223.830 -69.942  -9.163  1.00  0.00     0.076 A 
HETATM   24  C13 UNL     1     224.367 -69.041  -8.273  1.00  0.00     0.102 A 
HETATM   25  C14 UNL     1     223.573 -68.595  -7.210  1.00  0.00     0.115 A 
BRANCH  22  26
HETATM   26  O4  UNL     1     221.998 -71.293  -9.895  1.00  0.00    -0.361 OA
ATOM     27  H4  UNL     1     222.574 -71.808 -10.447  1.00  0.00     0.217 HD
ENDBRANCH  22  26
BRANCH  24  28
HETATM   28  O5  UNL     1     225.671 -68.594  -8.439  1.00  0.00    -0.358 OA
ATOM     29  H5  UNL     1     225.856 -67.662  -8.449  1.00  0.00     0.217 HD
ENDBRANCH  24  28
BRANCH  25  30
HETATM   30  O6  UNL     1     224.122 -67.690  -6.320  1.00  0.00    -0.357 OA
ATOM     31  H6  UNL     1     224.180 -67.894  -5.394  1.00  0.00     0.217 HD
ENDBRANCH  25  30
ENDBRANCH  18  20
ENDBRANCH  17  18
ENDBRANCH  16  17
ENDBRANCH  13  16
ENDBRANCH  10  11
ENDBRANCH   2  10
BRANCH   1  32
HETATM   32  N1  UNL     1     222.226 -63.660  -1.839  1.00  0.00    -0.326 N 
HETATM   33  C2  UNL     1     222.566 -62.502  -1.174  1.00  0.00     0.218 C 
HETATM   34  C1  UNL     1     222.320 -62.450   0.374  1.00  0.00     0.117 C 
HETATM   35  O1  UNL     1     223.048 -61.423  -1.521  1.00  0.00    -0.274 OA
ATOM     36  H1  UNL     1     221.835 -64.343  -1.190  1.00  0.00     0.168 HD
ENDBRANCH   1  32
BRANCH   8  37
HETATM   37  O11 UNL     1     223.450 -65.942  -4.042  1.00  0.00    -0.379 OA
ATOM     38  H11 UNL     1     223.806 -66.098  -4.909  1.00  0.00     0.211 HD
ENDBRANCH   8  37
BRANCH   7  39
HETATM   39  C18 UNL     1     224.029 -64.016  -6.572  1.00  0.00     0.154 C 
BRANCH  39  40
HETATM   40  O8  UNL     1     224.923 -64.983  -6.795  1.00  0.00    -0.354 OA
ATOM     41  H8  UNL     1     225.243 -65.427  -6.018  1.00  0.00     0.218 HD
ENDBRANCH  39  40
BRANCH  39  42
HETATM   42  C19 UNL     1     224.264 -62.906  -7.468  1.00  0.00     0.234 C 
HETATM   43  O9  UNL     1     223.378 -62.527  -8.409  1.00  0.00    -0.642 OA
HETATM   44  O10 UNL     1     224.790 -61.810  -6.741  1.00  0.00    -0.642 OA
ENDBRANCH  39  42
ENDBRANCH   7  39
TORSDOF 14
ENDMDL
MODEL 4
REMARK VINA RESULT: -8.442916714      2.352      4.062
REMARK  14 active torsions:
REMARK  status: ('A' for Active; 'I' for Inactive)
REMARK       I    between atoms: C2_2  and  N1_4 
REMARK    1  A    between atoms: N1_4  and  C3_6 
REMARK    2  A    between atoms: C4_7  and  S1_8 
REMARK    3  A    between atoms: S1_8  and  C5_9 
REMARK    4  A    between atoms: C6_12  and  C7_13 
REMARK    5  A    between atoms: C7_13  and  O2_14 
REMARK    6  A    between atoms: O2_14  and  C8_15 
REMARK    7  A    between atoms: C8_15  and  C9_17 
REMARK    8  A    between atoms: C11_19  and  O4_20 
REMARK    9  A    between atoms: C13_23  and  O5_24 
REMARK   10  A    between atoms: C14_26  and  O6_27 
REMARK   11  A    between atoms: C17_34  and  C18_35 
REMARK   12  A    between atoms: C18_35  and  O8_36 
REMARK   13  A    between atoms: C18_35  and  C19_38 
REMARK   14  A    between atoms: C20_41  and  O11_43 
ROOT
HETATM    1  C3  UNL     1     225.664 -62.529  -2.317  1.00  0.00     0.085 C 
HETATM    2  C4  UNL     1     224.562 -63.010  -2.994  1.00  0.00     0.100 C 
HETATM    3  N3  UNL     1     223.268 -62.646  -2.576  1.00  0.00    -0.352 N 
ATOM      4  H3  UNL     1     222.466 -63.009  -3.091  1.00  0.00     0.166 HD
HETATM    5  C15 UNL     1     223.037 -61.799  -1.472  1.00  0.00     0.018 C 
HETATM    6  C16 UNL     1     221.646 -61.521  -1.048  1.00  0.00     0.069 C 
HETATM    7  C17 UNL     1     224.093 -61.279  -0.786  1.00  0.00     0.044 C 
HETATM    8  C20 UNL     1     225.361 -61.359  -1.517  1.00  0.00     0.131 C 
HETATM    9  C21 UNL     1     226.522 -60.578  -1.075  1.00  0.00     0.058 C 
ENDROOT
BRANCH   2  10
HETATM   10  S1  UNL     1     224.806 -64.304  -4.200  1.00  0.00    -0.057 SA
BRANCH  10  11
HETATM   11  C5  UNL     1     223.833 -63.846  -5.683  1.00  0.00     0.301 A 
HETATM   12  N2  UNL     1     222.485 -64.190  -5.493  1.00  0.00    -0.337 N 
HETATM   13  C6  UNL     1     222.510 -65.073  -6.400  1.00  0.00     0.144 A 
ATOM     14  H2  UNL     1     221.757 -63.854  -4.861  1.00  0.00     0.164 HD
HETATM   15  O7  UNL     1     223.823 -64.813  -6.663  1.00  0.00    -0.302 OA
BRANCH  13  16
HETATM   16  C7  UNL     1     221.472 -66.031  -6.961  1.00  0.00     0.263 C 
BRANCH  16  17
HETATM   17  O2  UNL     1     221.242 -67.100  -6.096  1.00  0.00    -0.309 OA
BRANCH  17  18
HETATM   18  C8  UNL     1     222.051 -68.199  -5.939  1.00  0.00     0.296 C 
HETATM   19  O3  UNL     1     222.295 -68.586  -4.763  1.00  0.00    -0.259 OA
BRANCH  18  20
HETATM   20  C9  UNL     1     222.583 -68.860  -7.113  1.00  0.00     0.078 A 
HETATM   21  C10 UNL     1     221.780 -69.709  -7.831  1.00  0.00     0.057 A 
HETATM   22  C11 UNL     1     222.241 -70.346  -8.940  1.00  0.00     0.069 A 
HETATM   23  C12 UNL     1     223.542 -70.150  -9.368  1.00  0.00     0.076 A 
HETATM   24  C13 UNL     1     224.376 -69.306  -8.672  1.00  0.00     0.102 A 
HETATM   25  C14 UNL     1     223.877 -68.661  -7.534  1.00  0.00     0.115 A 
BRANCH  22  26
HETATM   26  O4  UNL     1     221.409 -71.195  -9.644  1.00  0.00    -0.361 OA
ATOM     27  H4  UNL     1     221.402 -71.172 -10.593  1.00  0.00     0.217 HD
ENDBRANCH  22  26
BRANCH  24  28
HETATM   28  O5  UNL     1     225.681 -69.109  -9.102  1.00  0.00    -0.358 OA
ATOM     29  H5  UNL     1     226.032 -68.229  -9.169  1.00  0.00     0.217 HD
ENDBRANCH  24  28
BRANCH  25  30
HETATM   30  O6  UNL     1     224.723 -67.814  -6.840  1.00  0.00    -0.357 OA
ATOM     31  H6  UNL     1     225.037 -67.010  -7.236  1.00  0.00     0.217 HD
ENDBRANCH  25  30
ENDBRANCH  18  20
ENDBRANCH  17  18
ENDBRANCH  16  17
ENDBRANCH  13  16
ENDBRANCH  10  11
ENDBRANCH   2  10
BRANCH   1  32
HETATM   32  N1  UNL     1     226.867 -63.155  -2.653  1.00  0.00    -0.326 N 
HETATM   33  C2  UNL     1     227.743 -64.077  -2.123  1.00  0.00     0.218 C 
HETATM   34  C1  UNL     1     229.021 -64.434  -2.960  1.00  0.00     0.117 C 
HETATM   35  O1  UNL     1     227.771 -64.735  -1.082  1.00  0.00    -0.274 OA
ATOM     36  H1  UNL     1     227.194 -62.835  -3.565  1.00  0.00     0.168 HD
ENDBRANCH   1  32
BRANCH   8  37
HETATM   37  O11 UNL     1     224.924 -60.365  -2.668  1.00  0.00    -0.379 OA
ATOM     38  H11 UNL     1     225.533 -59.656  -2.500  1.00  0.00     0.211 HD
ENDBRANCH   8  37
BRANCH   7  39
HETATM   39  C18 UNL     1     223.825 -60.439   0.370  1.00  0.00     0.154 C 
BRANCH  39  40
HETATM   40  O8  UNL     1     223.910 -61.052   1.554  1.00  0.00    -0.354 OA
ATOM     41  H8  UNL     1     224.671 -60.824   2.075  1.00  0.00     0.218 HD
ENDBRANCH  39  40
BRANCH  39  42
HETATM   42  C19 UNL     1     223.484 -59.046   0.556  1.00  0.00     0.234 C 
HETATM   43  O9  UNL     1     223.958 -58.310   1.581  1.00  0.00    -0.642 OA
HETATM   44  O10 UNL     1     223.560 -58.367  -0.684  1.00  0.00    -0.642 OA
ENDBRANCH  39  42
ENDBRANCH   7  39
TORSDOF 14
ENDMDL
MODEL 5
REMARK VINA RESULT: -8.435754676      0.474      1.593
REMARK  14 active torsions:
REMARK  status: ('A' for Active; 'I' for Inactive)
REMARK       I    between atoms: C2_2  and  N1_4 
REMARK    1  A    between atoms: N1_4  and  C3_6 
REMARK    2  A    between atoms: C4_7  and  S1_8 
REMARK    3  A    between atoms: S1_8  and  C5_9 
REMARK    4  A    between atoms: C6_12  and  C7_13 
REMARK    5  A    between atoms: C7_13  and  O2_14 
REMARK    6  A    between atoms: O2_14  and  C8_15 
REMARK    7  A    between atoms: C8_15  and  C9_17 
REMARK    8  A    between atoms: C11_19  and  O4_20 
REMARK    9  A    between atoms: C13_23  and  O5_24 
REMARK   10  A    between atoms: C14_26  and  O6_27 
REMARK   11  A    between atoms: C17_34  and  C18_35 
REMARK   12  A    between atoms: C18_35  and  O8_36 
REMARK   13  A    between atoms: C18_35  and  C19_38 
REMARK   14  A    between atoms: C20_41  and  O11_43 
ROOT
HETATM    1  C3  UNL     1     222.738 -63.637  -2.813  1.00  0.00     0.085 C 
HETATM    2  C4  UNL     1     221.544 -63.729  -2.127  1.00  0.00     0.100 C 
HETATM    3  N3  UNL     1     221.523 -63.562  -0.729  1.00  0.00    -0.352 N 
ATOM      4  H3  UNL     1     220.631 -63.630  -0.240  1.00  0.00     0.166 HD
HETATM    5  C15 UNL     1     222.690 -63.306   0.022  1.00  0.00     0.018 C 
HETATM    6  C16 UNL     1     222.598 -63.216   1.497  1.00  0.00     0.069 C 
HETATM    7  C17 UNL     1     223.889 -63.182  -0.612  1.00  0.00     0.044 C 
HETATM    8  C20 UNL     1     223.766 -62.952  -2.054  1.00  0.00     0.131 C 
HETATM    9  C21 UNL     1     224.921 -62.488  -2.832  1.00  0.00     0.058 C 
ENDROOT
BRANCH   2  10
HETATM   10  S1  UNL     1     220.110 -64.337  -3.000  1.00  0.00    -0.057 SA
BRANCH  10  11
HETATM   11  C5  UNL     1     219.795 -66.037  -2.393  1.00  0.00     0.301 A 
HETATM   12  N2  UNL     1     220.703 -66.930  -2.987  1.00  0.00    -0.337 N 
HETATM   13  C6  UNL     1     219.795 -67.532  -3.633  1.00  0.00     0.144 A 
ATOM     14  H2  UNL     1     221.714 -67.049  -2.921  1.00  0.00     0.164 HD
HETATM   15  O7  UNL     1     218.836 -66.715  -3.112  1.00  0.00    -0.302 OA
BRANCH  13  16
HETATM   16  C7  UNL     1     219.798 -68.702  -4.602  1.00  0.00     0.263 C 
BRANCH  16  17
HETATM   17  O2  UNL     1     220.784 -68.558  -5.577  1.00  0.00    -0.309 OA
BRANCH  17  18
HETATM   18  C8  UNL     1     221.915 -69.327  -5.702  1.00  0.00     0.296 C 
HETATM   19  O3  UNL     1     222.416 -69.810  -4.648  1.00  0.00    -0.259 OA
BRANCH  18  20
HETATM   20  C9  UNL     1     222.479 -69.551  -7.017  1.00  0.00     0.078 A 
HETATM   21  C10 UNL     1     221.776 -70.287  -7.936  1.00  0.00     0.057 A 
HETATM   22  C11 UNL     1     222.270 -70.517  -9.182  1.00  0.00     0.069 A 
HETATM   23  C12 UNL     1     223.503 -70.008  -9.549  1.00  0.00     0.076 A 
HETATM   24  C13 UNL     1     224.235 -69.265  -8.653  1.00  0.00     0.102 A 
HETATM   25  C14 UNL     1     223.705 -69.042  -7.376  1.00  0.00     0.115 A 
BRANCH  22  26
HETATM   26  O4  UNL     1     221.539 -71.262 -10.087  1.00  0.00    -0.361 OA
ATOM     27  H4  UNL     1     221.041 -70.826 -10.768  1.00  0.00     0.217 HD
ENDBRANCH  22  26
BRANCH  24  28
HETATM   28  O5  UNL     1     225.472 -68.755  -9.022  1.00  0.00    -0.358 OA
ATOM     29  H5  UNL     1     226.039 -68.364  -8.367  1.00  0.00     0.217 HD
ENDBRANCH  24  28
BRANCH  25  30
HETATM   30  O6  UNL     1     224.449 -68.294  -6.482  1.00  0.00    -0.357 OA
ATOM     31  H6  UNL     1     224.912 -68.713  -5.766  1.00  0.00     0.217 HD
ENDBRANCH  25  30
ENDBRANCH  18  20
ENDBRANCH  17  18
ENDBRANCH  16  17
ENDBRANCH  13  16
ENDBRANCH  10  11
ENDBRANCH   2  10
BRANCH   1  32
HETATM   32  N1  UNL     1     222.677 -64.071  -4.139  1.00  0.00    -0.326 N 
HETATM   33  C2  UNL     1     222.952 -65.203  -4.876  1.00  0.00     0.218 C 
HETATM   34  C1  UNL     1     222.700 -65.144  -6.424  1.00  0.00     0.117 C 
HETATM   35  O1  UNL     1     223.375 -66.326  -4.600  1.00  0.00    -0.274 OA
ATOM     36  H1  UNL     1     222.322 -63.329  -4.742  1.00  0.00     0.168 HD
ENDBRANCH   1  32
BRANCH   8  37
HETATM   37  O11 UNL     1     223.081 -61.532  -1.914  1.00  0.00    -0.379 OA
ATOM     38  H11 UNL     1     223.081 -61.453  -0.968  1.00  0.00     0.211 HD
ENDBRANCH   8  37
BRANCH   7  39
HETATM   39  C18 UNL     1     225.079 -62.954   0.192  1.00  0.00     0.154 C 
BRANCH  39  40
HETATM   40  O8  UNL     1     225.418 -61.672   0.358  1.00  0.00    -0.354 OA
ATOM     41  H8  UNL     1     225.760 -61.239  -0.415  1.00  0.00     0.218 HD
ENDBRANCH  39  40
BRANCH  39  42
HETATM   42  C19 UNL     1     226.013 -63.809   0.889  1.00  0.00     0.234 C 
HETATM   43  O9  UNL     1     225.620 -64.813   1.696  1.00  0.00    -0.642 OA
HETATM   44  O10 UNL     1     227.056 -64.192   0.010  1.00  0.00    -0.642 OA
ENDBRANCH  39  42
ENDBRANCH   7  39
TORSDOF 14
ENDMDL
