MODEL 1
REMARK VINA RESULT: -9.127999663      0.000      0.000
REMARK  9 active torsions:
REMARK  status: ('A' for Active; 'I' for Inactive)
REMARK    1  A    between atoms: N1_2  and  C2_4 
REMARK    2  A    between atoms: C3_7  and  N3_8 
REMARK    3  A    between atoms: N3_8  and  N4_9 
REMARK    4  A    between atoms: N4_9  and  C4_11 
REMARK    5  A    between atoms: C5_19  and  N9_20 
REMARK       I    between atoms: N9_20  and  C6_21 
REMARK    6  A    between atoms: C6_21  and  C7_23 
REMARK    7  A    between atoms: N12_30  and  C10_31 
REMARK    8  A    between atoms: C14_35  and  C15_36 
REMARK    9  A    between atoms: C17_40  and  C19_42 
ROOT
HETATM    1  C2  UNL     1     226.208 -65.117  -4.003  1.00  0.00     0.138 C 
HETATM    2  N2  UNL     1     225.296 -65.125  -3.094  1.00  0.00    -0.345 N 
ATOM      3  H2  UNL     1     225.581 -65.192  -2.117  1.00  0.00     0.163 HD
HETATM    4  C3  UNL     1     223.893 -65.045  -3.396  1.00  0.00     0.262 C 
HETATM    5  C5  UNL     1     223.606 -66.083  -4.504  1.00  0.00     0.136 C 
HETATM    6  C17 UNL     1     223.989 -65.604  -5.854  1.00  0.00     0.155 C 
HETATM    7  C18 UNL     1     224.006 -66.792  -6.810  1.00  0.00     0.047 C 
HETATM    8  S1  UNL     1     225.735 -65.004  -5.704  1.00  0.00    -0.066 SA
ENDROOT
BRANCH   5   9
HETATM    9  N9  UNL     1     222.470 -66.792  -4.262  1.00  0.00    -0.368 NA
HETATM   10  C6  UNL     1     221.307 -67.501  -4.021  1.00  0.00     0.346 C 
HETATM   11  O1  UNL     1     220.122 -67.098  -4.287  1.00  0.00    -0.249 OA
BRANCH  10  12
HETATM   12  C7  UNL     1     221.308 -68.838  -3.403  1.00  0.00     0.164 A 
HETATM   13  C8  UNL     1     220.956 -69.121  -2.109  1.00  0.00     0.059 A 
HETATM   14  C9  UNL     1     220.545 -68.249  -0.978  1.00  0.00     0.072 C 
HETATM   15  N10 UNL     1     221.088 -70.489  -2.019  1.00  0.00    -0.288 N 
HETATM   16  N11 UNL     1     221.479 -70.950  -3.159  1.00  0.00    -0.235 N 
ATOM     17  H10 UNL     1     220.906 -71.048  -1.185  1.00  0.00     0.188 HD
HETATM   18  N12 UNL     1     221.628 -69.966  -4.052  1.00  0.00    -0.234 N 
ATOM     19  H11 UNL     1     221.652 -71.936  -3.354  1.00  0.00     0.209 HD
BRANCH  18  20
HETATM   20  C10 UNL     1     222.039 -70.218  -5.380  1.00  0.00     0.059 A 
HETATM   21  C11 UNL     1     223.319 -70.428  -5.816  1.00  0.00     0.031 A 
HETATM   22  C12 UNL     1     223.630 -70.621  -7.172  1.00  0.00     0.003 A 
HETATM   23  C13 UNL     1     222.630 -70.604  -8.117  1.00  0.00     0.017 A 
HETATM   24  C14 UNL     1     221.331 -70.396  -7.711  1.00  0.00     0.031 A 
HETATM   25  C16 UNL     1     221.071 -70.215  -6.398  1.00  0.00     0.048 A 
BRANCH  24  26
HETATM   26  C15 UNL     1     220.274 -70.365  -8.746  1.00  0.00     0.265 C 
HETATM   27  N13 UNL     1     218.969 -69.876  -8.428  1.00  0.00    -0.057 NA
HETATM   28  O2  UNL     1     220.605 -70.783  -9.868  1.00  0.00    -0.271 OA
ENDBRANCH  24  26
ENDBRANCH  18  20
ENDBRANCH  10  12
ENDBRANCH   5   9
BRANCH   4  29
HETATM   29  N3  UNL     1     223.477 -63.723  -3.708  1.00  0.00    -0.093 NA
BRANCH  29  30
HETATM   30  N4  UNL     1     222.498 -63.244  -2.791  1.00  0.00    -0.132 N 
ATOM     31  H4  UNL     1     222.717 -62.478  -2.155  1.00  0.00     0.201 HD
BRANCH  30  32
HETATM   32  C4  UNL     1     221.223 -63.841  -2.772  1.00  0.00     0.722 A 
HETATM   33  N5  UNL     1     220.250 -63.827  -3.688  1.00  0.00    -0.112 N 
HETATM   34  N6  UNL     1     219.209 -64.514  -3.251  1.00  0.00     0.009 NA
ATOM     35  H5  UNL     1     220.303 -63.356  -4.591  1.00  0.00     0.203 HD
HETATM   36  N7  UNL     1     219.491 -64.984  -2.036  1.00  0.00    -0.211 N 
HETATM   37  N8  UNL     1     220.701 -64.572  -1.768  1.00  0.00    -0.117 N 
ATOM     38  H7  UNL     1     218.886 -65.549  -1.439  1.00  0.00     0.206 HD
ATOM     39  H8  UNL     1     221.194 -64.780  -0.899  1.00  0.00     0.207 HD
ENDBRANCH  30  32
ENDBRANCH  29  30
ENDBRANCH   4  29
BRANCH   6  40
HETATM   40  C19 UNL     1     223.187 -64.566  -6.483  1.00  0.00     0.199 C 
HETATM   41  O3  UNL     1     223.776 -63.629  -7.137  1.00  0.00    -0.646 OA
HETATM   42  O4  UNL     1     221.819 -64.486  -6.455  1.00  0.00    -0.646 OA
ENDBRANCH   6  40
BRANCH   1  43
HETATM   43  N1  UNL     1     227.604 -65.203  -3.642  1.00  0.00    -0.375 N 
HETATM   44  C1  UNL     1     228.227 -64.175  -2.847  1.00  0.00     0.148 C 
ATOM     45  H1  UNL     1     228.156 -66.001  -3.954  1.00  0.00     0.161 HD
ENDBRANCH   1  43
TORSDOF 9
ENDMDL
MODEL 2
REMARK VINA RESULT: -9.067152573      1.070      1.532
REMARK  9 active torsions:
REMARK  status: ('A' for Active; 'I' for Inactive)
REMARK    1  A    between atoms: N1_2  and  C2_4 
REMARK    2  A    between atoms: C3_7  and  N3_8 
REMARK    3  A    between atoms: N3_8  and  N4_9 
REMARK    4  A    between atoms: N4_9  and  C4_11 
REMARK    5  A    between atoms: C5_19  and  N9_20 
REMARK       I    between atoms: N9_20  and  C6_21 
REMARK    6  A    between atoms: C6_21  and  C7_23 
REMARK    7  A    between atoms: N12_30  and  C10_31 
REMARK    8  A    between atoms: C14_35  and  C15_36 
REMARK    9  A    between atoms: C17_40  and  C19_42 
ROOT
HETATM    1  C2  UNL     1     226.047 -65.172  -4.050  1.00  0.00     0.138 C 
HETATM    2  N2  UNL     1     225.163 -65.161  -3.113  1.00  0.00    -0.345 N 
ATOM      3  H2  UNL     1     225.479 -65.216  -2.145  1.00  0.00     0.163 HD
HETATM    4  C3  UNL     1     223.753 -65.074  -3.372  1.00  0.00     0.262 C 
HETATM    5  C5  UNL     1     223.424 -66.125  -4.456  1.00  0.00     0.136 C 
HETATM    6  C17 UNL     1     223.767 -65.666  -5.823  1.00  0.00     0.155 C 
HETATM    7  C18 UNL     1     223.746 -66.867  -6.764  1.00  0.00     0.047 C 
HETATM    8  S1  UNL     1     225.521 -65.077  -5.736  1.00  0.00    -0.066 SA
ENDROOT
BRANCH   5   9
HETATM    9  N9  UNL     1     222.291 -66.822  -4.169  1.00  0.00    -0.368 NA
HETATM   10  C6  UNL     1     221.131 -67.518  -3.878  1.00  0.00     0.346 C 
HETATM   11  O1  UNL     1     219.954 -67.018  -3.839  1.00  0.00    -0.249 OA
BRANCH  10  12
HETATM   12  C7  UNL     1     221.129 -68.957  -3.563  1.00  0.00     0.164 A 
HETATM   13  C8  UNL     1     221.459 -69.510  -2.352  1.00  0.00     0.059 A 
HETATM   14  C9  UNL     1     221.937 -68.907  -1.082  1.00  0.00     0.072 C 
HETATM   15  N10 UNL     1     221.276 -70.862  -2.543  1.00  0.00    -0.288 N 
HETATM   16  N11 UNL     1     220.876 -71.066  -3.754  1.00  0.00    -0.235 N 
ATOM     17  H10 UNL     1     221.431 -71.586  -1.841  1.00  0.00     0.188 HD
HETATM   18  N12 UNL     1     220.768 -69.915  -4.426  1.00  0.00    -0.234 N 
ATOM     19  H11 UNL     1     220.670 -71.985  -4.146  1.00  0.00     0.209 HD
BRANCH  18  20
HETATM   20  C10 UNL     1     220.337 -69.875  -5.771  1.00  0.00     0.059 A 
HETATM   21  C11 UNL     1     219.085 -69.558  -6.222  1.00  0.00     0.031 A 
HETATM   22  C12 UNL     1     218.742 -69.598  -7.583  1.00  0.00     0.003 A 
HETATM   23  C13 UNL     1     219.682 -69.963  -8.520  1.00  0.00     0.017 A 
HETATM   24  C14 UNL     1     220.953 -70.287  -8.099  1.00  0.00     0.031 A 
HETATM   25  C16 UNL     1     221.244 -70.236  -6.781  1.00  0.00     0.048 A 
BRANCH  24  26
HETATM   26  C15 UNL     1     221.943 -70.693  -9.121  1.00  0.00     0.265 C 
HETATM   27  N13 UNL     1     223.338 -70.679  -8.817  1.00  0.00    -0.057 NA
HETATM   28  O2  UNL     1     221.474 -71.033 -10.221  1.00  0.00    -0.271 OA
ENDBRANCH  24  26
ENDBRANCH  18  20
ENDBRANCH  10  12
ENDBRANCH   5   9
BRANCH   4  29
HETATM   29  N3  UNL     1     223.336 -63.754  -3.688  1.00  0.00    -0.093 NA
BRANCH  29  30
HETATM   30  N4  UNL     1     222.387 -63.257  -2.749  1.00  0.00    -0.132 N 
ATOM     31  H4  UNL     1     222.628 -62.481  -2.133  1.00  0.00     0.201 HD
BRANCH  30  32
HETATM   32  C4  UNL     1     221.112 -63.849  -2.681  1.00  0.00     0.722 A 
HETATM   33  N5  UNL     1     220.080 -63.776  -3.527  1.00  0.00    -0.112 N 
HETATM   34  N6  UNL     1     219.066 -64.485  -3.064  1.00  0.00     0.009 NA
ATOM     35  H5  UNL     1     220.076 -63.250  -4.402  1.00  0.00     0.203 HD
HETATM   36  N7  UNL     1     219.424 -65.029  -1.902  1.00  0.00    -0.211 N 
HETATM   37  N8  UNL     1     220.653 -64.638  -1.690  1.00  0.00    -0.117 N 
ATOM     38  H7  UNL     1     218.856 -65.626  -1.301  1.00  0.00     0.206 HD
ATOM     39  H8  UNL     1     221.200 -64.900  -0.871  1.00  0.00     0.207 HD
ENDBRANCH  30  32
ENDBRANCH  29  30
ENDBRANCH   4  29
BRANCH   6  40
HETATM   40  C19 UNL     1     222.954 -64.631  -6.441  1.00  0.00     0.199 C 
HETATM   41  O3  UNL     1     223.519 -63.753  -7.191  1.00  0.00    -0.646 OA
HETATM   42  O4  UNL     1     221.596 -64.495  -6.307  1.00  0.00    -0.646 OA
ENDBRANCH   6  40
BRANCH   1  43
HETATM   43  N1  UNL     1     227.453 -65.263  -3.732  1.00  0.00    -0.375 N 
HETATM   44  C1  UNL     1     228.114 -64.216  -2.993  1.00  0.00     0.148 C 
ATOM     45  H1  UNL     1     227.985 -66.078  -4.034  1.00  0.00     0.161 HD
ENDBRANCH   1  43
TORSDOF 9
ENDMDL
MODEL 3
REMARK VINA RESULT: -8.631441313      1.230      1.575
REMARK  9 active torsions:
REMARK  status: ('A' for Active; 'I' for Inactive)
REMARK    1  A    between atoms: N1_2  and  C2_4 
REMARK    2  A    between atoms: C3_7  and  N3_8 
REMARK    3  A    between atoms: N3_8  and  N4_9 
REMARK    4  A    between atoms: N4_9  and  C4_11 
REMARK    5  A    between atoms: C5_19  and  N9_20 
REMARK       I    between atoms: N9_20  and  C6_21 
REMARK    6  A    between atoms: C6_21  and  C7_23 
REMARK    7  A    between atoms: N12_30  and  C10_31 
REMARK    8  A    between atoms: C14_35  and  C15_36 
REMARK    9  A    between atoms: C17_40  and  C19_42 
ROOT
HETATM    1  C2  UNL     1     226.160 -65.105  -3.926  1.00  0.00     0.138 C 
HETATM    2  N2  UNL     1     225.233 -65.077  -3.032  1.00  0.00    -0.345 N 
ATOM      3  H2  UNL     1     225.500 -65.140  -2.050  1.00  0.00     0.163 HD
HETATM    4  C3  UNL     1     223.838 -64.960  -3.358  1.00  0.00     0.262 C 
HETATM    5  C5  UNL     1     223.540 -66.002  -4.460  1.00  0.00     0.136 C 
HETATM    6  C17 UNL     1     223.958 -65.548  -5.808  1.00  0.00     0.155 C 
HETATM    7  C18 UNL     1     223.957 -66.747  -6.752  1.00  0.00     0.047 C 
HETATM    8  S1  UNL     1     225.718 -64.996  -5.635  1.00  0.00    -0.066 SA
ENDROOT
BRANCH   5   9
HETATM    9  N9  UNL     1     222.380 -66.676  -4.229  1.00  0.00    -0.368 NA
HETATM   10  C6  UNL     1     221.193 -67.350  -4.000  1.00  0.00     0.346 C 
HETATM   11  O1  UNL     1     220.025 -66.917  -4.291  1.00  0.00    -0.249 OA
BRANCH  10  12
HETATM   12  C7  UNL     1     221.147 -68.679  -3.367  1.00  0.00     0.164 A 
HETATM   13  C8  UNL     1     220.724 -68.941  -2.089  1.00  0.00     0.059 A 
HETATM   14  C9  UNL     1     220.264 -68.050  -0.993  1.00  0.00     0.072 C 
HETATM   15  N10 UNL     1     220.835 -70.309  -1.976  1.00  0.00    -0.288 N 
HETATM   16  N11 UNL     1     221.280 -70.789  -3.089  1.00  0.00    -0.235 N 
ATOM     17  H10 UNL     1     220.603 -70.855  -1.147  1.00  0.00     0.188 HD
HETATM   18  N12 UNL     1     221.487 -69.817  -3.984  1.00  0.00    -0.234 N 
ATOM     19  H11 UNL     1     221.451 -71.779  -3.262  1.00  0.00     0.209 HD
BRANCH  18  20
HETATM   20  C10 UNL     1     221.965 -70.092  -5.285  1.00  0.00     0.059 A 
HETATM   21  C11 UNL     1     223.269 -70.272  -5.659  1.00  0.00     0.031 A 
HETATM   22  C12 UNL     1     223.645 -70.490  -6.994  1.00  0.00     0.003 A 
HETATM   23  C13 UNL     1     222.689 -70.530  -7.982  1.00  0.00     0.017 A 
HETATM   24  C14 UNL     1     221.367 -70.353  -7.639  1.00  0.00     0.031 A 
HETATM   25  C16 UNL     1     221.043 -70.146  -6.344  1.00  0.00     0.048 A 
BRANCH  24  26
HETATM   26  C15 UNL     1     220.356 -70.383  -8.720  1.00  0.00     0.265 C 
HETATM   27  N13 UNL     1     219.013 -69.973  -8.461  1.00  0.00    -0.057 NA
HETATM   28  O2  UNL     1     220.761 -70.780  -9.826  1.00  0.00    -0.271 OA
ENDBRANCH  24  26
ENDBRANCH  18  20
ENDBRANCH  10  12
ENDBRANCH   5   9
BRANCH   4  29
HETATM   29  N3  UNL     1     223.465 -63.631  -3.690  1.00  0.00    -0.093 NA
BRANCH  29  30
HETATM   30  N4  UNL     1     223.996 -62.684  -2.768  1.00  0.00    -0.132 N 
ATOM     31  H4  UNL     1     225.005 -62.571  -2.668  1.00  0.00     0.201 HD
BRANCH  30  32
HETATM   32  C4  UNL     1     223.114 -61.905  -1.997  1.00  0.00     0.722 A 
HETATM   33  N5  UNL     1     223.231 -60.649  -1.556  1.00  0.00    -0.112 N 
HETATM   34  N6  UNL     1     222.163 -60.316  -0.853  1.00  0.00     0.009 NA
ATOM     35  H5  UNL     1     224.028 -60.038  -1.735  1.00  0.00     0.203 HD
HETATM   36  N7  UNL     1     221.332 -61.356  -0.824  1.00  0.00    -0.211 N 
HETATM   37  N8  UNL     1     221.918 -62.298  -1.516  1.00  0.00    -0.117 N 
ATOM     38  H7  UNL     1     220.426 -61.408  -0.358  1.00  0.00     0.206 HD
ATOM     39  H8  UNL     1     221.517 -63.222  -1.673  1.00  0.00     0.207 HD
ENDBRANCH  30  32
ENDBRANCH  29  30
ENDBRANCH   4  29
BRANCH   6  40
HETATM   40  C19 UNL     1     223.196 -64.496  -6.461  1.00  0.00     0.199 C 
HETATM   41  O3  UNL     1     223.824 -63.524  -7.023  1.00  0.00    -0.646 OA
HETATM   42  O4  UNL     1     221.830 -64.434  -6.549  1.00  0.00    -0.646 OA
ENDBRANCH   6  40
BRANCH   1  43
HETATM   43  N1  UNL     1     227.546 -65.225  -3.541  1.00  0.00    -0.375 N 
HETATM   44  C1  UNL     1     228.257 -64.108  -2.972  1.00  0.00     0.148 C 
ATOM     45  H1  UNL     1     228.030 -66.114  -3.674  1.00  0.00     0.161 HD
ENDBRANCH   1  43
TORSDOF 9
ENDMDL
MODEL 4
REMARK VINA RESULT: -8.574681169      1.608      2.181
REMARK  9 active torsions:
REMARK  status: ('A' for Active; 'I' for Inactive)
REMARK    1  A    between atoms: N1_2  and  C2_4 
REMARK    2  A    between atoms: C3_7  and  N3_8 
REMARK    3  A    between atoms: N3_8  and  N4_9 
REMARK    4  A    between atoms: N4_9  and  C4_11 
REMARK    5  A    between atoms: C5_19  and  N9_20 
REMARK       I    between atoms: N9_20  and  C6_21 
REMARK    6  A    between atoms: C6_21  and  C7_23 
REMARK    7  A    between atoms: N12_30  and  C10_31 
REMARK    8  A    between atoms: C14_35  and  C15_36 
REMARK    9  A    between atoms: C17_40  and  C19_42 
ROOT
HETATM    1  C2  UNL     1     226.066 -65.155  -3.978  1.00  0.00     0.138 C 
HETATM    2  N2  UNL     1     225.166 -65.103  -3.058  1.00  0.00    -0.345 N 
ATOM      3  H2  UNL     1     225.463 -65.131  -2.083  1.00  0.00     0.163 HD
HETATM    4  C3  UNL     1     223.761 -65.008  -3.346  1.00  0.00     0.262 C 
HETATM    5  C5  UNL     1     223.439 -66.089  -4.402  1.00  0.00     0.136 C 
HETATM    6  C17 UNL     1     223.813 -65.678  -5.777  1.00  0.00     0.155 C 
HETATM    7  C18 UNL     1     223.794 -66.909  -6.679  1.00  0.00     0.047 C 
HETATM    8  S1  UNL     1     225.573 -65.108  -5.676  1.00  0.00    -0.066 SA
ENDROOT
BRANCH   5   9
HETATM    9  N9  UNL     1     222.292 -66.763  -4.115  1.00  0.00    -0.368 NA
HETATM   10  C6  UNL     1     221.119 -67.435  -3.823  1.00  0.00     0.346 C 
HETATM   11  O1  UNL     1     219.952 -66.912  -3.786  1.00  0.00    -0.249 OA
BRANCH  10  12
HETATM   12  C7  UNL     1     221.088 -68.873  -3.504  1.00  0.00     0.164 A 
HETATM   13  C8  UNL     1     221.391 -69.429  -2.288  1.00  0.00     0.059 A 
HETATM   14  C9  UNL     1     221.863 -68.830  -1.013  1.00  0.00     0.072 C 
HETATM   15  N10 UNL     1     221.188 -70.778  -2.479  1.00  0.00    -0.288 N 
HETATM   16  N11 UNL     1     220.802 -70.978  -3.694  1.00  0.00    -0.235 N 
ATOM     17  H10 UNL     1     221.321 -71.502  -1.773  1.00  0.00     0.188 HD
HETATM   18  N12 UNL     1     220.723 -69.827  -4.371  1.00  0.00    -0.234 N 
ATOM     19  H11 UNL     1     220.586 -71.894  -4.087  1.00  0.00     0.209 HD
BRANCH  18  20
HETATM   20  C10 UNL     1     220.311 -69.783  -5.721  1.00  0.00     0.059 A 
HETATM   21  C11 UNL     1     219.077 -69.424  -6.191  1.00  0.00     0.031 A 
HETATM   22  C12 UNL     1     218.752 -69.463  -7.557  1.00  0.00     0.003 A 
HETATM   23  C13 UNL     1     219.689 -69.871  -8.478  1.00  0.00     0.017 A 
HETATM   24  C14 UNL     1     220.941 -70.240  -8.037  1.00  0.00     0.031 A 
HETATM   25  C16 UNL     1     221.217 -70.188  -6.716  1.00  0.00     0.048 A 
BRANCH  24  26
HETATM   26  C15 UNL     1     221.928 -70.692  -9.042  1.00  0.00     0.265 C 
HETATM   27  N13 UNL     1     223.317 -70.743  -8.715  1.00  0.00    -0.057 NA
HETATM   28  O2  UNL     1     221.463 -71.010 -10.150  1.00  0.00    -0.271 OA
ENDBRANCH  24  26
ENDBRANCH  18  20
ENDBRANCH  10  12
ENDBRANCH   5   9
BRANCH   4  29
HETATM   29  N3  UNL     1     223.367 -63.693  -3.712  1.00  0.00    -0.093 NA
BRANCH  29  30
HETATM   30  N4  UNL     1     223.934 -62.710  -2.851  1.00  0.00    -0.132 N 
ATOM     31  H4  UNL     1     224.944 -62.566  -2.826  1.00  0.00     0.201 HD
BRANCH  30  32
HETATM   32  C4  UNL     1     223.086 -61.939  -2.035  1.00  0.00     0.722 A 
HETATM   33  N5  UNL     1     223.237 -60.699  -1.560  1.00  0.00    -0.112 N 
HETATM   34  N6  UNL     1     222.193 -60.369  -0.821  1.00  0.00     0.009 NA
ATOM     35  H5  UNL     1     224.040 -60.097  -1.741  1.00  0.00     0.203 HD
HETATM   36  N7  UNL     1     221.344 -61.395  -0.801  1.00  0.00    -0.211 N 
HETATM   37  N8  UNL     1     221.896 -62.325  -1.535  1.00  0.00    -0.117 N 
ATOM     38  H7  UNL     1     220.450 -61.445  -0.313  1.00  0.00     0.206 HD
ATOM     39  H8  UNL     1     221.474 -63.238  -1.709  1.00  0.00     0.207 HD
ENDBRANCH  30  32
ENDBRANCH  29  30
ENDBRANCH   4  29
BRANCH   6  40
HETATM   40  C19 UNL     1     223.024 -64.655  -6.443  1.00  0.00     0.199 C 
HETATM   41  O3  UNL     1     223.627 -63.702  -7.061  1.00  0.00    -0.646 OA
HETATM   42  O4  UNL     1     221.655 -64.602  -6.486  1.00  0.00    -0.646 OA
ENDBRANCH   6  40
BRANCH   1  43
HETATM   43  N1  UNL     1     227.464 -65.252  -3.630  1.00  0.00    -0.375 N 
HETATM   44  C1  UNL     1     228.040 -64.391  -2.628  1.00  0.00     0.148 C 
ATOM     45  H1  UNL     1     228.053 -65.940  -4.100  1.00  0.00     0.161 HD
ENDBRANCH   1  43
TORSDOF 9
ENDMDL
MODEL 5
REMARK VINA RESULT: -8.545927763      3.076      6.858
REMARK  9 active torsions:
REMARK  status: ('A' for Active; 'I' for Inactive)
REMARK    1  A    between atoms: N1_2  and  C2_4 
REMARK    2  A    between atoms: C3_7  and  N3_8 
REMARK    3  A    between atoms: N3_8  and  N4_9 
REMARK    4  A    between atoms: N4_9  and  C4_11 
REMARK    5  A    between atoms: C5_19  and  N9_20 
REMARK       I    between atoms: N9_20  and  C6_21 
REMARK    6  A    between atoms: C6_21  and  C7_23 
REMARK    7  A    between atoms: N12_30  and  C10_31 
REMARK    8  A    between atoms: C14_35  and  C15_36 
REMARK    9  A    between atoms: C17_40  and  C19_42 
ROOT
HETATM    1  C2  UNL     1     217.667 -69.352  -2.612  1.00  0.00     0.138 C 
HETATM    2  N2  UNL     1     218.110 -68.175  -2.893  1.00  0.00    -0.345 N 
ATOM      3  H2  UNL     1     217.468 -67.385  -2.831  1.00  0.00     0.163 HD
HETATM    4  C3  UNL     1     219.469 -67.927  -3.289  1.00  0.00     0.262 C 
HETATM    5  C5  UNL     1     219.813 -68.948  -4.397  1.00  0.00     0.136 C 
HETATM    6  C17 UNL     1     220.148 -70.288  -3.859  1.00  0.00     0.155 C 
HETATM    7  C18 UNL     1     220.122 -71.297  -5.004  1.00  0.00     0.047 C 
HETATM    8  S1  UNL     1     218.763 -70.736  -2.712  1.00  0.00    -0.066 SA
ENDROOT
BRANCH   5   9
HETATM    9  N9  UNL     1     220.483 -68.375  -5.434  1.00  0.00    -0.368 NA
HETATM   10  C6  UNL     1     221.153 -67.784  -6.491  1.00  0.00     0.346 C 
HETATM   11  O1  UNL     1     220.684 -66.865  -7.247  1.00  0.00    -0.249 OA
BRANCH  10  12
HETATM   12  C7  UNL     1     222.521 -68.171  -6.876  1.00  0.00     0.164 A 
HETATM   13  C8  UNL     1     222.874 -69.331  -7.515  1.00  0.00     0.059 A 
HETATM   14  C9  UNL     1     222.078 -70.509  -7.946  1.00  0.00     0.072 C 
HETATM   15  N10 UNL     1     224.236 -69.218  -7.683  1.00  0.00    -0.288 N 
HETATM   16  N11 UNL     1     224.630 -68.093  -7.186  1.00  0.00    -0.235 N 
ATOM     17  H10 UNL     1     224.838 -69.911  -8.128  1.00  0.00     0.188 HD
HETATM   18  N12 UNL     1     223.602 -67.406  -6.675  1.00  0.00    -0.234 N 
ATOM     19  H11 UNL     1     225.598 -67.771  -7.183  1.00  0.00     0.209 HD
BRANCH  18  20
HETATM   20  C10 UNL     1     223.776 -66.136  -6.082  1.00  0.00     0.059 A 
HETATM   21  C11 UNL     1     223.466 -64.923  -6.635  1.00  0.00     0.031 A 
HETATM   22  C12 UNL     1     223.727 -63.709  -5.979  1.00  0.00     0.003 A 
HETATM   23  C13 UNL     1     224.313 -63.709  -4.735  1.00  0.00     0.017 A 
HETATM   24  C14 UNL     1     224.638 -64.914  -4.150  1.00  0.00     0.031 A 
HETATM   25  C16 UNL     1     224.371 -66.061  -4.811  1.00  0.00     0.048 A 
BRANCH  24  26
HETATM   26  C15 UNL     1     225.283 -64.890  -2.819  1.00  0.00     0.265 C 
HETATM   27  N13 UNL     1     224.535 -64.510  -1.663  1.00  0.00    -0.057 NA
HETATM   28  O2  UNL     1     226.482 -65.217  -2.794  1.00  0.00    -0.271 OA
ENDBRANCH  24  26
ENDBRANCH  18  20
ENDBRANCH  10  12
ENDBRANCH   5   9
BRANCH   4  29
HETATM   29  N3  UNL     1     220.367 -67.930  -2.189  1.00  0.00    -0.093 NA
BRANCH  29  30
HETATM   30  N4  UNL     1     221.503 -67.103  -2.428  1.00  0.00    -0.132 N 
ATOM     31  H4  UNL     1     222.444 -67.493  -2.382  1.00  0.00     0.201 HD
BRANCH  30  32
HETATM   32  C4  UNL     1     221.311 -65.742  -2.728  1.00  0.00     0.722 A 
HETATM   33  N5  UNL     1     221.439 -64.660  -1.953  1.00  0.00    -0.112 N 
HETATM   34  N6  UNL     1     221.150 -63.572  -2.645  1.00  0.00     0.009 NA
ATOM     35  H5  UNL     1     221.718 -64.674  -0.972  1.00  0.00     0.203 HD
HETATM   36  N7  UNL     1     220.826 -63.932  -3.886  1.00  0.00    -0.211 N 
HETATM   37  N8  UNL     1     220.930 -65.234  -3.916  1.00  0.00    -0.117 N 
ATOM     38  H7  UNL     1     220.552 -63.318  -4.653  1.00  0.00     0.206 HD
ATOM     39  H8  UNL     1     220.743 -65.800  -4.744  1.00  0.00     0.207 HD
ENDBRANCH  30  32
ENDBRANCH  29  30
ENDBRANCH   4  29
BRANCH   6  40
HETATM   40  C19 UNL     1     221.412 -70.470  -3.165  1.00  0.00     0.199 C 
HETATM   41  O3  UNL     1     221.429 -71.114  -2.051  1.00  0.00    -0.646 OA
HETATM   42  O4  UNL     1     222.632 -70.015  -3.593  1.00  0.00    -0.646 OA
ENDBRANCH   6  40
BRANCH   1  43
HETATM   43  N1  UNL     1     216.290 -69.543  -2.221  1.00  0.00    -0.375 N 
HETATM   44  C1  UNL     1     215.953 -70.315  -1.051  1.00  0.00     0.148 C 
ATOM     45  H1  UNL     1     215.546 -69.126  -2.780  1.00  0.00     0.161 HD
ENDBRANCH   1  43
TORSDOF 9
ENDMDL
