MODEL 1
REMARK VINA RESULT: -8.640741203      0.000      0.000
REMARK  10 active torsions:
REMARK  status: ('A' for Active; 'I' for Inactive)
REMARK    1  A    between atoms: N1_2  and  C3_4 
REMARK    2  A    between atoms: N3_9  and  C6_10 
REMARK    3  A    between atoms: C10_22  and  O1_23 
REMARK    4  A    between atoms: C10_22  and  N8_25 
REMARK    5  A    between atoms: N8_25  and  C11_27 
REMARK    6  A    between atoms: C11_27  and  C12_28 
REMARK    7  A    between atoms: N9_32  and  C14_33 
REMARK    8  A    between atoms: C17_41  and  O4_42 
REMARK    9  A    between atoms: N13_46  and  C18_47 
REMARK   10  A    between atoms: C18_47  and  C19_48 
ROOT
HETATM    1  C3  UNL     1     221.015 -66.755  -1.607  1.00  0.00     0.138 A 
HETATM    2  C4  UNL     1     221.520 -67.663  -2.494  1.00  0.00     0.107 A 
HETATM    3  C5  UNL     1     221.812 -67.616  -3.908  1.00  0.00     0.140 C 
HETATM    4  N2  UNL     1     221.536 -68.587  -4.768  1.00  0.00    -0.279 N 
ATOM      5  H2  UNL     1     221.087 -69.472  -4.529  1.00  0.00     0.189 HD
HETATM    6  N3  UNL     1     221.947 -68.221  -6.038  1.00  0.00    -0.255 N 
HETATM    7  C13 UNL     1     221.860 -66.740  -5.995  1.00  0.00     0.279 C 
HETATM    8  N9  UNL     1     222.459 -66.597  -4.643  1.00  0.00    -0.315 N 
HETATM    9  C17 UNL     1     221.768 -68.829  -1.732  1.00  0.00     0.173 A 
HETATM   10  N12 UNL     1     221.411 -68.572  -0.469  1.00  0.00    -0.275 N 
ATOM     11  H12 UNL     1     221.478 -69.232   0.306  1.00  0.00     0.189 HD
HETATM   12  N13 UNL     1     220.954 -67.322  -0.376  1.00  0.00    -0.274 N 
ENDROOT
BRANCH   6  13
HETATM   13  C6  UNL     1     222.430 -68.934  -7.160  1.00  0.00     0.157 A 
HETATM   14  N4  UNL     1     223.763 -68.599  -7.463  1.00  0.00    -0.174 N 
HETATM   15  C7  UNL     1     224.347 -69.101  -8.537  1.00  0.00     0.678 A 
ATOM     16  H4  UNL     1     224.280 -67.968  -6.850  1.00  0.00     0.186 HD
HETATM   17  N5  UNL     1     225.568 -68.796  -8.814  1.00  0.00    -0.234 N 
HETATM   18  N6  UNL     1     223.660 -69.926  -9.333  1.00  0.00    -0.178 N 
ATOM     19  H52 UNL     1     226.092 -68.166  -8.206  1.00  0.00     0.174 HD
ATOM     20  H51 UNL     1     226.018 -69.183  -9.643  1.00  0.00     0.174 HD
HETATM   21  C8  UNL     1     222.402 -70.266  -9.082  1.00  0.00     0.150 A 
ATOM     22  H6  UNL     1     224.118 -70.307 -10.161  1.00  0.00     0.185 HD
HETATM   23  N7  UNL     1     221.704 -71.139  -9.949  1.00  0.00    -0.081 NA
HETATM   24  C9  UNL     1     221.714 -69.764  -7.937  1.00  0.00     0.102 A 
HETATM   25  C10 UNL     1     220.374 -70.204  -7.723  1.00  0.00     0.153 C 
BRANCH  25  26
HETATM   26  O1  UNL     1     219.892 -70.977  -8.655  1.00  0.00    -0.345 OA
ATOM     27  H1  UNL     1     219.857 -70.589  -9.522  1.00  0.00     0.219 HD
ENDBRANCH  25  26
BRANCH  25  28
HETATM   28  N8  UNL     1     219.497 -69.940  -6.667  1.00  0.00    -0.360 N 
ATOM     29  H8  UNL     1     219.168 -68.991  -6.488  1.00  0.00     0.162 HD
BRANCH  28  30
HETATM   30  C11 UNL     1     219.052 -71.075  -5.806  1.00  0.00     0.235 C 
BRANCH  30  31
HETATM   31  C12 UNL     1     219.908 -71.105  -4.598  1.00  0.00     0.191 C 
HETATM   32  O2  UNL     1     219.486 -70.646  -3.507  1.00  0.00    -0.647 OA
HETATM   33  O3  UNL     1     221.193 -71.633  -4.628  1.00  0.00    -0.647 OA
ENDBRANCH  30  31
ENDBRANCH  28  30
ENDBRANCH  25  28
ENDBRANCH   6  13
BRANCH   8  34
HETATM   34  C14 UNL     1     223.461 -65.656  -4.272  1.00  0.00     0.330 C 
HETATM   35  C15 UNL     1     223.106 -64.284  -4.707  1.00  0.00     0.111 C 
HETATM   36  N10 UNL     1     224.164 -63.683  -5.045  1.00  0.00    -0.376 N 
HETATM   37  C16 UNL     1     225.302 -64.543  -4.884  1.00  0.00     0.357 C 
ATOM     38  H10 UNL     1     224.204 -62.722  -5.386  1.00  0.00     0.160 HD
HETATM   39  N11 UNL     1     224.727 -65.898  -4.947  1.00  0.00    -0.034 N 
ATOM     40 2H11 UNL     1     225.304 -66.646  -4.563  1.00  0.00     0.282 HD
ATOM     41 1H11 UNL     1     224.666 -66.314  -5.876  1.00  0.00     0.282 HD
ENDBRANCH   8  34
BRANCH   1  42
HETATM   42  N1  UNL     1     220.590 -65.444  -1.968  1.00  0.00    -0.374 N 
HETATM   43  C1  UNL     1     219.394 -65.206  -2.788  1.00  0.00     0.150 C 
HETATM   44  C2  UNL     1     221.300 -64.237  -1.582  1.00  0.00     0.150 C 
ENDBRANCH   1  42
BRANCH   9  45
HETATM   45  O4  UNL     1     222.290 -70.026  -2.220  1.00  0.00    -0.344 OA
ATOM     46  H4  UNL     1     221.792 -70.813  -2.408  1.00  0.00     0.219 HD
ENDBRANCH   9  45
BRANCH  12  47
HETATM   47  C18 UNL     1     220.498 -66.751   0.850  1.00  0.00     0.155 C 
BRANCH  47  48
HETATM   48  C19 UNL     1     221.599 -66.165   1.707  1.00  0.00     0.005 A 
HETATM   49  C20 UNL     1     221.270 -65.806   3.112  1.00  0.00     0.007 A 
HETATM   50  C21 UNL     1     221.592 -64.757   2.104  1.00  0.00     0.007 A 
ENDBRANCH  47  48
ENDBRANCH  12  47
TORSDOF 10
ENDMDL
MODEL 2
REMARK VINA RESULT: -7.831558011      4.616      9.829
REMARK  10 active torsions:
REMARK  status: ('A' for Active; 'I' for Inactive)
REMARK    1  A    between atoms: N1_2  and  C3_4 
REMARK    2  A    between atoms: N3_9  and  C6_10 
REMARK    3  A    between atoms: C10_22  and  O1_23 
REMARK    4  A    between atoms: C10_22  and  N8_25 
REMARK    5  A    between atoms: N8_25  and  C11_27 
REMARK    6  A    between atoms: C11_27  and  C12_28 
REMARK    7  A    between atoms: N9_32  and  C14_33 
REMARK    8  A    between atoms: C17_41  and  O4_42 
REMARK    9  A    between atoms: N13_46  and  C18_47 
REMARK   10  A    between atoms: C18_47  and  C19_48 
ROOT
HETATM    1  C3  UNL     1     223.495 -65.318  -4.745  1.00  0.00     0.138 A 
HETATM    2  C4  UNL     1     223.833 -64.677  -3.587  1.00  0.00     0.107 A 
HETATM    3  C5  UNL     1     223.074 -63.949  -2.596  1.00  0.00     0.140 C 
HETATM    4  N2  UNL     1     223.458 -62.807  -2.041  1.00  0.00    -0.279 N 
ATOM      5  H2  UNL     1     224.328 -62.317  -2.251  1.00  0.00     0.189 HD
HETATM    6  N3  UNL     1     222.503 -62.381  -1.134  1.00  0.00    -0.255 N 
HETATM    7  C13 UNL     1     221.252 -62.967  -1.677  1.00  0.00     0.279 C 
HETATM    8  N9  UNL     1     221.840 -64.293  -2.000  1.00  0.00    -0.315 N 
HETATM    9  C17 UNL     1     225.230 -64.852  -3.458  1.00  0.00     0.173 A 
HETATM   10  N12 UNL     1     225.649 -65.566  -4.509  1.00  0.00    -0.275 N 
ATOM     11  H12 UNL     1     226.615 -65.844  -4.682  1.00  0.00     0.189 HD
HETATM   12  N13 UNL     1     224.613 -65.856  -5.297  1.00  0.00    -0.274 N 
ENDROOT
BRANCH   6  13
HETATM   13  C6  UNL     1     222.551 -61.651   0.077  1.00  0.00     0.157 A 
HETATM   14  N4  UNL     1     221.894 -62.324   1.124  1.00  0.00    -0.174 N 
HETATM   15  C7  UNL     1     221.760 -61.746   2.305  1.00  0.00     0.678 A 
ATOM     16  H4  UNL     1     221.520 -63.261   0.970  1.00  0.00     0.186 HD
HETATM   17  N5  UNL     1     221.159 -62.361   3.264  1.00  0.00    -0.234 N 
HETATM   18  N6  UNL     1     222.252 -60.517   2.494  1.00  0.00    -0.178 N 
ATOM     19  H52 UNL     1     220.784 -63.299   3.119  1.00  0.00     0.174 HD
ATOM     20  H51 UNL     1     221.056 -61.915   4.175  1.00  0.00     0.174 HD
HETATM   21  C8  UNL     1     222.879 -59.851   1.533  1.00  0.00     0.150 A 
ATOM     22  H6  UNL     1     222.143 -60.078   3.408  1.00  0.00     0.185 HD
HETATM   23  N7  UNL     1     223.383 -58.550   1.768  1.00  0.00    -0.081 NA
HETATM   24  C9  UNL     1     223.061 -60.419   0.236  1.00  0.00     0.102 A 
HETATM   25  C10 UNL     1     223.773 -59.648  -0.731  1.00  0.00     0.153 C 
BRANCH  25  26
HETATM   26  O1  UNL     1     224.124 -58.457  -0.336  1.00  0.00    -0.345 OA
ATOM     27  H1  UNL     1     223.443 -57.797  -0.393  1.00  0.00     0.219 HD
ENDBRANCH  25  26
BRANCH  25  28
HETATM   28  N8  UNL     1     224.159 -59.973  -2.035  1.00  0.00    -0.360 N 
ATOM     29  H8  UNL     1     223.460 -60.106  -2.766  1.00  0.00     0.162 HD
BRANCH  28  30
HETATM   30  C11 UNL     1     225.613 -60.121  -2.335  1.00  0.00     0.235 C 
BRANCH  30  31
HETATM   31  C12 UNL     1     226.265 -60.760  -1.169  1.00  0.00     0.191 C 
HETATM   32  O2  UNL     1     226.203 -62.005  -1.008  1.00  0.00    -0.647 OA
HETATM   33  O3  UNL     1     226.959 -60.016  -0.223  1.00  0.00    -0.647 OA
ENDBRANCH  30  31
ENDBRANCH  28  30
ENDBRANCH  25  28
ENDBRANCH   6  13
BRANCH   8  34
HETATM   34  C14 UNL     1     221.250 -65.558  -1.713  1.00  0.00     0.330 C 
HETATM   35  C15 UNL     1     219.787 -65.541  -1.949  1.00  0.00     0.111 C 
HETATM   36  N10 UNL     1     219.232 -66.271  -1.081  1.00  0.00    -0.376 N 
HETATM   37  C16 UNL     1     220.213 -66.839  -0.201  1.00  0.00     0.357 C 
ATOM     38  H10 UNL     1     218.226 -66.435  -1.015  1.00  0.00     0.160 HD
HETATM   39  N11 UNL     1     221.352 -65.911  -0.305  1.00  0.00    -0.034 N 
ATOM     40 2H11 UNL     1     222.255 -66.274   0.002  1.00  0.00     0.282 HD
ATOM     41 1H11 UNL     1     221.355 -65.130   0.353  1.00  0.00     0.282 HD
ENDBRANCH   8  34
BRANCH   1  42
HETATM   42  N1  UNL     1     222.174 -65.356  -5.276  1.00  0.00    -0.374 N 
HETATM   43  C1  UNL     1     221.226 -66.429  -4.944  1.00  0.00     0.150 C 
HETATM   44  C2  UNL     1     221.654 -64.363  -6.200  1.00  0.00     0.150 C 
ENDBRANCH   1  42
BRANCH   9  45
HETATM   45  O4  UNL     1     226.020 -64.364  -2.419  1.00  0.00    -0.344 OA
ATOM     46  H4  UNL     1     226.845 -63.902  -2.518  1.00  0.00     0.219 HD
ENDBRANCH   9  45
BRANCH  12  47
HETATM   47  C18 UNL     1     224.739 -66.613  -6.500  1.00  0.00     0.155 C 
BRANCH  47  48
HETATM   48  C19 UNL     1     224.123 -67.993  -6.431  1.00  0.00     0.005 A 
HETATM   49  C20 UNL     1     224.302 -68.894  -7.601  1.00  0.00     0.007 A 
HETATM   50  C21 UNL     1     222.960 -68.353  -7.242  1.00  0.00     0.007 A 
ENDBRANCH  47  48
ENDBRANCH  12  47
TORSDOF 10
ENDMDL
MODEL 3
REMARK VINA RESULT: -7.518504246      3.769      8.771
REMARK  10 active torsions:
REMARK  status: ('A' for Active; 'I' for Inactive)
REMARK    1  A    between atoms: N1_2  and  C3_4 
REMARK    2  A    between atoms: N3_9  and  C6_10 
REMARK    3  A    between atoms: C10_22  and  O1_23 
REMARK    4  A    between atoms: C10_22  and  N8_25 
REMARK    5  A    between atoms: N8_25  and  C11_27 
REMARK    6  A    between atoms: C11_27  and  C12_28 
REMARK    7  A    between atoms: N9_32  and  C14_33 
REMARK    8  A    between atoms: C17_41  and  O4_42 
REMARK    9  A    between atoms: N13_46  and  C18_47 
REMARK   10  A    between atoms: C18_47  and  C19_48 
ROOT
HETATM    1  C3  UNL     1     222.533 -64.284  -3.775  1.00  0.00     0.138 A 
HETATM    2  C4  UNL     1     221.744 -64.304  -2.660  1.00  0.00     0.107 A 
HETATM    3  C5  UNL     1     222.016 -64.170  -1.248  1.00  0.00     0.140 C 
HETATM    4  N2  UNL     1     221.467 -64.917  -0.300  1.00  0.00    -0.279 N 
ATOM      5  H2  UNL     1     220.796 -65.668  -0.461  1.00  0.00     0.189 HD
HETATM    6  N3  UNL     1     221.942 -64.526   0.940  1.00  0.00    -0.255 N 
HETATM    7  C13 UNL     1     223.283 -63.978   0.619  1.00  0.00     0.279 C 
HETATM    8  N9  UNL     1     222.851 -63.236  -0.593  1.00  0.00    -0.315 N 
HETATM    9  C17 UNL     1     220.427 -64.490  -3.139  1.00  0.00     0.173 A 
HETATM   10  N12 UNL     1     220.487 -64.571  -4.473  1.00  0.00    -0.275 N 
ATOM     11  H12 UNL     1     219.686 -64.706  -5.090  1.00  0.00     0.189 HD
HETATM   12  N13 UNL     1     221.753 -64.448  -4.875  1.00  0.00    -0.274 N 
ENDROOT
BRANCH   6  13
HETATM   13  C6  UNL     1     221.392 -64.509   2.244  1.00  0.00     0.157 A 
HETATM   14  N4  UNL     1     221.209 -63.197   2.720  1.00  0.00    -0.174 N 
HETATM   15  C7  UNL     1     220.792 -62.992   3.957  1.00  0.00     0.678 A 
ATOM     16  H4  UNL     1     221.399 -62.404   2.108  1.00  0.00     0.186 HD
HETATM   17  N5  UNL     1     220.623 -61.792   4.394  1.00  0.00    -0.234 N 
HETATM   18  N6  UNL     1     220.548 -64.039   4.751  1.00  0.00    -0.178 N 
ATOM     19  H52 UNL     1     220.809 -60.992   3.788  1.00  0.00     0.174 HD
ATOM     20  H51 UNL     1     220.301 -61.633   5.348  1.00  0.00     0.174 HD
HETATM   21  C8  UNL     1     220.708 -65.291   4.339  1.00  0.00     0.150 A 
ATOM     22  H6  UNL     1     220.228 -63.871   5.705  1.00  0.00     0.185 HD
HETATM   23  N7  UNL     1     220.445 -66.375   5.208  1.00  0.00    -0.081 NA
HETATM   24  C9  UNL     1     221.152 -65.583   3.014  1.00  0.00     0.102 A 
HETATM   25  C10 UNL     1     221.268 -66.955   2.642  1.00  0.00     0.153 C 
BRANCH  25  26
HETATM   26  O1  UNL     1     221.018 -67.808   3.595  1.00  0.00    -0.345 OA
ATOM     27  H1  UNL     1     221.737 -68.390   3.813  1.00  0.00     0.219 HD
ENDBRANCH  25  26
BRANCH  25  28
HETATM   28  N8  UNL     1     221.602 -67.529   1.412  1.00  0.00    -0.360 N 
ATOM     29  H8  UNL     1     222.537 -67.412   1.020  1.00  0.00     0.162 HD
BRANCH  28  30
HETATM   30  C11 UNL     1     220.565 -68.316   0.684  1.00  0.00     0.235 C 
BRANCH  30  31
HETATM   31  C12 UNL     1     220.394 -67.727  -0.663  1.00  0.00     0.191 C 
HETATM   32  O2  UNL     1     219.317 -67.161  -0.979  1.00  0.00    -0.647 OA
HETATM   33  O3  UNL     1     221.405 -67.780  -1.616  1.00  0.00    -0.647 OA
ENDBRANCH  30  31
ENDBRANCH  28  30
ENDBRANCH  25  28
ENDBRANCH   6  13
BRANCH   8  34
HETATM   34  C14 UNL     1     223.211 -61.898  -0.923  1.00  0.00     0.330 C 
HETATM   35  C15 UNL     1     223.941 -61.242   0.188  1.00  0.00     0.111 C 
HETATM   36  N10 UNL     1     223.611 -60.024   0.222  1.00  0.00    -0.376 N 
HETATM   37  C16 UNL     1     222.663 -59.732  -0.815  1.00  0.00     0.357 C 
ATOM     38  H10 UNL     1     223.968 -59.343   0.893  1.00  0.00     0.160 HD
HETATM   39  N11 UNL     1     222.050 -61.040  -1.104  1.00  0.00    -0.034 N 
ATOM     40 2H11 UNL     1     221.570 -61.119  -2.001  1.00  0.00     0.282 HD
ATOM     41 1H11 UNL     1     221.226 -61.279  -0.552  1.00  0.00     0.282 HD
ENDBRANCH   8  34
BRANCH   1  42
HETATM   42  N1  UNL     1     223.951 -64.154  -3.744  1.00  0.00    -0.374 N 
HETATM   43  C1  UNL     1     224.827 -65.232  -3.262  1.00  0.00     0.150 C 
HETATM   44  C2  UNL     1     224.655 -62.953  -4.159  1.00  0.00     0.150 C 
ENDBRANCH   1  42
BRANCH   9  45
HETATM   45  O4  UNL     1     219.278 -64.574  -2.354  1.00  0.00    -0.344 OA
ATOM     46  H4  UNL     1     218.856 -65.377  -2.072  1.00  0.00     0.219 HD
ENDBRANCH   9  45
BRANCH  12  47
HETATM   47  C18 UNL     1     222.141 -64.490  -6.247  1.00  0.00     0.155 C 
BRANCH  47  48
HETATM   48  C19 UNL     1     222.602 -65.851  -6.719  1.00  0.00     0.005 A 
HETATM   49  C20 UNL     1     221.586 -66.933  -6.820  1.00  0.00     0.007 A 
HETATM   50  C21 UNL     1     222.677 -66.992  -5.806  1.00  0.00     0.007 A 
ENDBRANCH  47  48
ENDBRANCH  12  47
TORSDOF 10
ENDMDL
MODEL 4
REMARK VINA RESULT: -7.126454070      4.501      9.298
REMARK  10 active torsions:
REMARK  status: ('A' for Active; 'I' for Inactive)
REMARK    1  A    between atoms: N1_2  and  C3_4 
REMARK    2  A    between atoms: N3_9  and  C6_10 
REMARK    3  A    between atoms: C10_22  and  O1_23 
REMARK    4  A    between atoms: C10_22  and  N8_25 
REMARK    5  A    between atoms: N8_25  and  C11_27 
REMARK    6  A    between atoms: C11_27  and  C12_28 
REMARK    7  A    between atoms: N9_32  and  C14_33 
REMARK    8  A    between atoms: C17_41  and  O4_42 
REMARK    9  A    between atoms: N13_46  and  C18_47 
REMARK   10  A    between atoms: C18_47  and  C19_48 
ROOT
HETATM    1  C3  UNL     1     222.112 -65.866  -3.874  1.00  0.00     0.138 A 
HETATM    2  C4  UNL     1     223.009 -64.901  -3.510  1.00  0.00     0.107 A 
HETATM    3  C5  UNL     1     222.965 -63.807  -2.567  1.00  0.00     0.140 C 
HETATM    4  N2  UNL     1     223.428 -62.588  -2.806  1.00  0.00    -0.279 N 
ATOM      5  H2  UNL     1     223.865 -62.286  -3.677  1.00  0.00     0.189 HD
HETATM    6  N3  UNL     1     223.231 -61.785  -1.695  1.00  0.00    -0.255 N 
HETATM    7  C13 UNL     1     222.039 -62.397  -1.057  1.00  0.00     0.279 C 
HETATM    8  N9  UNL     1     222.482 -63.804  -1.240  1.00  0.00    -0.315 N 
HETATM    9  C17 UNL     1     224.165 -65.157  -4.283  1.00  0.00     0.173 A 
HETATM   10  N12 UNL     1     223.914 -66.225  -5.049  1.00  0.00    -0.275 N 
ATOM     11  H12 UNL     1     224.569 -66.639  -5.712  1.00  0.00     0.189 HD
HETATM   12  N13 UNL     1     222.677 -66.666  -4.813  1.00  0.00    -0.274 N 
ENDROOT
BRANCH   6  13
HETATM   13  C6  UNL     1     223.932 -60.692  -1.133  1.00  0.00     0.157 A 
HETATM   14  N4  UNL     1     223.059 -59.696  -0.658  1.00  0.00    -0.174 N 
HETATM   15  C7  UNL     1     223.541 -58.560  -0.185  1.00  0.00     0.678 A 
ATOM     16  H4  UNL     1     222.051 -59.851  -0.679  1.00  0.00     0.186 HD
HETATM   17  N5  UNL     1     222.743 -57.648   0.252  1.00  0.00    -0.234 N 
HETATM   18  N6  UNL     1     224.864 -58.366  -0.164  1.00  0.00    -0.178 N 
ATOM     19  H52 UNL     1     221.734 -57.795   0.236  1.00  0.00     0.174 HD
ATOM     20  H51 UNL     1     223.116 -56.771   0.617  1.00  0.00     0.174 HD
HETATM   21  C8  UNL     1     225.720 -59.281  -0.602  1.00  0.00     0.150 A 
ATOM     22  H6  UNL     1     225.227 -57.486   0.202  1.00  0.00     0.185 HD
HETATM   23  N7  UNL     1     227.113 -59.040  -0.569  1.00  0.00    -0.081 NA
HETATM   24  C9  UNL     1     225.265 -60.531  -1.122  1.00  0.00     0.102 A 
HETATM   25  C10 UNL     1     226.252 -61.471  -1.543  1.00  0.00     0.153 C 
BRANCH  25  26
HETATM   26  O1  UNL     1     227.483 -61.049  -1.470  1.00  0.00    -0.345 OA
ATOM     27  H1  UNL     1     227.581 -60.105  -1.418  1.00  0.00     0.219 HD
ENDBRANCH  25  26
BRANCH  25  28
HETATM   28  N8  UNL     1     226.105 -62.779  -2.016  1.00  0.00    -0.360 N 
ATOM     29  H8  UNL     1     225.658 -62.960  -2.915  1.00  0.00     0.162 HD
BRANCH  28  30
HETATM   30  C11 UNL     1     226.617 -63.903  -1.179  1.00  0.00     0.235 C 
BRANCH  30  31
HETATM   31  C12 UNL     1     227.796 -64.488  -1.857  1.00  0.00     0.191 C 
HETATM   32  O2  UNL     1     228.931 -63.967  -1.723  1.00  0.00    -0.647 OA
HETATM   33  O3  UNL     1     227.690 -65.619  -2.658  1.00  0.00    -0.647 OA
ENDBRANCH  30  31
ENDBRANCH  28  30
ENDBRANCH  25  28
ENDBRANCH   6  13
BRANCH   8  34
HETATM   34  C14 UNL     1     222.427 -64.829  -0.252  1.00  0.00     0.330 C 
HETATM   35  C15 UNL     1     221.030 -65.125   0.146  1.00  0.00     0.111 C 
HETATM   36  N10 UNL     1     221.014 -65.401   1.379  1.00  0.00    -0.376 N 
HETATM   37  C16 UNL     1     222.338 -65.325   1.927  1.00  0.00     0.357 C 
ATOM     38  H10 UNL     1     220.176 -65.644   1.910  1.00  0.00     0.160 HD
HETATM   39  N11 UNL     1     223.047 -64.426   1.001  1.00  0.00    -0.034 N 
ATOM     40 2H11 UNL     1     224.066 -64.468   1.030  1.00  0.00     0.282 HD
ATOM     41 1H11 UNL     1     223.003 -63.431   1.222  1.00  0.00     0.282 HD
ENDBRANCH   8  34
BRANCH   1  42
HETATM   42  N1  UNL     1     220.788 -65.955  -3.357  1.00  0.00    -0.374 N 
HETATM   43  C1  UNL     1     220.281 -67.171  -2.706  1.00  0.00     0.150 C 
HETATM   44  C2  UNL     1     219.821 -64.874  -3.442  1.00  0.00     0.150 C 
ENDBRANCH   1  42
BRANCH   9  45
HETATM   45  O4  UNL     1     225.348 -64.421  -4.249  1.00  0.00    -0.344 OA
ATOM     46  H4  UNL     1     226.219 -64.762  -4.416  1.00  0.00     0.219 HD
ENDBRANCH   9  45
BRANCH  12  47
HETATM   47  C18 UNL     1     222.116 -67.799  -5.476  1.00  0.00     0.155 C 
BRANCH  47  48
HETATM   48  C19 UNL     1     222.870 -68.225  -6.717  1.00  0.00     0.005 A 
HETATM   49  C20 UNL     1     222.439 -69.476  -7.397  1.00  0.00     0.007 A 
HETATM   50  C21 UNL     1     223.759 -69.387  -6.710  1.00  0.00     0.007 A 
ENDBRANCH  47  48
ENDBRANCH  12  47
TORSDOF 10
ENDMDL
MODEL 5
REMARK VINA RESULT: -7.105446599      2.740      5.035
REMARK  10 active torsions:
REMARK  status: ('A' for Active; 'I' for Inactive)
REMARK    1  A    between atoms: N1_2  and  C3_4 
REMARK    2  A    between atoms: N3_9  and  C6_10 
REMARK    3  A    between atoms: C10_22  and  O1_23 
REMARK    4  A    between atoms: C10_22  and  N8_25 
REMARK    5  A    between atoms: N8_25  and  C11_27 
REMARK    6  A    between atoms: C11_27  and  C12_28 
REMARK    7  A    between atoms: N9_32  and  C14_33 
REMARK    8  A    between atoms: C17_41  and  O4_42 
REMARK    9  A    between atoms: N13_46  and  C18_47 
REMARK   10  A    between atoms: C18_47  and  C19_48 
ROOT
HETATM    1  C3  UNL     1     221.193 -65.571  -2.146  1.00  0.00     0.138 A 
HETATM    2  C4  UNL     1     220.863 -65.853  -3.441  1.00  0.00     0.107 A 
HETATM    3  C5  UNL     1     220.650 -67.083  -4.168  1.00  0.00     0.140 C 
HETATM    4  N2  UNL     1     221.100 -67.323  -5.392  1.00  0.00    -0.279 N 
ATOM      5  H2  UNL     1     221.645 -66.670  -5.955  1.00  0.00     0.189 HD
HETATM    6  N3  UNL     1     220.719 -68.593  -5.792  1.00  0.00    -0.255 N 
HETATM    7  C13 UNL     1     220.609 -69.322  -4.503  1.00  0.00     0.279 C 
HETATM    8  N9  UNL     1     219.920 -68.227  -3.774  1.00  0.00    -0.315 N 
HETATM    9  C17 UNL     1     220.725 -64.595  -4.072  1.00  0.00     0.173 A 
HETATM   10  N12 UNL     1     220.972 -63.651  -3.156  1.00  0.00    -0.275 N 
ATOM     11  H12 UNL     1     220.947 -62.646  -3.327  1.00  0.00     0.189 HD
HETATM   12  N13 UNL     1     221.256 -64.224  -1.986  1.00  0.00    -0.274 N 
ENDROOT
BRANCH   6  13
HETATM   13  C6  UNL     1     220.399 -69.178  -7.040  1.00  0.00     0.157 A 
HETATM   14  N4  UNL     1     219.009 -69.222  -7.259  1.00  0.00    -0.174 N 
HETATM   15  C7  UNL     1     218.525 -69.819  -8.333  1.00  0.00     0.678 A 
ATOM     16  H4  UNL     1     218.375 -68.790  -6.587  1.00  0.00     0.186 HD
HETATM   17  N5  UNL     1     217.254 -69.860  -8.536  1.00  0.00    -0.234 N 
HETATM   18  N6  UNL     1     219.366 -70.383  -9.207  1.00  0.00    -0.178 N 
ATOM     19  H52 UNL     1     216.612 -69.430  -7.869  1.00  0.00     0.174 HD
ATOM     20  H51 UNL     1     216.880 -70.321  -9.365  1.00  0.00     0.174 HD
HETATM   21  C8  UNL     1     220.682 -70.362  -9.036  1.00  0.00     0.150 A 
ATOM     22  H6  UNL     1     218.983 -70.844 -10.033  1.00  0.00     0.185 HD
HETATM   23  N7  UNL     1     221.541 -70.973  -9.979  1.00  0.00    -0.081 NA
HETATM   24  C9  UNL     1     221.270 -69.730  -7.899  1.00  0.00     0.102 A 
HETATM   25  C10 UNL     1     222.694 -69.725  -7.808  1.00  0.00     0.153 C 
BRANCH  25  26
HETATM   26  O1  UNL     1     223.310 -70.373  -8.755  1.00  0.00    -0.345 OA
ATOM     27  H1  UNL     1     223.952 -71.007  -8.457  1.00  0.00     0.219 HD
ENDBRANCH  25  26
BRANCH  25  28
HETATM   28  N8  UNL     1     223.533 -69.127  -6.862  1.00  0.00    -0.360 N 
ATOM     29  H8  UNL     1     223.365 -69.254  -5.864  1.00  0.00     0.162 HD
BRANCH  28  30
HETATM   30  C11 UNL     1     224.679 -68.302  -7.343  1.00  0.00     0.235 C 
BRANCH  30  31
HETATM   31  C12 UNL     1     224.711 -67.048  -6.557  1.00  0.00     0.191 C 
HETATM   32  O2  UNL     1     223.894 -66.862  -5.620  1.00  0.00    -0.647 OA
HETATM   33  O3  UNL     1     225.633 -66.043  -6.824  1.00  0.00    -0.647 OA
ENDBRANCH  30  31
ENDBRANCH  28  30
ENDBRANCH  25  28
ENDBRANCH   6  13
BRANCH   8  34
HETATM   34  C14 UNL     1     218.783 -68.376  -2.928  1.00  0.00     0.330 C 
HETATM   35  C15 UNL     1     219.114 -69.144  -1.704  1.00  0.00     0.111 C 
HETATM   36  N10 UNL     1     218.118 -69.856  -1.394  1.00  0.00    -0.376 N 
HETATM   37  C16 UNL     1     217.050 -69.658  -2.332  1.00  0.00     0.357 C 
ATOM     38  H10 UNL     1     218.078 -70.483  -0.590  1.00  0.00     0.160 HD
HETATM   39  N11 UNL     1     217.735 -69.176  -3.544  1.00  0.00    -0.034 N 
ATOM     40 2H11 UNL     1     217.149 -68.696  -4.228  1.00  0.00     0.282 HD
ATOM     41 1H11 UNL     1     218.046 -69.894  -4.198  1.00  0.00     0.282 HD
ENDBRANCH   8  34
BRANCH   1  42
HETATM   42  N1  UNL     1     221.464 -66.564  -1.161  1.00  0.00    -0.374 N 
HETATM   43  C1  UNL     1     220.881 -66.509   0.188  1.00  0.00     0.150 C 
HETATM   44  C2  UNL     1     222.344 -67.697  -1.386  1.00  0.00     0.150 C 
ENDBRANCH   1  42
BRANCH   9  45
HETATM   45  O4  UNL     1     220.394 -64.385  -5.410  1.00  0.00    -0.344 OA
ATOM     46  H4  UNL     1     220.294 -65.062  -6.069  1.00  0.00     0.219 HD
ENDBRANCH   9  45
BRANCH  12  47
HETATM   47  C18 UNL     1     221.562 -63.478  -0.808  1.00  0.00     0.155 C 
BRANCH  47  48
HETATM   48  C19 UNL     1     222.331 -62.201  -1.068  1.00  0.00     0.005 A 
HETATM   49  C20 UNL     1     223.040 -61.571   0.078  1.00  0.00     0.007 A 
HETATM   50  C21 UNL     1     221.865 -60.911  -0.558  1.00  0.00     0.007 A 
ENDBRANCH  47  48
ENDBRANCH  12  47
TORSDOF 10
ENDMDL
