MODEL 1
REMARK VINA RESULT: -8.902456675      0.000      0.000
REMARK  13 active torsions:
REMARK  status: ('A' for Active; 'I' for Inactive)
REMARK    1  A    between atoms: C2_2  and  O1_4 
REMARK    2  A    between atoms: C2_2  and  C4_6 
REMARK    3  A    between atoms: C4_6  and  N1_7 
REMARK    4  A    between atoms: C4_6  and  C17_43 
REMARK    5  A    between atoms: N1_7  and  C5_9 
REMARK    6  A    between atoms: C5_9  and  O2_10 
REMARK    7  A    between atoms: C5_9  and  C6_12 
REMARK    8  A    between atoms: N2_14  and  C8_15 
REMARK    9  A    between atoms: C8_15  and  C9_16 
REMARK   10  A    between atoms: N3_18  and  C11_19 
REMARK   11  A    between atoms: C13_24  and  N6_25 
REMARK   12  A    between atoms: C14_30  and  N8_31 
REMARK   13  A    between atoms: C15_39  and  C16_40 
ROOT
HETATM    1  C6  UNL     1     223.061 -62.584  -1.253  1.00  0.00     0.067 A 
HETATM    2  C7  UNL     1     223.720 -63.549  -2.045  1.00  0.00     0.129 A 
HETATM    3  N2  UNL     1     224.578 -62.883  -2.827  1.00  0.00    -0.296 N 
HETATM    4  N11 UNL     1     224.496 -61.599  -2.579  1.00  0.00    -0.291 N 
ATOM      5  H11 UNL     1     225.049 -60.879  -3.046  1.00  0.00     0.187 HD
HETATM    6  C15 UNL     1     223.554 -61.357  -1.598  1.00  0.00     0.141 A 
ENDROOT
BRANCH   3   7
HETATM    7  C8  UNL     1     225.473 -63.459  -3.818  1.00  0.00     0.207 C 
BRANCH   7   8
HETATM    8  C9  UNL     1     224.741 -64.369  -4.739  1.00  0.00     0.060 A 
HETATM    9  C10 UNL     1     224.892 -65.731  -4.883  1.00  0.00     0.142 A 
HETATM   10  N3  UNL     1     224.038 -66.192  -5.822  1.00  0.00    -0.242 N 
HETATM   11  N9  UNL     1     223.372 -65.119  -6.247  1.00  0.00    -0.015 NA
HETATM   12  N10 UNL     1     223.779 -64.031  -5.614  1.00  0.00    -0.285 N 
ATOM     13  H10 UNL     1     223.419 -63.089  -5.766  1.00  0.00     0.184 HD
BRANCH  10  14
HETATM   14  C11 UNL     1     223.857 -67.534  -6.280  1.00  0.00     0.139 A 
HETATM   15  C12 UNL     1     224.663 -68.031  -7.314  1.00  0.00     0.164 A 
HETATM   16  N4  UNL     1     225.666 -67.253  -7.934  1.00  0.00    -0.080 NA
HETATM   17  N5  UNL     1     224.464 -69.287  -7.717  1.00  0.00    -0.177 N 
HETATM   18  C13 UNL     1     223.521 -70.074  -7.159  1.00  0.00     0.678 A 
ATOM     19  H5  UNL     1     225.042 -69.664  -8.468  1.00  0.00     0.185 HD
HETATM   20  N7  UNL     1     222.738 -69.614  -6.166  1.00  0.00    -0.175 N 
HETATM   21  C14 UNL     1     222.903 -68.361  -5.732  1.00  0.00     0.146 A 
ATOM     22  H7  UNL     1     222.027 -70.215  -5.750  1.00  0.00     0.186 HD
BRANCH  18  23
HETATM   23  N6  UNL     1     223.376 -71.290  -7.600  1.00  0.00    -0.234 N 
ATOM     24  H62 UNL     1     224.139 -71.962  -7.516  1.00  0.00     0.174 HD
ATOM     25  H61 UNL     1     222.489 -71.556  -8.028  1.00  0.00     0.174 HD
ENDBRANCH  18  23
BRANCH  21  26
HETATM   26  N8  UNL     1     222.156 -67.923  -4.785  1.00  0.00    -0.383 N 
ATOM     27  H82 UNL     1     221.354 -68.478  -4.488  1.00  0.00     0.157 HD
ATOM     28  H81 UNL     1     222.375 -67.030  -4.344  1.00  0.00     0.157 HD
ENDBRANCH  21  26
ENDBRANCH  10  14
ENDBRANCH   7   8
ENDBRANCH   3   7
BRANCH   1  29
HETATM   29  C5  UNL     1     222.120 -62.927  -0.237  1.00  0.00     0.150 C 
BRANCH  29  30
HETATM   30  N1  UNL     1     221.788 -62.312   0.960  1.00  0.00    -0.357 N 
ATOM     31  H1  UNL     1     220.887 -61.841   1.033  1.00  0.00     0.162 HD
BRANCH  30  32
HETATM   32  C4  UNL     1     222.695 -62.311   2.147  1.00  0.00     0.167 C 
BRANCH  32  33
HETATM   33  C2  UNL     1     221.914 -62.608   3.375  1.00  0.00     0.076 C 
HETATM   34  C1  UNL     1     221.302 -64.000   3.254  1.00  0.00     0.048 C 
HETATM   35  C3  UNL     1     222.624 -62.490   4.670  1.00  0.00     0.048 C 
BRANCH  33  36
HETATM   36  O1  UNL     1     220.801 -61.709   3.326  1.00  0.00    -0.388 OA
ATOM     37  H1  UNL     1     221.009 -61.099   2.627  1.00  0.00     0.210 HD
ENDBRANCH  33  36
ENDBRANCH  32  33
BRANCH  32  38
HETATM   38  C17 UNL     1     223.456 -61.056   2.137  1.00  0.00     0.040 A 
HETATM   39  C18 UNL     1     224.808 -60.948   2.080  1.00  0.00     0.044 A 
HETATM   40  C19 UNL     1     225.460 -59.692   2.079  1.00  0.00     0.095 A 
HETATM   41  N12 UNL     1     224.726 -58.569   2.136  1.00  0.00    -0.319 N 
HETATM   42  C20 UNL     1     223.402 -58.675   2.191  1.00  0.00     0.324 A 
ATOM     43  H12 UNL     1     225.176 -57.653   2.136  1.00  0.00     0.170 HD
HETATM   44  O5  UNL     1     222.755 -57.580   2.242  1.00  0.00    -0.247 OA
HETATM   45  N13 UNL     1     222.781 -59.861   2.192  1.00  0.00    -0.310 N 
ATOM     46  H13 UNL     1     221.761 -59.878   2.234  1.00  0.00     0.170 HD
ENDBRANCH  32  38
ENDBRANCH  30  32
ENDBRANCH  29  30
BRANCH  29  47
HETATM   47  O2  UNL     1     221.448 -64.029  -0.469  1.00  0.00    -0.346 OA
ATOM     48  H2  UNL     1     221.470 -64.306  -1.377  1.00  0.00     0.219 HD
ENDBRANCH  29  47
ENDBRANCH   1  29
BRANCH   6  49
HETATM   49  C16 UNL     1     223.244 -60.010  -1.228  1.00  0.00     0.229 C 
HETATM   50  O3  UNL     1     224.108 -59.122  -1.153  1.00  0.00    -0.643 OA
HETATM   51  O4  UNL     1     221.946 -59.638  -0.936  1.00  0.00    -0.643 OA
ENDBRANCH   6  49
TORSDOF 13
ENDMDL
MODEL 2
REMARK VINA RESULT: -8.325959918      2.581      5.520
REMARK  13 active torsions:
REMARK  status: ('A' for Active; 'I' for Inactive)
REMARK    1  A    between atoms: C2_2  and  O1_4 
REMARK    2  A    between atoms: C2_2  and  C4_6 
REMARK    3  A    between atoms: C4_6  and  N1_7 
REMARK    4  A    between atoms: C4_6  and  C17_43 
REMARK    5  A    between atoms: N1_7  and  C5_9 
REMARK    6  A    between atoms: C5_9  and  O2_10 
REMARK    7  A    between atoms: C5_9  and  C6_12 
REMARK    8  A    between atoms: N2_14  and  C8_15 
REMARK    9  A    between atoms: C8_15  and  C9_16 
REMARK   10  A    between atoms: N3_18  and  C11_19 
REMARK   11  A    between atoms: C13_24  and  N6_25 
REMARK   12  A    between atoms: C14_30  and  N8_31 
REMARK   13  A    between atoms: C15_39  and  C16_40 
ROOT
HETATM    1  C6  UNL     1     221.464 -63.993  -1.441  1.00  0.00     0.067 A 
HETATM    2  C7  UNL     1     220.897 -64.582  -2.592  1.00  0.00     0.129 A 
HETATM    3  N2  UNL     1     220.385 -65.758  -2.210  1.00  0.00    -0.296 N 
HETATM    4  N11 UNL     1     220.593 -65.935  -0.929  1.00  0.00    -0.291 N 
ATOM      5  H11 UNL     1     220.297 -66.755  -0.399  1.00  0.00     0.187 HD
HETATM    6  C15 UNL     1     221.270 -64.854  -0.398  1.00  0.00     0.141 A 
ENDROOT
BRANCH   3   7
HETATM    7  C8  UNL     1     219.705 -66.723  -3.059  1.00  0.00     0.207 C 
BRANCH   7   8
HETATM    8  C9  UNL     1     220.650 -67.749  -3.572  1.00  0.00     0.060 A 
HETATM    9  C10 UNL     1     221.048 -67.960  -4.874  1.00  0.00     0.142 A 
HETATM   10  N3  UNL     1     221.923 -68.988  -4.928  1.00  0.00    -0.242 N 
HETATM   11  N9  UNL     1     222.056 -69.399  -3.667  1.00  0.00    -0.015 NA
HETATM   12  N10 UNL     1     221.308 -68.674  -2.853  1.00  0.00    -0.285 N 
ATOM     13  H10 UNL     1     221.242 -68.798  -1.843  1.00  0.00     0.184 HD
BRANCH  10  14
HETATM   14  C11 UNL     1     222.584 -69.537  -6.070  1.00  0.00     0.139 A 
HETATM   15  C12 UNL     1     223.632 -68.830  -6.674  1.00  0.00     0.164 A 
HETATM   16  N4  UNL     1     224.075 -67.576  -6.199  1.00  0.00    -0.080 NA
HETATM   17  N5  UNL     1     224.224 -69.374  -7.740  1.00  0.00    -0.177 N 
HETATM   18  C13 UNL     1     223.841 -70.569  -8.236  1.00  0.00     0.678 A 
ATOM     19  H5  UNL     1     224.988 -68.872  -8.192  1.00  0.00     0.185 HD
HETATM   20  N7  UNL     1     222.837 -71.262  -7.668  1.00  0.00    -0.175 N 
HETATM   21  C14 UNL     1     222.216 -70.753  -6.600  1.00  0.00     0.146 A 
ATOM     22  H7  UNL     1     222.554 -72.164  -8.050  1.00  0.00     0.186 HD
BRANCH  18  23
HETATM   23  N6  UNL     1     224.459 -71.043  -9.279  1.00  0.00    -0.234 N 
ATOM     24  H62 UNL     1     224.135 -70.811 -10.218  1.00  0.00     0.174 HD
ATOM     25  H61 UNL     1     225.271 -71.645  -9.139  1.00  0.00     0.174 HD
ENDBRANCH  18  23
BRANCH  21  26
HETATM   26  N8  UNL     1     221.259 -71.415  -6.059  1.00  0.00    -0.383 N 
ATOM     27  H82 UNL     1     221.461 -72.020  -5.263  1.00  0.00     0.157 HD
ATOM     28  H81 UNL     1     220.314 -71.326  -6.431  1.00  0.00     0.157 HD
ENDBRANCH  21  26
ENDBRANCH  10  14
ENDBRANCH   7   8
ENDBRANCH   3   7
BRANCH   1  29
HETATM   29  C5  UNL     1     222.043 -62.690  -1.442  1.00  0.00     0.150 C 
BRANCH  29  30
HETATM   30  N1  UNL     1     223.075 -62.139  -2.186  1.00  0.00    -0.357 N 
ATOM     31  H1  UNL     1     222.848 -61.435  -2.889  1.00  0.00     0.162 HD
BRANCH  30  32
HETATM   32  C4  UNL     1     224.505 -62.532  -2.003  1.00  0.00     0.167 C 
BRANCH  32  33
HETATM   33  C2  UNL     1     225.324 -61.326  -1.720  1.00  0.00     0.076 C 
HETATM   34  C1  UNL     1     224.907 -60.741  -0.374  1.00  0.00     0.048 C 
HETATM   35  C3  UNL     1     226.796 -61.489  -1.756  1.00  0.00     0.048 C 
BRANCH  33  36
HETATM   36  O1  UNL     1     224.899 -60.361  -2.690  1.00  0.00    -0.388 OA
ATOM     37  H1  UNL     1     224.115 -60.732  -3.078  1.00  0.00     0.210 HD
ENDBRANCH  33  36
ENDBRANCH  32  33
BRANCH  32  38
HETATM   38  C17 UNL     1     224.904 -63.346  -3.157  1.00  0.00     0.040 A 
HETATM   39  C18 UNL     1     225.670 -64.466  -3.111  1.00  0.00     0.044 A 
HETATM   40  C19 UNL     1     226.011 -65.188  -4.278  1.00  0.00     0.095 A 
HETATM   41  N12 UNL     1     225.569 -64.760  -5.472  1.00  0.00    -0.319 N 
HETATM   42  C20 UNL     1     224.819 -63.663  -5.516  1.00  0.00     0.324 A 
ATOM     43  H12 UNL     1     225.803 -65.266  -6.326  1.00  0.00     0.170 HD
HETATM   44  O5  UNL     1     224.425 -63.301  -6.672  1.00  0.00    -0.247 OA
HETATM   45  N13 UNL     1     224.492 -62.976  -4.414  1.00  0.00    -0.310 N 
ATOM     46  H13 UNL     1     223.913 -62.142  -4.512  1.00  0.00     0.170 HD
ENDBRANCH  32  38
ENDBRANCH  30  32
ENDBRANCH  29  30
BRANCH  29  47
HETATM   47  O2  UNL     1     221.512 -61.858  -0.580  1.00  0.00    -0.346 OA
ATOM     48  H2  UNL     1     220.582 -61.718  -0.707  1.00  0.00     0.219 HD
ENDBRANCH  29  47
ENDBRANCH   1  29
BRANCH   6  49
HETATM   49  C16 UNL     1     221.674 -64.875   0.976  1.00  0.00     0.229 C 
HETATM   50  O3  UNL     1     220.858 -64.882   1.911  1.00  0.00    -0.643 OA
HETATM   51  O4  UNL     1     223.012 -64.888   1.320  1.00  0.00    -0.643 OA
ENDBRANCH   6  49
TORSDOF 13
ENDMDL
MODEL 3
REMARK VINA RESULT: -8.304140670      4.232      7.086
REMARK  13 active torsions:
REMARK  status: ('A' for Active; 'I' for Inactive)
REMARK    1  A    between atoms: C2_2  and  O1_4 
REMARK    2  A    between atoms: C2_2  and  C4_6 
REMARK    3  A    between atoms: C4_6  and  N1_7 
REMARK    4  A    between atoms: C4_6  and  C17_43 
REMARK    5  A    between atoms: N1_7  and  C5_9 
REMARK    6  A    between atoms: C5_9  and  O2_10 
REMARK    7  A    between atoms: C5_9  and  C6_12 
REMARK    8  A    between atoms: N2_14  and  C8_15 
REMARK    9  A    between atoms: C8_15  and  C9_16 
REMARK   10  A    between atoms: N3_18  and  C11_19 
REMARK   11  A    between atoms: C13_24  and  N6_25 
REMARK   12  A    between atoms: C14_30  and  N8_31 
REMARK   13  A    between atoms: C15_39  and  C16_40 
ROOT
HETATM    1  C6  UNL     1     221.246 -66.305  -1.905  1.00  0.00     0.067 A 
HETATM    2  C7  UNL     1     221.398 -67.680  -1.623  1.00  0.00     0.129 A 
HETATM    3  N2  UNL     1     220.291 -68.287  -2.067  1.00  0.00    -0.296 N 
HETATM    4  N11 UNL     1     219.480 -67.401  -2.590  1.00  0.00    -0.291 N 
ATOM      5  H11 UNL     1     218.569 -67.614  -2.997  1.00  0.00     0.187 HD
HETATM    6  C15 UNL     1     220.033 -66.138  -2.512  1.00  0.00     0.141 A 
ENDROOT
BRANCH   3   7
HETATM    7  C8  UNL     1     219.992 -69.709  -1.987  1.00  0.00     0.207 C 
BRANCH   7   8
HETATM    8  C9  UNL     1     220.199 -70.376  -3.299  1.00  0.00     0.060 A 
HETATM    9  C10 UNL     1     220.902 -69.908  -4.388  1.00  0.00     0.142 A 
HETATM   10  N3  UNL     1     220.859 -70.815  -5.388  1.00  0.00    -0.242 N 
HETATM   11  N9  UNL     1     220.136 -71.827  -4.912  1.00  0.00    -0.015 NA
HETATM   12  N10 UNL     1     219.738 -71.581  -3.675  1.00  0.00    -0.285 N 
ATOM     13  H10 UNL     1     219.172 -72.206  -3.100  1.00  0.00     0.184 HD
BRANCH  10  14
HETATM   14  C11 UNL     1     221.453 -70.739  -6.686  1.00  0.00     0.139 A 
HETATM   15  C12 UNL     1     222.847 -70.811  -6.819  1.00  0.00     0.164 A 
HETATM   16  N4  UNL     1     223.707 -70.959  -5.709  1.00  0.00    -0.080 NA
HETATM   17  N5  UNL     1     223.365 -70.734  -8.046  1.00  0.00    -0.177 N 
HETATM   18  C13 UNL     1     222.589 -70.593  -9.141  1.00  0.00     0.678 A 
ATOM     19  H5  UNL     1     224.378 -70.785  -8.160  1.00  0.00     0.185 HD
HETATM   20  N7  UNL     1     221.250 -70.521  -9.032  1.00  0.00    -0.175 N 
HETATM   21  C14 UNL     1     220.689 -70.593  -7.821  1.00  0.00     0.146 A 
ATOM     22  H7  UNL     1     220.670 -70.414  -9.865  1.00  0.00     0.186 HD
BRANCH  18  23
HETATM   23  N6  UNL     1     223.158 -70.522 -10.309  1.00  0.00    -0.234 N 
ATOM     24  H62 UNL     1     223.810 -69.766 -10.519  1.00  0.00     0.174 HD
ATOM     25  H61 UNL     1     222.942 -71.236 -11.006  1.00  0.00     0.174 HD
ENDBRANCH  18  23
BRANCH  21  26
HETATM   26  N8  UNL     1     219.411 -70.526  -7.719  1.00  0.00    -0.383 N 
ATOM     27  H82 UNL     1     218.996 -69.785  -7.154  1.00  0.00     0.157 HD
ATOM     28  H81 UNL     1     218.832 -71.212  -8.202  1.00  0.00     0.157 HD
ENDBRANCH  21  26
ENDBRANCH  10  14
ENDBRANCH   7   8
ENDBRANCH   3   7
BRANCH   1  29
HETATM   29  C5  UNL     1     222.266 -65.343  -1.643  1.00  0.00     0.150 C 
BRANCH  29  30
HETATM   30  N1  UNL     1     223.069 -64.595  -2.489  1.00  0.00    -0.357 N 
ATOM     31  H1  UNL     1     223.015 -63.578  -2.441  1.00  0.00     0.162 HD
BRANCH  30  32
HETATM   32  C4  UNL     1     224.011 -65.215  -3.470  1.00  0.00     0.167 C 
BRANCH  32  33
HETATM   33  C2  UNL     1     225.162 -64.307  -3.703  1.00  0.00     0.076 C 
HETATM   34  C1  UNL     1     224.842 -62.932  -3.123  1.00  0.00     0.048 C 
HETATM   35  C3  UNL     1     226.485 -64.757  -3.209  1.00  0.00     0.048 C 
BRANCH  33  36
HETATM   36  O1  UNL     1     225.192 -64.112  -5.121  1.00  0.00    -0.388 OA
ATOM     37  H1  UNL     1     224.486 -64.652  -5.458  1.00  0.00     0.210 HD
ENDBRANCH  33  36
ENDBRANCH  32  33
BRANCH  32  38
HETATM   38  C17 UNL     1     223.238 -65.616  -4.651  1.00  0.00     0.040 A 
HETATM   39  C18 UNL     1     223.285 -66.831  -5.256  1.00  0.00     0.044 A 
HETATM   40  C19 UNL     1     222.506 -67.130  -6.397  1.00  0.00     0.095 A 
HETATM   41  N12 UNL     1     221.691 -66.191  -6.905  1.00  0.00    -0.319 N 
HETATM   42  C20 UNL     1     221.645 -65.001  -6.313  1.00  0.00     0.324 A 
ATOM     43  H12 UNL     1     221.120 -66.385  -7.727  1.00  0.00     0.170 HD
HETATM   44  O5  UNL     1     220.857 -64.147  -6.833  1.00  0.00    -0.247 OA
HETATM   45  N13 UNL     1     222.381 -64.713  -5.231  1.00  0.00    -0.310 N 
ATOM     46  H13 UNL     1     222.301 -63.783  -4.820  1.00  0.00     0.170 HD
ENDBRANCH  32  38
ENDBRANCH  30  32
ENDBRANCH  29  30
BRANCH  29  47
HETATM   47  O2  UNL     1     222.497 -65.129  -0.371  1.00  0.00    -0.346 OA
ATOM     48  H2  UNL     1     222.156 -65.808   0.199  1.00  0.00     0.219 HD
ENDBRANCH  29  47
ENDBRANCH   1  29
BRANCH   6  49
HETATM   49  C16 UNL     1     219.279 -65.004  -2.954  1.00  0.00     0.229 C 
HETATM   50  O3  UNL     1     218.039 -64.984  -2.949  1.00  0.00    -0.643 OA
HETATM   51  O4  UNL     1     219.916 -63.867  -3.412  1.00  0.00    -0.643 OA
ENDBRANCH   6  49
TORSDOF 13
ENDMDL
MODEL 4
REMARK VINA RESULT: -8.289891467      4.196      9.736
REMARK  13 active torsions:
REMARK  status: ('A' for Active; 'I' for Inactive)
REMARK    1  A    between atoms: C2_2  and  O1_4 
REMARK    2  A    between atoms: C2_2  and  C4_6 
REMARK    3  A    between atoms: C4_6  and  N1_7 
REMARK    4  A    between atoms: C4_6  and  C17_43 
REMARK    5  A    between atoms: N1_7  and  C5_9 
REMARK    6  A    between atoms: C5_9  and  O2_10 
REMARK    7  A    between atoms: C5_9  and  C6_12 
REMARK    8  A    between atoms: N2_14  and  C8_15 
REMARK    9  A    between atoms: C8_15  and  C9_16 
REMARK   10  A    between atoms: N3_18  and  C11_19 
REMARK   11  A    between atoms: C13_24  and  N6_25 
REMARK   12  A    between atoms: C14_30  and  N8_31 
REMARK   13  A    between atoms: C15_39  and  C16_40 
ROOT
HETATM    1  C6  UNL     1     221.331 -69.012  -3.171  1.00  0.00     0.067 A 
HETATM    2  C7  UNL     1     220.660 -67.805  -3.465  1.00  0.00     0.129 A 
HETATM    3  N2  UNL     1     220.495 -67.165  -2.301  1.00  0.00    -0.296 N 
HETATM    4  N11 UNL     1     221.004 -67.879  -1.328  1.00  0.00    -0.291 N 
ATOM      5  H11 UNL     1     221.004 -67.607  -0.345  1.00  0.00     0.187 HD
HETATM    6  C15 UNL     1     221.542 -69.052  -1.822  1.00  0.00     0.141 A 
ENDROOT
BRANCH   3   7
HETATM    7  C8  UNL     1     219.844 -65.879  -2.105  1.00  0.00     0.207 C 
BRANCH   7   8
HETATM    8  C9  UNL     1     220.765 -64.901  -1.469  1.00  0.00     0.060 A 
HETATM    9  C10 UNL     1     221.746 -64.143  -2.071  1.00  0.00     0.142 A 
HETATM   10  N3  UNL     1     222.363 -63.373  -1.150  1.00  0.00    -0.242 N 
HETATM   11  N9  UNL     1     221.764 -63.660   0.005  1.00  0.00    -0.015 NA
HETATM   12  N10 UNL     1     220.815 -64.564  -0.169  1.00  0.00    -0.285 N 
ATOM     13  H10 UNL     1     220.217 -64.944   0.566  1.00  0.00     0.184 HD
BRANCH  10  14
HETATM   14  C11 UNL     1     223.428 -62.438  -1.338  1.00  0.00     0.139 A 
HETATM   15  C12 UNL     1     224.739 -62.901  -1.511  1.00  0.00     0.164 A 
HETATM   16  N4  UNL     1     225.064 -64.276  -1.509  1.00  0.00    -0.080 NA
HETATM   17  N5  UNL     1     225.707 -61.999  -1.682  1.00  0.00    -0.177 N 
HETATM   18  C13 UNL     1     225.453 -60.674  -1.693  1.00  0.00     0.678 A 
ATOM     19  H5  UNL     1     226.667 -62.320  -1.809  1.00  0.00     0.185 HD
HETATM   20  N7  UNL     1     224.201 -60.210  -1.529  1.00  0.00    -0.175 N 
HETATM   21  C14 UNL     1     223.201 -61.080  -1.353  1.00  0.00     0.146 A 
ATOM     22  H7  UNL     1     224.017 -59.207  -1.538  1.00  0.00     0.186 HD
BRANCH  18  23
HETATM   23  N6  UNL     1     226.443 -59.846  -1.863  1.00  0.00    -0.234 N 
ATOM     24  H62 UNL     1     226.273 -58.905  -2.217  1.00  0.00     0.174 HD
ATOM     25  H61 UNL     1     227.388 -60.156  -1.633  1.00  0.00     0.174 HD
ENDBRANCH  18  23
BRANCH  21  26
HETATM   26  N8  UNL     1     222.007 -60.637  -1.197  1.00  0.00    -0.383 N 
ATOM     27  H82 UNL     1     221.558 -60.137  -1.965  1.00  0.00     0.157 HD
ATOM     28  H81 UNL     1     221.526 -60.791  -0.311  1.00  0.00     0.157 HD
ENDBRANCH  21  26
ENDBRANCH  10  14
ENDBRANCH   7   8
ENDBRANCH   3   7
BRANCH   1  29
HETATM   29  C5  UNL     1     221.750 -69.930  -4.180  1.00  0.00     0.150 C 
BRANCH  29  30
HETATM   30  N1  UNL     1     222.598 -69.784  -5.267  1.00  0.00    -0.357 N 
ATOM     31  H1  UNL     1     223.551 -70.139  -5.193  1.00  0.00     0.162 HD
BRANCH  30  32
HETATM   32  C4  UNL     1     222.175 -69.129  -6.541  1.00  0.00     0.167 C 
BRANCH  32  33
HETATM   33  C2  UNL     1     222.573 -69.973  -7.696  1.00  0.00     0.076 C 
HETATM   34  C1  UNL     1     223.380 -71.165  -7.190  1.00  0.00     0.048 C 
HETATM   35  C3  UNL     1     221.490 -70.450  -8.587  1.00  0.00     0.048 C 
BRANCH  33  36
HETATM   36  O1  UNL     1     223.512 -69.174  -8.425  1.00  0.00    -0.388 OA
ATOM     37  H1  UNL     1     223.074 -68.966  -9.242  1.00  0.00     0.210 HD
ENDBRANCH  33  36
ENDBRANCH  32  33
BRANCH  32  38
HETATM   38  C17 UNL     1     222.673 -67.748  -6.530  1.00  0.00     0.040 A 
HETATM   39  C18 UNL     1     221.931 -66.635  -6.764  1.00  0.00     0.044 A 
HETATM   40  C19 UNL     1     222.497 -65.339  -6.737  1.00  0.00     0.095 A 
HETATM   41  N12 UNL     1     223.806 -65.197  -6.473  1.00  0.00    -0.319 N 
HETATM   42  C20 UNL     1     224.532 -66.287  -6.244  1.00  0.00     0.324 A 
ATOM     43  H12 UNL     1     224.235 -64.271  -6.448  1.00  0.00     0.170 HD
HETATM   44  O5  UNL     1     225.767 -66.096  -5.998  1.00  0.00    -0.247 OA
HETATM   45  N13 UNL     1     224.001 -67.516  -6.267  1.00  0.00    -0.310 N 
ATOM     46  H13 UNL     1     224.608 -68.314  -6.082  1.00  0.00     0.170 HD
ENDBRANCH  32  38
ENDBRANCH  30  32
ENDBRANCH  29  30
BRANCH  29  47
HETATM   47  O2  UNL     1     221.237 -71.131  -4.068  1.00  0.00    -0.346 OA
ATOM     48  H2  UNL     1     221.867 -71.793  -3.809  1.00  0.00     0.219 HD
ENDBRANCH  29  47
ENDBRANCH   1  29
BRANCH   6  49
HETATM   49  C16 UNL     1     222.082 -70.021  -0.918  1.00  0.00     0.229 C 
HETATM   50  O3  UNL     1     221.891 -71.240  -1.052  1.00  0.00    -0.643 OA
HETATM   51  O4  UNL     1     222.852 -69.630   0.160  1.00  0.00    -0.643 OA
ENDBRANCH   6  49
TORSDOF 13
ENDMDL
MODEL 5
REMARK VINA RESULT: -8.267363326      3.213      9.811
REMARK  13 active torsions:
REMARK  status: ('A' for Active; 'I' for Inactive)
REMARK    1  A    between atoms: C2_2  and  O1_4 
REMARK    2  A    between atoms: C2_2  and  C4_6 
REMARK    3  A    between atoms: C4_6  and  N1_7 
REMARK    4  A    between atoms: C4_6  and  C17_43 
REMARK    5  A    between atoms: N1_7  and  C5_9 
REMARK    6  A    between atoms: C5_9  and  O2_10 
REMARK    7  A    between atoms: C5_9  and  C6_12 
REMARK    8  A    between atoms: N2_14  and  C8_15 
REMARK    9  A    between atoms: C8_15  and  C9_16 
REMARK   10  A    between atoms: N3_18  and  C11_19 
REMARK   11  A    between atoms: C13_24  and  N6_25 
REMARK   12  A    between atoms: C14_30  and  N8_31 
REMARK   13  A    between atoms: C15_39  and  C16_40 
ROOT
HETATM    1  C6  UNL     1     224.001 -64.910  -5.381  1.00  0.00     0.067 A 
HETATM    2  C7  UNL     1     225.011 -64.338  -4.575  1.00  0.00     0.129 A 
HETATM    3  N2  UNL     1     224.425 -63.378  -3.850  1.00  0.00    -0.296 N 
HETATM    4  N11 UNL     1     223.150 -63.315  -4.146  1.00  0.00    -0.291 N 
ATOM      5  H11 UNL     1     222.486 -62.663  -3.728  1.00  0.00     0.187 HD
HETATM    6  C15 UNL     1     222.833 -64.257  -5.106  1.00  0.00     0.141 A 
ENDROOT
BRANCH   3   7
HETATM    7  C8  UNL     1     225.073 -62.509  -2.880  1.00  0.00     0.207 C 
BRANCH   7   8
HETATM    8  C9  UNL     1     224.120 -62.077  -1.824  1.00  0.00     0.060 A 
HETATM    9  C10 UNL     1     223.800 -62.728  -0.652  1.00  0.00     0.142 A 
HETATM   10  N3  UNL     1     222.894 -62.006   0.043  1.00  0.00    -0.242 N 
HETATM   11  N9  UNL     1     222.665 -60.924  -0.700  1.00  0.00    -0.015 NA
HETATM   12  N10 UNL     1     223.384 -60.952  -1.809  1.00  0.00    -0.285 N 
ATOM     13  H10 UNL     1     223.380 -60.236  -2.535  1.00  0.00     0.184 HD
BRANCH  10  14
HETATM   14  C11 UNL     1     222.295 -62.306   1.306  1.00  0.00     0.139 A 
HETATM   15  C12 UNL     1     221.780 -63.588   1.545  1.00  0.00     0.164 A 
HETATM   16  N4  UNL     1     221.827 -64.616   0.579  1.00  0.00    -0.080 NA
HETATM   17  N5  UNL     1     221.226 -63.829   2.735  1.00  0.00    -0.177 N 
HETATM   18  C13 UNL     1     221.155 -62.883   3.694  1.00  0.00     0.678 A 
ATOM     19  H5  UNL     1     220.846 -64.757   2.925  1.00  0.00     0.185 HD
HETATM   20  N7  UNL     1     221.644 -61.648   3.482  1.00  0.00    -0.175 N 
HETATM   21  C14 UNL     1     222.206 -61.363   2.304  1.00  0.00     0.146 A 
ATOM     22  H7  UNL     1     221.586 -60.938   4.212  1.00  0.00     0.186 HD
BRANCH  18  23
HETATM   23  N6  UNL     1     220.600 -63.184   4.833  1.00  0.00    -0.234 N 
ATOM     24  H62 UNL     1     219.947 -62.536   5.274  1.00  0.00     0.174 HD
ATOM     25  H61 UNL     1     220.829 -64.077   5.271  1.00  0.00     0.174 HD
ENDBRANCH  18  23
BRANCH  21  26
HETATM   26  N8  UNL     1     222.673 -60.184   2.102  1.00  0.00    -0.383 N 
ATOM     27  H82 UNL     1     223.089 -59.674   2.882  1.00  0.00     0.157 HD
ATOM     28  H81 UNL     1     222.622 -59.776   1.169  1.00  0.00     0.157 HD
ENDBRANCH  21  26
ENDBRANCH  10  14
ENDBRANCH   7   8
ENDBRANCH   3   7
BRANCH   1  29
HETATM   29  C5  UNL     1     224.235 -66.024  -6.240  1.00  0.00     0.150 C 
BRANCH  29  30
HETATM   30  N1  UNL     1     223.408 -67.054  -6.661  1.00  0.00    -0.357 N 
ATOM     31  H1  UNL     1     222.703 -66.855  -7.371  1.00  0.00     0.162 HD
BRANCH  30  32
HETATM   32  C4  UNL     1     223.505 -68.443  -6.120  1.00  0.00     0.167 C 
BRANCH  32  33
HETATM   33  C2  UNL     1     223.638 -69.410  -7.239  1.00  0.00     0.076 C 
HETATM   34  C1  UNL     1     222.250 -69.751  -7.773  1.00  0.00     0.048 C 
HETATM   35  C3  UNL     1     224.520 -69.022  -8.363  1.00  0.00     0.048 C 
BRANCH  33  36
HETATM   36  O1  UNL     1     224.104 -70.617  -6.624  1.00  0.00    -0.388 OA
ATOM     37  H1  UNL     1     225.050 -70.526  -6.593  1.00  0.00     0.210 HD
ENDBRANCH  33  36
ENDBRANCH  32  33
BRANCH  32  38
HETATM   38  C17 UNL     1     222.382 -68.651  -5.197  1.00  0.00     0.040 A 
HETATM   39  C18 UNL     1     221.295 -67.847  -5.075  1.00  0.00     0.044 A 
HETATM   40  C19 UNL     1     220.259 -68.123  -4.153  1.00  0.00     0.095 A 
HETATM   41  N12 UNL     1     220.345 -69.211  -3.370  1.00  0.00    -0.319 N 
HETATM   42  C20 UNL     1     221.410 -69.998  -3.490  1.00  0.00     0.324 A 
ATOM     43  H12 UNL     1     219.610 -69.429  -2.698  1.00  0.00     0.170 HD
HETATM   44  O5  UNL     1     221.442 -71.016  -2.725  1.00  0.00    -0.247 OA
HETATM   45  N13 UNL     1     222.393 -69.742  -4.362  1.00  0.00    -0.310 N 
ATOM     46  H13 UNL     1     223.185 -70.384  -4.409  1.00  0.00     0.170 HD
ENDBRANCH  32  38
ENDBRANCH  30  32
ENDBRANCH  29  30
BRANCH  29  47
HETATM   47  O2  UNL     1     225.453 -66.098  -6.715  1.00  0.00    -0.346 OA
ATOM     48  H2  UNL     1     225.976 -65.323  -6.549  1.00  0.00     0.219 HD
ENDBRANCH  29  47
ENDBRANCH   1  29
BRANCH   6  49
HETATM   49  C16 UNL     1     221.504 -64.310  -5.637  1.00  0.00     0.229 C 
HETATM   50  O3  UNL     1     221.271 -64.552  -6.831  1.00  0.00    -0.643 OA
HETATM   51  O4  UNL     1     220.409 -64.088  -4.824  1.00  0.00    -0.643 OA
ENDBRANCH   6  49
TORSDOF 13
ENDMDL
