MODEL 1
REMARK VINA RESULT: -9.141473767      0.000      0.000
REMARK  13 active torsions:
REMARK  status: ('A' for Active; 'I' for Inactive)
REMARK    1  A    between atoms: C3_3  and  O1_4 
REMARK    2  A    between atoms: C4_6  and  N1_7 
REMARK    3  A    between atoms: C11_14  and  O2_15 
REMARK    4  A    between atoms: C12_17  and  C13_18 
REMARK    5  A    between atoms: N2_19  and  N3_21 
REMARK       I    between atoms: N3_21  and  C14_23 
REMARK    6  A    between atoms: C14_23  and  C15_25 
REMARK    7  A    between atoms: C15_25  and  C16_26 
REMARK    8  A    between atoms: C15_25  and  N5_31 
REMARK    9  A    between atoms: C16_26  and  N4_27 
REMARK   10  A    between atoms: N5_31  and  N6_33 
REMARK       I    between atoms: N6_33  and  C17_35 
REMARK   11  A    between atoms: C17_35  and  C18_37 
REMARK   12  A    between atoms: N7_39  and  C20_40 
REMARK   13  A    between atoms: C21_46  and  N10_47 
ROOT
HETATM    1  C15 UNL     1     225.232 -60.413  -2.245  1.00  0.00     0.218 C 
ENDROOT
BRANCH   1   2
HETATM    2  C14 UNL     1     225.285 -61.865  -2.673  1.00  0.00     0.262 C 
HETATM    3  N3  UNL     1     224.626 -62.206  -3.872  1.00  0.00    -0.269 N 
ATOM      4  H3  UNL     1     224.135 -61.501  -4.420  1.00  0.00     0.190 HD
HETATM    5  O3  UNL     1     225.904 -62.673  -1.953  1.00  0.00    -0.269 OA
BRANCH   3   6
HETATM    6  N2  UNL     1     224.666 -63.539  -4.286  1.00  0.00    -0.308 N 
HETATM    7  C13 UNL     1     223.887 -63.937  -5.209  1.00  0.00     0.122 C 
ATOM      8  H2  UNL     1     225.318 -64.191  -3.849  1.00  0.00     0.186 HD
BRANCH   7   9
HETATM    9  C12 UNL     1     223.800 -65.281  -5.754  1.00  0.00     0.023 A 
HETATM   10  C2  UNL     1     222.635 -66.019  -5.756  1.00  0.00    -0.012 A 
HETATM   11  C1  UNL     1     221.391 -65.442  -5.186  1.00  0.00     0.052 C 
HETATM   12  C3  UNL     1     222.645 -67.309  -6.300  1.00  0.00     0.099 A 
HETATM   13  C4  UNL     1     223.805 -67.856  -6.837  1.00  0.00     0.067 A 
HETATM   14  C10 UNL     1     224.959 -67.113  -6.829  1.00  0.00     0.069 A 
HETATM   15  C11 UNL     1     224.949 -65.845  -6.294  1.00  0.00     0.080 A 
BRANCH  12  16
HETATM   16  O1  UNL     1     221.534 -68.105  -6.341  1.00  0.00    -0.358 OA
ATOM     17  H1  UNL     1     221.537 -69.010  -6.052  1.00  0.00     0.217 HD
ENDBRANCH  12  16
BRANCH  13  18
HETATM   18  N1  UNL     1     223.887 -69.162  -7.398  1.00  0.00    -0.379 N 
HETATM   19  C5  UNL     1     223.869 -70.278  -6.487  1.00  0.00     0.123 C 
HETATM   20  C6  UNL     1     222.785 -71.258  -6.800  1.00  0.00     0.020 C 
HETATM   21  C7  UNL     1     222.281 -71.068  -8.205  1.00  0.00     0.003 C 
HETATM   22  C8  UNL     1     223.478 -70.778  -9.121  1.00  0.00     0.020 C 
HETATM   23  C9  UNL     1     223.997 -69.396  -8.808  1.00  0.00     0.123 C 
ENDBRANCH  13  18
BRANCH  15  24
HETATM   24  O2  UNL     1     226.113 -65.117  -6.297  1.00  0.00    -0.360 OA
ATOM     25  H2  UNL     1     226.130 -64.279  -5.849  1.00  0.00     0.217 HD
ENDBRANCH  15  24
ENDBRANCH   7   9
ENDBRANCH   3   6
ENDBRANCH   1   2
BRANCH   1  26
HETATM   26  C16 UNL     1     226.427 -60.276  -1.304  1.00  0.00     0.265 C 
BRANCH  26  27
HETATM   27  N4  UNL     1     226.036 -60.254   0.081  1.00  0.00    -0.077 N 
ATOM     28  H43 UNL     1     226.238 -61.145   0.534  1.00  0.00     0.274 HD
ATOM     29  H42 UNL     1     226.651 -59.650   0.627  1.00  0.00     0.274 HD
ATOM     30  H41 UNL     1     225.058 -59.991   0.206  1.00  0.00     0.274 HD
ENDBRANCH  26  27
ENDBRANCH   1  26
BRANCH   1  31
HETATM   31  N5  UNL     1     223.975 -60.209  -1.619  1.00  0.00    -0.318 N 
ATOM     32  H5  UNL     1     223.724 -59.309  -1.211  1.00  0.00     0.181 HD
BRANCH  31  33
HETATM   33  N6  UNL     1     223.105 -61.280  -1.586  1.00  0.00    -0.268 N 
HETATM   34  C17 UNL     1     222.945 -62.059  -0.402  1.00  0.00     0.289 C 
HETATM   35  O4  UNL     1     223.612 -61.752   0.607  1.00  0.00    -0.264 OA
ATOM     36  H6  UNL     1     222.570 -61.518  -2.420  1.00  0.00     0.190 HD
BRANCH  34  37
HETATM   37  C18 UNL     1     222.033 -63.188  -0.347  1.00  0.00     0.136 A 
HETATM   38  C19 UNL     1     221.499 -63.887  -1.408  1.00  0.00     0.156 A 
HETATM   39  N7  UNL     1     220.696 -64.879  -0.968  1.00  0.00    -0.229 N 
HETATM   40  N11 UNL     1     220.743 -64.782   0.348  1.00  0.00    -0.234 N 
HETATM   41  N12 UNL     1     221.517 -63.803   0.751  1.00  0.00    -0.279 N 
ATOM     42  H11 UNL     1     220.234 -65.400   0.979  1.00  0.00     0.209 HD
ATOM     43  H12 UNL     1     221.699 -63.546   1.722  1.00  0.00     0.189 HD
BRANCH  39  44
HETATM   44  C20 UNL     1     219.960 -65.823  -1.733  1.00  0.00     0.195 A 
HETATM   45  N8  UNL     1     218.730 -65.644  -2.273  1.00  0.00    -0.220 N 
HETATM   46  O5  UNL     1     218.398 -66.730  -2.897  1.00  0.00    -0.153 OA
ATOM     47  H8  UNL     1     218.162 -64.799  -2.201  1.00  0.00     0.198 HD
HETATM   48  N9  UNL     1     219.326 -67.633  -2.813  1.00  0.00    -0.222 N 
HETATM   49  C21 UNL     1     220.327 -67.093  -2.083  1.00  0.00     0.169 A 
ATOM     50  H9  UNL     1     219.304 -68.569  -3.218  1.00  0.00     0.198 HD
BRANCH  49  51
HETATM   51  N10 UNL     1     221.430 -67.683  -1.779  1.00  0.00    -0.381 N 
ATOM     52 2H10 UNL     1     222.291 -67.215  -1.494  1.00  0.00     0.157 HD
ATOM     53 1H10 UNL     1     221.601 -68.689  -1.778  1.00  0.00     0.157 HD
ENDBRANCH  49  51
ENDBRANCH  39  44
ENDBRANCH  34  37
ENDBRANCH  31  33
ENDBRANCH   1  31
TORSDOF 13
ENDMDL
MODEL 2
REMARK VINA RESULT: -9.096471173      1.888      2.408
REMARK  13 active torsions:
REMARK  status: ('A' for Active; 'I' for Inactive)
REMARK    1  A    between atoms: C3_3  and  O1_4 
REMARK    2  A    between atoms: C4_6  and  N1_7 
REMARK    3  A    between atoms: C11_14  and  O2_15 
REMARK    4  A    between atoms: C12_17  and  C13_18 
REMARK    5  A    between atoms: N2_19  and  N3_21 
REMARK       I    between atoms: N3_21  and  C14_23 
REMARK    6  A    between atoms: C14_23  and  C15_25 
REMARK    7  A    between atoms: C15_25  and  C16_26 
REMARK    8  A    between atoms: C15_25  and  N5_31 
REMARK    9  A    between atoms: C16_26  and  N4_27 
REMARK   10  A    between atoms: N5_31  and  N6_33 
REMARK       I    between atoms: N6_33  and  C17_35 
REMARK   11  A    between atoms: C17_35  and  C18_37 
REMARK   12  A    between atoms: N7_39  and  C20_40 
REMARK   13  A    between atoms: C21_46  and  N10_47 
ROOT
HETATM    1  C15 UNL     1     228.120 -62.158  -1.953  1.00  0.00     0.218 C 
ENDROOT
BRANCH   1   2
HETATM    2  C14 UNL     1     227.376 -63.409  -2.375  1.00  0.00     0.262 C 
HETATM    3  N3  UNL     1     227.401 -63.740  -3.746  1.00  0.00    -0.269 N 
ATOM      4  H3  UNL     1     227.899 -63.157  -4.417  1.00  0.00     0.190 HD
HETATM    5  O3  UNL     1     226.788 -64.073  -1.500  1.00  0.00    -0.269 OA
BRANCH   3   6
HETATM    6  N2  UNL     1     226.725 -64.890  -4.155  1.00  0.00    -0.308 N 
HETATM    7  C13 UNL     1     225.574 -64.789  -4.689  1.00  0.00     0.122 C 
ATOM      8  H2  UNL     1     227.151 -65.808  -4.027  1.00  0.00     0.186 HD
BRANCH   7   9
HETATM    9  C12 UNL     1     224.740 -65.879  -5.167  1.00  0.00     0.023 A 
HETATM   10  C2  UNL     1     223.679 -66.386  -4.446  1.00  0.00    -0.012 A 
HETATM   11  C1  UNL     1     223.343 -65.813  -3.118  1.00  0.00     0.052 C 
HETATM   12  C3  UNL     1     222.930 -67.440  -4.985  1.00  0.00     0.099 A 
HETATM   13  C4  UNL     1     223.237 -67.980  -6.228  1.00  0.00     0.067 A 
HETATM   14  C10 UNL     1     224.295 -67.468  -6.936  1.00  0.00     0.069 A 
HETATM   15  C11 UNL     1     225.031 -66.432  -6.407  1.00  0.00     0.080 A 
BRANCH  12  16
HETATM   16  O1  UNL     1     221.864 -67.999  -4.336  1.00  0.00    -0.358 OA
ATOM     17  H1  UNL     1     221.857 -68.902  -4.039  1.00  0.00     0.217 HD
ENDBRANCH  12  16
BRANCH  13  18
HETATM   18  N1  UNL     1     222.523 -69.056  -6.830  1.00  0.00    -0.379 N 
HETATM   19  C5  UNL     1     223.157 -70.351  -6.838  1.00  0.00     0.123 C 
HETATM   20  C6  UNL     1     222.309 -71.409  -6.212  1.00  0.00     0.020 C 
HETATM   21  C7  UNL     1     220.873 -70.966  -6.130  1.00  0.00     0.003 C 
HETATM   22  C8  UNL     1     220.515 -70.221  -7.423  1.00  0.00     0.020 C 
HETATM   23  C9  UNL     1     221.230 -68.893  -7.425  1.00  0.00     0.123 C 
ENDBRANCH  13  18
BRANCH  15  24
HETATM   24  O2  UNL     1     226.085 -65.933  -7.131  1.00  0.00    -0.360 OA
ATOM     25  H2  UNL     1     226.350 -65.031  -6.990  1.00  0.00     0.217 HD
ENDBRANCH  15  24
ENDBRANCH   7   9
ENDBRANCH   3   6
ENDBRANCH   1   2
BRANCH   1  26
HETATM   26  C16 UNL     1     228.731 -62.546  -0.608  1.00  0.00     0.265 C 
BRANCH  26  27
HETATM   27  N4  UNL     1     228.016 -61.981   0.505  1.00  0.00    -0.077 N 
ATOM     28  H43 UNL     1     227.530 -61.126   0.233  1.00  0.00     0.274 HD
ATOM     29  H42 UNL     1     227.210 -62.555   0.753  1.00  0.00     0.274 HD
ATOM     30  H41 UNL     1     228.616 -61.822   1.314  1.00  0.00     0.274 HD
ENDBRANCH  26  27
ENDBRANCH   1  26
BRANCH   1  31
HETATM   31  N5  UNL     1     227.165 -61.112  -1.875  1.00  0.00    -0.318 N 
ATOM     32  H5  UNL     1     227.446 -60.148  -1.697  1.00  0.00     0.181 HD
BRANCH  31  33
HETATM   33  N6  UNL     1     225.839 -61.453  -2.050  1.00  0.00    -0.268 N 
HETATM   34  C17 UNL     1     224.869 -61.166  -1.045  1.00  0.00     0.289 C 
HETATM   35  O4  UNL     1     225.246 -60.601   0.002  1.00  0.00    -0.264 OA
ATOM     36  H6  UNL     1     225.549 -61.916  -2.910  1.00  0.00     0.190 HD
BRANCH  34  37
HETATM   37  C18 UNL     1     223.469 -61.515  -1.211  1.00  0.00     0.136 A 
HETATM   38  C19 UNL     1     222.951 -62.691  -1.709  1.00  0.00     0.156 A 
HETATM   39  N7  UNL     1     221.601 -62.656  -1.707  1.00  0.00    -0.229 N 
HETATM   40  N11 UNL     1     221.304 -61.468  -1.213  1.00  0.00    -0.234 N 
HETATM   41  N12 UNL     1     222.372 -60.769  -0.909  1.00  0.00    -0.279 N 
ATOM     42  H11 UNL     1     220.350 -61.132  -1.082  1.00  0.00     0.209 HD
ATOM     43  H12 UNL     1     222.378 -59.829  -0.514  1.00  0.00     0.189 HD
BRANCH  39  44
HETATM   44  C20 UNL     1     220.692 -63.659  -2.137  1.00  0.00     0.195 A 
HETATM   45  N8  UNL     1     220.070 -63.726  -3.339  1.00  0.00    -0.220 N 
HETATM   46  O5  UNL     1     219.322 -64.785  -3.351  1.00  0.00    -0.153 OA
ATOM     47  H8  UNL     1     220.172 -63.059  -4.103  1.00  0.00     0.198 HD
HETATM   48  N9  UNL     1     219.400 -65.438  -2.231  1.00  0.00    -0.222 N 
HETATM   49  C21 UNL     1     220.257 -64.753  -1.442  1.00  0.00     0.169 A 
ATOM     50  H9  UNL     1     218.909 -66.300  -1.994  1.00  0.00     0.198 HD
BRANCH  49  51
HETATM   51  N10 UNL     1     220.595 -65.086  -0.245  1.00  0.00    -0.381 N 
ATOM     52 2H10 UNL     1     221.452 -65.577   0.010  1.00  0.00     0.157 HD
ATOM     53 1H10 UNL     1     220.064 -64.909   0.608  1.00  0.00     0.157 HD
ENDBRANCH  49  51
ENDBRANCH  39  44
ENDBRANCH  34  37
ENDBRANCH  31  33
ENDBRANCH   1  31
TORSDOF 13
ENDMDL
MODEL 3
REMARK VINA RESULT: -8.741859393      2.793      3.906
REMARK  13 active torsions:
REMARK  status: ('A' for Active; 'I' for Inactive)
REMARK    1  A    between atoms: C3_3  and  O1_4 
REMARK    2  A    between atoms: C4_6  and  N1_7 
REMARK    3  A    between atoms: C11_14  and  O2_15 
REMARK    4  A    between atoms: C12_17  and  C13_18 
REMARK    5  A    between atoms: N2_19  and  N3_21 
REMARK       I    between atoms: N3_21  and  C14_23 
REMARK    6  A    between atoms: C14_23  and  C15_25 
REMARK    7  A    between atoms: C15_25  and  C16_26 
REMARK    8  A    between atoms: C15_25  and  N5_31 
REMARK    9  A    between atoms: C16_26  and  N4_27 
REMARK   10  A    between atoms: N5_31  and  N6_33 
REMARK       I    between atoms: N6_33  and  C17_35 
REMARK   11  A    between atoms: C17_35  and  C18_37 
REMARK   12  A    between atoms: N7_39  and  C20_40 
REMARK   13  A    between atoms: C21_46  and  N10_47 
ROOT
HETATM    1  C15 UNL     1     225.413 -60.391  -2.265  1.00  0.00     0.218 C 
ENDROOT
BRANCH   1   2
HETATM    2  C14 UNL     1     225.297 -61.853  -2.643  1.00  0.00     0.262 C 
HETATM    3  N3  UNL     1     224.577 -62.159  -3.816  1.00  0.00    -0.269 N 
ATOM      4  H3  UNL     1     224.154 -61.422  -4.380  1.00  0.00     0.190 HD
HETATM    5  O3  UNL     1     225.838 -62.701  -1.907  1.00  0.00    -0.269 OA
BRANCH   3   6
HETATM    6  N2  UNL     1     224.461 -63.500  -4.184  1.00  0.00    -0.308 N 
HETATM    7  C13 UNL     1     224.050 -63.803  -5.349  1.00  0.00     0.122 C 
ATOM      8  H2  UNL     1     224.706 -64.236  -3.521  1.00  0.00     0.186 HD
BRANCH   7   9
HETATM    9  C12 UNL     1     223.872 -65.140  -5.888  1.00  0.00     0.023 A 
HETATM   10  C2  UNL     1     222.640 -65.650  -6.244  1.00  0.00    -0.012 A 
HETATM   11  C1  UNL     1     221.420 -64.820  -6.086  1.00  0.00     0.052 C 
HETATM   12  C3  UNL     1     222.563 -66.953  -6.754  1.00  0.00     0.099 A 
HETATM   13  C4  UNL     1     223.702 -67.736  -6.907  1.00  0.00     0.067 A 
HETATM   14  C10 UNL     1     224.921 -67.218  -6.549  1.00  0.00     0.069 A 
HETATM   15  C11 UNL     1     224.997 -65.938  -6.048  1.00  0.00     0.080 A 
BRANCH  12  16
HETATM   16  O1  UNL     1     221.383 -67.532  -7.130  1.00  0.00    -0.358 OA
ATOM     17  H1  UNL     1     221.337 -68.391  -7.533  1.00  0.00     0.217 HD
ENDBRANCH  12  16
BRANCH  13  18
HETATM   18  N1  UNL     1     223.693 -69.068  -7.410  1.00  0.00    -0.379 N 
HETATM   19  C5  UNL     1     223.388 -70.126  -6.481  1.00  0.00     0.123 C 
HETATM   20  C6  UNL     1     222.244 -70.975  -6.932  1.00  0.00     0.020 C 
HETATM   21  C7  UNL     1     221.990 -70.791  -8.404  1.00  0.00     0.003 C 
HETATM   22  C8  UNL     1     223.340 -70.701  -9.128  1.00  0.00     0.020 C 
HETATM   23  C9  UNL     1     223.984 -69.383  -8.778  1.00  0.00     0.123 C 
ENDBRANCH  13  18
BRANCH  15  24
HETATM   24  O2  UNL     1     226.226 -65.438  -5.697  1.00  0.00    -0.360 OA
ATOM     25  H2  UNL     1     226.469 -65.423  -4.778  1.00  0.00     0.217 HD
ENDBRANCH  15  24
ENDBRANCH   7   9
ENDBRANCH   3   6
ENDBRANCH   1   2
BRANCH   1  26
HETATM   26  C16 UNL     1     226.479 -60.390  -1.171  1.00  0.00     0.265 C 
BRANCH  26  27
HETATM   27  N4  UNL     1     227.131 -59.114  -1.040  1.00  0.00    -0.077 N 
ATOM     28  H43 UNL     1     228.144 -59.210  -1.117  1.00  0.00     0.274 HD
ATOM     29  H42 UNL     1     226.960 -58.529  -1.857  1.00  0.00     0.274 HD
ATOM     30  H41 UNL     1     226.872 -58.631  -0.180  1.00  0.00     0.274 HD
ENDBRANCH  26  27
ENDBRANCH   1  26
BRANCH   1  31
HETATM   31  N5  UNL     1     224.131 -59.971  -1.825  1.00  0.00    -0.318 N 
ATOM     32  H5  UNL     1     223.646 -59.193  -2.270  1.00  0.00     0.181 HD
BRANCH  31  33
HETATM   33  N6  UNL     1     223.569 -60.661  -0.770  1.00  0.00    -0.268 N 
HETATM   34  C17 UNL     1     223.114 -59.977   0.395  1.00  0.00     0.289 C 
HETATM   35  O4  UNL     1     223.238 -58.736   0.443  1.00  0.00    -0.264 OA
ATOM     36  H6  UNL     1     223.477 -61.675  -0.825  1.00  0.00     0.190 HD
BRANCH  34  37
HETATM   37  C18 UNL     1     222.517 -60.684   1.514  1.00  0.00     0.136 A 
HETATM   38  C19 UNL     1     223.145 -61.533   2.400  1.00  0.00     0.156 A 
HETATM   39  N7  UNL     1     222.268 -62.000   3.314  1.00  0.00    -0.229 N 
HETATM   40  N11 UNL     1     221.119 -61.440   2.985  1.00  0.00    -0.234 N 
HETATM   41  N12 UNL     1     221.223 -60.661   1.935  1.00  0.00    -0.279 N 
ATOM     42  H11 UNL     1     220.248 -61.596   3.491  1.00  0.00     0.209 HD
ATOM     43  H12 UNL     1     220.465 -60.129   1.507  1.00  0.00     0.189 HD
BRANCH  39  44
HETATM   44  C20 UNL     1     222.509 -62.894   4.392  1.00  0.00     0.195 A 
HETATM   45  N8  UNL     1     223.668 -63.039   5.080  1.00  0.00    -0.220 N 
HETATM   46  O5  UNL     1     223.491 -63.949   5.986  1.00  0.00    -0.153 OA
ATOM     47  H8  UNL     1     224.531 -62.523   4.912  1.00  0.00     0.198 HD
HETATM   48  N9  UNL     1     222.285 -64.428   5.955  1.00  0.00    -0.222 N 
HETATM   49  C21 UNL     1     221.638 -63.783   4.958  1.00  0.00     0.169 A 
ATOM     50  H9  UNL     1     221.901 -65.151   6.563  1.00  0.00     0.198 HD
BRANCH  49  51
HETATM   51  N10 UNL     1     220.413 -63.982   4.615  1.00  0.00    -0.381 N 
ATOM     52 2H10 UNL     1     220.014 -64.882   4.350  1.00  0.00     0.157 HD
ATOM     53 1H10 UNL     1     219.676 -63.279   4.559  1.00  0.00     0.157 HD
ENDBRANCH  49  51
ENDBRANCH  39  44
ENDBRANCH  34  37
ENDBRANCH  31  33
ENDBRANCH   1  31
TORSDOF 13
ENDMDL
MODEL 4
REMARK VINA RESULT: -8.210506823      3.321      6.506
REMARK  13 active torsions:
REMARK  status: ('A' for Active; 'I' for Inactive)
REMARK    1  A    between atoms: C3_3  and  O1_4 
REMARK    2  A    between atoms: C4_6  and  N1_7 
REMARK    3  A    between atoms: C11_14  and  O2_15 
REMARK    4  A    between atoms: C12_17  and  C13_18 
REMARK    5  A    between atoms: N2_19  and  N3_21 
REMARK       I    between atoms: N3_21  and  C14_23 
REMARK    6  A    between atoms: C14_23  and  C15_25 
REMARK    7  A    between atoms: C15_25  and  C16_26 
REMARK    8  A    between atoms: C15_25  and  N5_31 
REMARK    9  A    between atoms: C16_26  and  N4_27 
REMARK   10  A    between atoms: N5_31  and  N6_33 
REMARK       I    between atoms: N6_33  and  C17_35 
REMARK   11  A    between atoms: C17_35  and  C18_37 
REMARK   12  A    between atoms: N7_39  and  C20_40 
REMARK   13  A    between atoms: C21_46  and  N10_47 
ROOT
HETATM    1  C15 UNL     1     219.734 -67.459   3.923  1.00  0.00     0.218 C 
ENDROOT
BRANCH   1   2
HETATM    2  C14 UNL     1     219.681 -67.548   2.412  1.00  0.00     0.262 C 
HETATM    3  N3  UNL     1     220.417 -68.585   1.802  1.00  0.00    -0.269 N 
ATOM      4  H3  UNL     1     220.962 -69.241   2.361  1.00  0.00     0.190 HD
HETATM    5  O3  UNL     1     218.996 -66.712   1.792  1.00  0.00    -0.269 OA
BRANCH   3   6
HETATM    6  N2  UNL     1     220.379 -68.686   0.411  1.00  0.00    -0.308 N 
HETATM    7  C13 UNL     1     221.420 -68.422  -0.271  1.00  0.00     0.122 C 
ATOM      8  H2  UNL     1     219.519 -68.972  -0.058  1.00  0.00     0.186 HD
BRANCH   7   9
HETATM    9  C12 UNL     1     221.549 -68.477  -1.717  1.00  0.00     0.023 A 
HETATM   10  C2  UNL     1     221.477 -67.358  -2.522  1.00  0.00    -0.012 A 
HETATM   11  C1  UNL     1     221.263 -66.020  -1.915  1.00  0.00     0.052 C 
HETATM   12  C3  UNL     1     221.611 -67.506  -3.908  1.00  0.00     0.099 A 
HETATM   13  C4  UNL     1     221.813 -68.755  -4.484  1.00  0.00     0.067 A 
HETATM   14  C10 UNL     1     221.882 -69.861  -3.674  1.00  0.00     0.069 A 
HETATM   15  C11 UNL     1     221.752 -69.716  -2.312  1.00  0.00     0.080 A 
BRANCH  12  16
HETATM   16  O1  UNL     1     221.552 -66.450  -4.775  1.00  0.00    -0.358 OA
ATOM     17  H1  UNL     1     222.326 -65.998  -5.089  1.00  0.00     0.217 HD
ENDBRANCH  12  16
BRANCH  13  18
HETATM   18  N1  UNL     1     221.948 -68.977  -5.885  1.00  0.00    -0.379 N 
HETATM   19  C5  UNL     1     223.252 -68.778  -6.465  1.00  0.00     0.123 C 
HETATM   20  C6  UNL     1     223.741 -69.981  -7.205  1.00  0.00     0.020 C 
HETATM   21  C7  UNL     1     222.602 -70.913  -7.523  1.00  0.00     0.003 C 
HETATM   22  C8  UNL     1     221.384 -70.076  -7.938  1.00  0.00     0.020 C 
HETATM   23  C9  UNL     1     220.849 -69.370  -6.717  1.00  0.00     0.123 C 
ENDBRANCH  13  18
BRANCH  15  24
HETATM   24  O2  UNL     1     221.825 -70.833  -1.518  1.00  0.00    -0.360 OA
ATOM     25  H2  UNL     1     222.277 -70.774  -0.684  1.00  0.00     0.217 HD
ENDBRANCH  15  24
ENDBRANCH   7   9
ENDBRANCH   3   6
ENDBRANCH   1   2
BRANCH   1  26
HETATM   26  C16 UNL     1     218.388 -66.838   4.290  1.00  0.00     0.265 C 
BRANCH  26  27
HETATM   27  N4  UNL     1     218.409 -66.205   5.582  1.00  0.00    -0.077 N 
ATOM     28  H43 UNL     1     219.128 -66.614   6.180  1.00  0.00     0.274 HD
ATOM     29  H42 UNL     1     218.770 -65.253   5.520  1.00  0.00     0.274 HD
ATOM     30  H41 UNL     1     217.497 -66.223   6.039  1.00  0.00     0.274 HD
ENDBRANCH  26  27
ENDBRANCH   1  26
BRANCH   1  31
HETATM   31  N5  UNL     1     220.854 -66.653   4.253  1.00  0.00    -0.318 N 
ATOM     32  H5  UNL     1     221.457 -66.880   5.044  1.00  0.00     0.181 HD
BRANCH  31  33
HETATM   33  N6  UNL     1     221.093 -65.550   3.460  1.00  0.00    -0.268 N 
HETATM   34  C17 UNL     1     221.095 -64.235   4.013  1.00  0.00     0.289 C 
HETATM   35  O4  UNL     1     220.871 -64.103   5.234  1.00  0.00    -0.264 OA
ATOM     36  H6  UNL     1     221.272 -65.676   2.464  1.00  0.00     0.190 HD
BRANCH  34  37
HETATM   37  C18 UNL     1     221.347 -63.061   3.196  1.00  0.00     0.136 A 
HETATM   38  C19 UNL     1     222.150 -62.974   2.079  1.00  0.00     0.156 A 
HETATM   39  N7  UNL     1     222.134 -61.721   1.578  1.00  0.00    -0.229 N 
HETATM   40  N11 UNL     1     221.329 -61.054   2.384  1.00  0.00    -0.234 N 
HETATM   41  N12 UNL     1     220.846 -61.805   3.346  1.00  0.00    -0.279 N 
ATOM     42  H11 UNL     1     221.106 -60.065   2.272  1.00  0.00     0.209 HD
ATOM     43  H12 UNL     1     220.206 -61.500   4.079  1.00  0.00     0.189 HD
BRANCH  39  44
HETATM   44  C20 UNL     1     222.822 -61.215   0.443  1.00  0.00     0.195 A 
HETATM   45  N8  UNL     1     224.143 -60.923   0.360  1.00  0.00    -0.220 N 
HETATM   46  O5  UNL     1     224.389 -60.488  -0.836  1.00  0.00    -0.153 OA
ATOM     47  H8  UNL     1     224.826 -61.028   1.110  1.00  0.00     0.198 HD
HETATM   48  N9  UNL     1     223.316 -60.467  -1.567  1.00  0.00    -0.222 N 
HETATM   49  C21 UNL     1     222.308 -60.920  -0.789  1.00  0.00     0.169 A 
ATOM     50  H9  UNL     1     223.248 -60.167  -2.540  1.00  0.00     0.198 HD
BRANCH  49  51
HETATM   51  N10 UNL     1     221.081 -61.046  -1.159  1.00  0.00    -0.381 N 
ATOM     52 2H10 UNL     1     220.292 -60.532  -0.769  1.00  0.00     0.157 HD
ATOM     53 1H10 UNL     1     220.726 -61.668  -1.887  1.00  0.00     0.157 HD
ENDBRANCH  49  51
ENDBRANCH  39  44
ENDBRANCH  34  37
ENDBRANCH  31  33
ENDBRANCH   1  31
TORSDOF 13
ENDMDL
MODEL 5
REMARK VINA RESULT: -8.120181768      2.577      3.870
REMARK  13 active torsions:
REMARK  status: ('A' for Active; 'I' for Inactive)
REMARK    1  A    between atoms: C3_3  and  O1_4 
REMARK    2  A    between atoms: C4_6  and  N1_7 
REMARK    3  A    between atoms: C11_14  and  O2_15 
REMARK    4  A    between atoms: C12_17  and  C13_18 
REMARK    5  A    between atoms: N2_19  and  N3_21 
REMARK       I    between atoms: N3_21  and  C14_23 
REMARK    6  A    between atoms: C14_23  and  C15_25 
REMARK    7  A    between atoms: C15_25  and  C16_26 
REMARK    8  A    between atoms: C15_25  and  N5_31 
REMARK    9  A    between atoms: C16_26  and  N4_27 
REMARK   10  A    between atoms: N5_31  and  N6_33 
REMARK       I    between atoms: N6_33  and  C17_35 
REMARK   11  A    between atoms: C17_35  and  C18_37 
REMARK   12  A    between atoms: N7_39  and  C20_40 
REMARK   13  A    between atoms: C21_46  and  N10_47 
ROOT
HETATM    1  C15 UNL     1     228.791 -62.420  -2.054  1.00  0.00     0.218 C 
ENDROOT
BRANCH   1   2
HETATM    2  C14 UNL     1     227.978 -63.645  -2.418  1.00  0.00     0.262 C 
HETATM    3  N3  UNL     1     227.513 -63.738  -3.746  1.00  0.00    -0.269 N 
ATOM      4  H3  UNL     1     227.718 -63.006  -4.426  1.00  0.00     0.190 HD
HETATM    5  O3  UNL     1     227.765 -64.499  -1.535  1.00  0.00    -0.269 OA
BRANCH   3   6
HETATM    6  N2  UNL     1     226.764 -64.861  -4.102  1.00  0.00    -0.308 N 
HETATM    7  C13 UNL     1     225.623 -64.712  -4.644  1.00  0.00     0.122 C 
ATOM      8  H2  UNL     1     227.131 -65.796  -3.928  1.00  0.00     0.186 HD
BRANCH   7   9
HETATM    9  C12 UNL     1     224.721 -65.768  -5.072  1.00  0.00     0.023 A 
HETATM   10  C2  UNL     1     223.636 -66.180  -4.325  1.00  0.00    -0.012 A 
HETATM   11  C1  UNL     1     223.346 -65.534  -3.021  1.00  0.00     0.052 C 
HETATM   12  C3  UNL     1     222.821 -67.207  -4.816  1.00  0.00     0.099 A 
HETATM   13  C4  UNL     1     223.086 -67.816  -6.038  1.00  0.00     0.067 A 
HETATM   14  C10 UNL     1     224.167 -67.399  -6.772  1.00  0.00     0.069 A 
HETATM   15  C11 UNL     1     224.968 -66.389  -6.290  1.00  0.00     0.080 A 
BRANCH  12  16
HETATM   16  O1  UNL     1     221.729 -67.674  -4.139  1.00  0.00    -0.358 OA
ATOM     17  H1  UNL     1     220.885 -67.236  -4.159  1.00  0.00     0.217 HD
ENDBRANCH  12  16
BRANCH  13  18
HETATM   18  N1  UNL     1     222.304 -68.871  -6.591  1.00  0.00    -0.379 N 
HETATM   19  C5  UNL     1     222.907 -70.177  -6.661  1.00  0.00     0.123 C 
HETATM   20  C6  UNL     1     222.089 -71.226  -5.980  1.00  0.00     0.020 C 
HETATM   21  C7  UNL     1     220.674 -70.753  -5.779  1.00  0.00     0.003 C 
HETATM   22  C8  UNL     1     220.230 -69.988  -7.033  1.00  0.00     0.020 C 
HETATM   23  C9  UNL     1     220.971 -68.674  -7.079  1.00  0.00     0.123 C 
ENDBRANCH  13  18
BRANCH  15  24
HETATM   24  O2  UNL     1     226.045 -65.984  -7.039  1.00  0.00    -0.360 OA
ATOM     25  H2  UNL     1     226.782 -66.576  -7.138  1.00  0.00     0.217 HD
ENDBRANCH  15  24
ENDBRANCH   7   9
ENDBRANCH   3   6
ENDBRANCH   1   2
BRANCH   1  26
HETATM   26  C16 UNL     1     229.491 -62.830  -0.760  1.00  0.00     0.265 C 
BRANCH  26  27
HETATM   27  N4  UNL     1     230.924 -62.837  -0.888  1.00  0.00    -0.077 N 
ATOM     28  H43 UNL     1     231.362 -63.309  -0.097  1.00  0.00     0.274 HD
ATOM     29  H42 UNL     1     231.223 -63.462  -1.637  1.00  0.00     0.274 HD
ATOM     30  H41 UNL     1     231.309 -61.901  -1.016  1.00  0.00     0.274 HD
ENDBRANCH  26  27
ENDBRANCH   1  26
BRANCH   1  31
HETATM   31  N5  UNL     1     227.879 -61.344  -1.905  1.00  0.00    -0.318 N 
ATOM     32  H5  UNL     1     228.091 -60.414  -2.267  1.00  0.00     0.181 HD
BRANCH  31  33
HETATM   33  N6  UNL     1     226.694 -61.607  -1.249  1.00  0.00    -0.268 N 
HETATM   34  C17 UNL     1     225.471 -61.011  -1.677  1.00  0.00     0.289 C 
HETATM   35  O4  UNL     1     225.496 -60.240  -2.658  1.00  0.00    -0.264 OA
ATOM     36  H6  UNL     1     226.692 -62.238  -0.448  1.00  0.00     0.190 HD
BRANCH  34  37
HETATM   37  C18 UNL     1     224.213 -61.277  -1.002  1.00  0.00     0.136 A 
HETATM   38  C19 UNL     1     224.029 -61.646   0.314  1.00  0.00     0.156 A 
HETATM   39  N7  UNL     1     222.715 -61.800   0.585  1.00  0.00    -0.229 N 
HETATM   40  N11 UNL     1     222.108 -61.528  -0.555  1.00  0.00    -0.234 N 
HETATM   41  N12 UNL     1     222.952 -61.216  -1.511  1.00  0.00    -0.279 N 
ATOM     42  H11 UNL     1     221.097 -61.556  -0.680  1.00  0.00     0.209 HD
ATOM     43  H12 UNL     1     222.706 -60.970  -2.469  1.00  0.00     0.189 HD
BRANCH  39  44
HETATM   44  C20 UNL     1     222.105 -62.171   1.813  1.00  0.00     0.195 A 
HETATM   45  N8  UNL     1     221.363 -61.377   2.622  1.00  0.00    -0.220 N 
HETATM   46  O5  UNL     1     220.983 -62.078   3.644  1.00  0.00    -0.153 OA
ATOM     47  H8  UNL     1     221.140 -60.395   2.455  1.00  0.00     0.198 HD
HETATM   48  N9  UNL     1     221.423 -63.298   3.577  1.00  0.00    -0.222 N 
HETATM   49  C21 UNL     1     222.137 -63.390   2.432  1.00  0.00     0.169 A 
ATOM     50  H9  UNL     1     221.262 -64.041   4.256  1.00  0.00     0.198 HD
BRANCH  49  51
HETATM   51  N10 UNL     1     222.736 -64.449   2.012  1.00  0.00    -0.381 N 
ATOM     52 2H10 UNL     1     223.656 -64.471   1.572  1.00  0.00     0.157 HD
ATOM     53 1H10 UNL     1     222.384 -65.406   2.058  1.00  0.00     0.157 HD
ENDBRANCH  49  51
ENDBRANCH  39  44
ENDBRANCH  34  37
ENDBRANCH  31  33
ENDBRANCH   1  31
TORSDOF 13
ENDMDL
