MODEL 1
REMARK VINA RESULT: -5.203772891      0.000      0.000
REMARK  9 active torsions:
REMARK  status: ('A' for Active; 'I' for Inactive)
REMARK    1  A    between atoms: O1_2  and  C2_3 
REMARK    2  A    between atoms: C11_14  and  N1_15 
REMARK       I    between atoms: N1_15  and  C12_17 
REMARK    3  A    between atoms: C12_17  and  C13_19 
REMARK    4  A    between atoms: C13_19  and  N2_21 
REMARK       I    between atoms: N2_21  and  C15_23 
REMARK    5  A    between atoms: C15_23  and  C16_25 
REMARK    6  A    between atoms: C16_25  and  N3_27 
REMARK    7  A    between atoms: C18_32  and  N4_33 
REMARK    8  A    between atoms: N4_33  and  O7_35 
REMARK    9  A    between atoms: C19_37  and  O8_38 
ROOT
HETATM    1  C2  UNL     1      30.825   6.546  14.484  1.00  0.00     0.290 C 
HETATM    2  O2  UNL     1      29.833   5.603  14.311  1.00  0.00    -0.351 OA
HETATM    3  C3  UNL     1      30.036   4.761  13.234  1.00  0.00     0.159 C 
HETATM    4  C4  UNL     1      29.009   3.642  13.347  1.00  0.00     0.043 C 
HETATM    5  C5  UNL     1      29.943   5.480  11.909  1.00  0.00     0.135 C 
HETATM    6  C6  UNL     1      30.789   4.666  10.919  1.00  0.00     0.211 C 
HETATM    7  O3  UNL     1      30.061   3.511  10.662  1.00  0.00    -0.378 OA
HETATM    8  C7  UNL     1      29.284   3.566   9.547  1.00  0.00     0.058 C 
HETATM    9  C8  UNL     1      30.072   2.903   8.407  1.00  0.00     0.045 C 
HETATM   10  C9  UNL     1      28.013   2.717   9.672  1.00  0.00     0.045 C 
HETATM   11  C10 UNL     1      28.893   4.920   9.084  1.00  0.00     0.091 C 
HETATM   12  C11 UNL     1      28.469   5.863  10.165  1.00  0.00     0.227 C 
HETATM   13  O6  UNL     1      28.645   5.403  11.442  1.00  0.00    -0.349 OA
HETATM   14  C18 UNL     1      30.459   6.864  12.076  1.00  0.00     0.178 C 
HETATM   15  C19 UNL     1      31.492   6.982  13.204  1.00  0.00     0.203 C 
ENDROOT
BRANCH  12  16
HETATM   16  N1  UNL     1      27.063   6.169   9.983  1.00  0.00    -0.333 N 
HETATM   17  C12 UNL     1      26.289   6.803  11.008  1.00  0.00     0.242 C 
HETATM   18  O4  UNL     1      26.817   7.112  12.105  1.00  0.00    -0.271 OA
ATOM     19  H1  UNL     1      26.613   5.927   9.101  1.00  0.00     0.165 HD
BRANCH  17  20
HETATM   20  C13 UNL     1      24.857   7.112  10.814  1.00  0.00     0.172 C 
HETATM   21  C14 UNL     1      24.101   5.946  10.216  1.00  0.00     0.042 C 
BRANCH  20  22
HETATM   22  N2  UNL     1      24.722   8.223   9.916  1.00  0.00    -0.346 N 
HETATM   23  C15 UNL     1      23.466   8.783   9.547  1.00  0.00     0.248 C 
HETATM   24  O5  UNL     1      22.430   8.246  10.056  1.00  0.00    -0.271 OA
ATOM     25  H2  UNL     1      25.569   8.633   9.523  1.00  0.00     0.163 HD
BRANCH  23  26
HETATM   26  C16 UNL     1      23.363   9.919   8.626  1.00  0.00     0.270 C 
HETATM   27  C17 UNL     1      22.128   9.890   7.765  1.00  0.00     0.050 C 
BRANCH  26  28
HETATM   28  N3  UNL     1      24.514   9.892   7.721  1.00  0.00    -0.067 N 
ATOM     29  H33 UNL     1      25.274  10.495   8.038  1.00  0.00     0.275 HD
ATOM     30  H32 UNL     1      25.016   9.005   7.753  1.00  0.00     0.275 HD
ATOM     31  H31 UNL     1      24.195  10.127   6.782  1.00  0.00     0.275 HD
ENDBRANCH  26  28
ENDBRANCH  23  26
ENDBRANCH  20  22
ENDBRANCH  17  20
ENDBRANCH  12  16
BRANCH  14  32
HETATM   32  N4  UNL     1      29.440   7.805  12.409  1.00  0.00    -0.294 N 
ATOM     33  H4  UNL     1      29.045   7.869  13.348  1.00  0.00     0.188 HD
BRANCH  32  34
HETATM   34  O7  UNL     1      29.040   8.587  11.424  1.00  0.00    -0.294 OA
ATOM     35  H7  UNL     1      28.630   9.402  11.686  1.00  0.00     0.244 HD
ENDBRANCH  32  34
ENDBRANCH  14  32
BRANCH  15  36
HETATM   36  O8  UNL     1      32.651   6.323  12.930  1.00  0.00    -0.384 OA
HETATM   37  C20 UNL     1      32.879   5.359  13.907  1.00  0.00     0.202 C 
ENDBRANCH  15  36
BRANCH   1  38
HETATM   38  O1  UNL     1      30.230   7.668  15.056  1.00  0.00    -0.363 OA
HETATM   39  C1  UNL     1      30.174   7.574  16.446  1.00  0.00     0.204 C 
ENDBRANCH   1  38
TORSDOF 9
ENDMDL
MODEL 2
REMARK VINA RESULT: -4.691511677      1.535      2.221
REMARK  9 active torsions:
REMARK  status: ('A' for Active; 'I' for Inactive)
REMARK    1  A    between atoms: O1_2  and  C2_3 
REMARK    2  A    between atoms: C11_14  and  N1_15 
REMARK       I    between atoms: N1_15  and  C12_17 
REMARK    3  A    between atoms: C12_17  and  C13_19 
REMARK    4  A    between atoms: C13_19  and  N2_21 
REMARK       I    between atoms: N2_21  and  C15_23 
REMARK    5  A    between atoms: C15_23  and  C16_25 
REMARK    6  A    between atoms: C16_25  and  N3_27 
REMARK    7  A    between atoms: C18_32  and  N4_33 
REMARK    8  A    between atoms: N4_33  and  O7_35 
REMARK    9  A    between atoms: C19_37  and  O8_38 
ROOT
HETATM    1  C2  UNL     1      31.084   6.167  14.273  1.00  0.00     0.290 C 
HETATM    2  O2  UNL     1      30.054   5.258  14.149  1.00  0.00    -0.351 OA
HETATM    3  C3  UNL     1      30.097   4.511  12.987  1.00  0.00     0.159 C 
HETATM    4  C4  UNL     1      29.064   3.402  13.136  1.00  0.00     0.043 C 
HETATM    5  C5  UNL     1      29.854   5.345  11.752  1.00  0.00     0.135 C 
HETATM    6  C6  UNL     1      30.547   4.609  10.595  1.00  0.00     0.211 C 
HETATM    7  O3  UNL     1      29.762   3.492  10.336  1.00  0.00    -0.378 OA
HETATM    8  C7  UNL     1      28.851   3.657   9.339  1.00  0.00     0.058 C 
HETATM    9  C8  UNL     1      29.471   3.085   8.054  1.00  0.00     0.045 C 
HETATM   10  C9  UNL     1      27.585   2.819   9.553  1.00  0.00     0.045 C 
HETATM   11  C10 UNL     1      28.440   5.052   9.048  1.00  0.00     0.091 C 
HETATM   12  C11 UNL     1      28.182   5.902  10.250  1.00  0.00     0.227 C 
HETATM   13  O6  UNL     1      28.506   5.329  11.450  1.00  0.00    -0.349 OA
HETATM   14  C18 UNL     1      30.424   6.701  11.968  1.00  0.00     0.178 C 
HETATM   15  C19 UNL     1      31.594   6.704  12.960  1.00  0.00     0.203 C 
ENDROOT
BRANCH  12  16
HETATM   16  N1  UNL     1      26.773   6.244  10.278  1.00  0.00    -0.333 N 
HETATM   17  C12 UNL     1      26.314   7.579  10.035  1.00  0.00     0.242 C 
HETATM   18  O4  UNL     1      27.133   8.499   9.789  1.00  0.00    -0.271 OA
ATOM     19  H1  UNL     1      26.089   5.514  10.477  1.00  0.00     0.165 HD
BRANCH  17  20
HETATM   20  C13 UNL     1      24.875   7.919  10.065  1.00  0.00     0.172 C 
HETATM   21  C14 UNL     1      24.533   9.027   9.093  1.00  0.00     0.042 C 
BRANCH  20  22
HETATM   22  N2  UNL     1      24.514   8.368  11.380  1.00  0.00    -0.346 N 
HETATM   23  C15 UNL     1      23.271   8.055  11.999  1.00  0.00     0.248 C 
HETATM   24  O5  UNL     1      22.461   7.341  11.325  1.00  0.00    -0.271 OA
ATOM     25  H2  UNL     1      25.183   8.939  11.896  1.00  0.00     0.163 HD
BRANCH  23  26
HETATM   26  C16 UNL     1      22.934   8.530  13.344  1.00  0.00     0.270 C 
HETATM   27  C17 UNL     1      24.123   9.017  14.130  1.00  0.00     0.050 C 
BRANCH  26  28
HETATM   28  N3  UNL     1      22.351   7.419  14.099  1.00  0.00    -0.067 N 
ATOM     29  H33 UNL     1      21.476   7.087  13.693  1.00  0.00     0.275 HD
ATOM     30  H32 UNL     1      22.887   6.557  14.002  1.00  0.00     0.275 HD
ATOM     31  H31 UNL     1      22.246   7.707  15.072  1.00  0.00     0.275 HD
ENDBRANCH  26  28
ENDBRANCH  23  26
ENDBRANCH  20  22
ENDBRANCH  17  20
ENDBRANCH  12  16
BRANCH  14  32
HETATM   32  N4  UNL     1      29.479   7.624  12.509  1.00  0.00    -0.294 N 
ATOM     33  H4  UNL     1      29.115   7.536  13.458  1.00  0.00     0.188 HD
BRANCH  32  34
HETATM   34  O7  UNL     1      29.108   8.600  11.702  1.00  0.00    -0.294 OA
ATOM     35  H7  UNL     1      29.798   8.982  11.173  1.00  0.00     0.244 HD
ENDBRANCH  32  34
ENDBRANCH  14  32
BRANCH  15  36
HETATM   36  O8  UNL     1      32.692   6.055  12.483  1.00  0.00    -0.384 OA
HETATM   37  C20 UNL     1      33.071   5.064  13.384  1.00  0.00     0.202 C 
ENDBRANCH  15  36
BRANCH   1  38
HETATM   38  O1  UNL     1      30.596   7.243  15.011  1.00  0.00    -0.363 OA
HETATM   39  C1  UNL     1      30.113   6.842  16.256  1.00  0.00     0.204 C 
ENDBRANCH   1  38
TORSDOF 9
ENDMDL
MODEL 3
REMARK VINA RESULT: -4.145870925      1.447      2.281
REMARK  9 active torsions:
REMARK  status: ('A' for Active; 'I' for Inactive)
REMARK    1  A    between atoms: O1_2  and  C2_3 
REMARK    2  A    between atoms: C11_14  and  N1_15 
REMARK       I    between atoms: N1_15  and  C12_17 
REMARK    3  A    between atoms: C12_17  and  C13_19 
REMARK    4  A    between atoms: C13_19  and  N2_21 
REMARK       I    between atoms: N2_21  and  C15_23 
REMARK    5  A    between atoms: C15_23  and  C16_25 
REMARK    6  A    between atoms: C16_25  and  N3_27 
REMARK    7  A    between atoms: C18_32  and  N4_33 
REMARK    8  A    between atoms: N4_33  and  O7_35 
REMARK    9  A    between atoms: C19_37  and  O8_38 
ROOT
HETATM    1  C2  UNL     1      30.858   6.639  14.304  1.00  0.00     0.290 C 
HETATM    2  O2  UNL     1      29.892   5.659  14.216  1.00  0.00    -0.351 OA
HETATM    3  C3  UNL     1      30.012   4.845  13.107  1.00  0.00     0.159 C 
HETATM    4  C4  UNL     1      29.049   3.682  13.303  1.00  0.00     0.043 C 
HETATM    5  C5  UNL     1      29.749   5.582  11.815  1.00  0.00     0.135 C 
HETATM    6  C6  UNL     1      30.518   4.822  10.723  1.00  0.00     0.211 C 
HETATM    7  O3  UNL     1      29.813   3.642  10.519  1.00  0.00    -0.378 OA
HETATM    8  C7  UNL     1      28.920   3.683   9.494  1.00  0.00     0.058 C 
HETATM    9  C8  UNL     1      29.608   3.074   8.263  1.00  0.00     0.045 C 
HETATM   10  C9  UNL     1      27.705   2.779   9.734  1.00  0.00     0.045 C 
HETATM   11  C10 UNL     1      28.428   5.027   9.105  1.00  0.00     0.091 C 
HETATM   12  C11 UNL     1      28.084   5.933  10.244  1.00  0.00     0.227 C 
HETATM   13  O6  UNL     1      28.413   5.459  11.485  1.00  0.00    -0.349 OA
HETATM   14  C18 UNL     1      30.225   6.983  11.956  1.00  0.00     0.178 C 
HETATM   15  C19 UNL     1      31.366   7.125  12.971  1.00  0.00     0.203 C 
ENDROOT
BRANCH  12  16
HETATM   16  N1  UNL     1      26.656   6.182  10.219  1.00  0.00    -0.333 N 
HETATM   17  C12 UNL     1      26.118   7.458   9.853  1.00  0.00     0.242 C 
HETATM   18  O4  UNL     1      26.882   8.406   9.542  1.00  0.00    -0.271 OA
ATOM     19  H1  UNL     1      26.016   5.428  10.470  1.00  0.00     0.165 HD
BRANCH  17  20
HETATM   20  C13 UNL     1      24.660   7.704   9.830  1.00  0.00     0.172 C 
HETATM   21  C14 UNL     1      24.321   9.049   9.226  1.00  0.00     0.042 C 
BRANCH  20  22
HETATM   22  N2  UNL     1      24.149   7.689  11.171  1.00  0.00    -0.346 N 
HETATM   23  C15 UNL     1      24.884   8.165  12.294  1.00  0.00     0.248 C 
HETATM   24  O5  UNL     1      26.050   8.618  12.061  1.00  0.00    -0.271 OA
ATOM     25  H2  UNL     1      23.211   7.320  11.328  1.00  0.00     0.163 HD
BRANCH  23  26
HETATM   26  C16 UNL     1      24.332   8.136  13.651  1.00  0.00     0.270 C 
HETATM   27  C17 UNL     1      22.827   8.191  13.694  1.00  0.00     0.050 C 
BRANCH  26  28
HETATM   28  N3  UNL     1      24.822   9.307  14.380  1.00  0.00    -0.067 N 
ATOM     29  H33 UNL     1      25.703   9.659  14.006  1.00  0.00     0.275 HD
ATOM     30  H32 UNL     1      24.255  10.138  14.209  1.00  0.00     0.275 HD
ATOM     31  H31 UNL     1      24.883   9.072  15.370  1.00  0.00     0.275 HD
ENDBRANCH  26  28
ENDBRANCH  23  26
ENDBRANCH  20  22
ENDBRANCH  17  20
ENDBRANCH  12  16
BRANCH  14  32
HETATM   32  N4  UNL     1      29.209   7.875  12.415  1.00  0.00    -0.294 N 
ATOM     33  H4  UNL     1      28.802   7.800  13.348  1.00  0.00     0.188 HD
BRANCH  32  34
HETATM   34  O7  UNL     1      28.831   8.802  11.555  1.00  0.00    -0.294 OA
ATOM     35  H7  UNL     1      28.802   9.689  11.893  1.00  0.00     0.244 HD
ENDBRANCH  32  34
ENDBRANCH  14  32
BRANCH  15  36
HETATM   36  O8  UNL     1      32.515   6.521  12.561  1.00  0.00    -0.384 OA
HETATM   37  C20 UNL     1      32.858   5.518  13.463  1.00  0.00     0.202 C 
ENDBRANCH  15  36
BRANCH   1  38
HETATM   38  O1  UNL     1      30.282   7.725  14.960  1.00  0.00    -0.363 OA
HETATM   39  C1  UNL     1      30.170   7.503  16.332  1.00  0.00     0.204 C 
ENDBRANCH   1  38
TORSDOF 9
ENDMDL
MODEL 4
REMARK VINA RESULT: -3.961776334      1.736      2.153
REMARK  9 active torsions:
REMARK  status: ('A' for Active; 'I' for Inactive)
REMARK    1  A    between atoms: O1_2  and  C2_3 
REMARK    2  A    between atoms: C11_14  and  N1_15 
REMARK       I    between atoms: N1_15  and  C12_17 
REMARK    3  A    between atoms: C12_17  and  C13_19 
REMARK    4  A    between atoms: C13_19  and  N2_21 
REMARK       I    between atoms: N2_21  and  C15_23 
REMARK    5  A    between atoms: C15_23  and  C16_25 
REMARK    6  A    between atoms: C16_25  and  N3_27 
REMARK    7  A    between atoms: C18_32  and  N4_33 
REMARK    8  A    between atoms: N4_33  and  O7_35 
REMARK    9  A    between atoms: C19_37  and  O8_38 
ROOT
HETATM    1  C2  UNL     1      31.488   4.643  14.595  1.00  0.00     0.290 C 
HETATM    2  O2  UNL     1      30.163   4.297  14.427  1.00  0.00    -0.351 OA
HETATM    3  C3  UNL     1      29.861   3.811  13.170  1.00  0.00     0.159 C 
HETATM    4  C4  UNL     1      28.450   3.242  13.241  1.00  0.00     0.043 C 
HETATM    5  C5  UNL     1      29.990   4.864  12.094  1.00  0.00     0.135 C 
HETATM    6  C6  UNL     1      30.278   4.109  10.787  1.00  0.00     0.211 C 
HETATM    7  O3  UNL     1      29.081   3.496  10.436  1.00  0.00    -0.378 OA
HETATM    8  C7  UNL     1      28.320   4.200   9.554  1.00  0.00     0.058 C 
HETATM    9  C8  UNL     1      28.612   3.643   8.152  1.00  0.00     0.045 C 
HETATM   10  C9  UNL     1      26.818   3.961   9.751  1.00  0.00     0.045 C 
HETATM   11  C10 UNL     1      28.554   5.663   9.507  1.00  0.00     0.091 C 
HETATM   12  C11 UNL     1      28.708   6.326  10.838  1.00  0.00     0.227 C 
HETATM   13  O6  UNL     1      28.766   5.477  11.909  1.00  0.00    -0.349 OA
HETATM   14  C18 UNL     1      31.096   5.788  12.457  1.00  0.00     0.178 C 
HETATM   15  C19 UNL     1      32.163   5.123  13.336  1.00  0.00     0.203 C 
ENDROOT
BRANCH  12  16
HETATM   16  N1  UNL     1      27.589   7.228  11.035  1.00  0.00    -0.333 N 
HETATM   17  C12 UNL     1      27.767   8.553  11.548  1.00  0.00     0.242 C 
HETATM   18  O4  UNL     1      28.914   8.972  11.845  1.00  0.00    -0.271 OA
ATOM     19  H1  UNL     1      26.648   6.909  10.802  1.00  0.00     0.165 HD
BRANCH  17  20
HETATM   20  C13 UNL     1      26.621   9.465  11.746  1.00  0.00     0.172 C 
HETATM   21  C14 UNL     1      26.318   9.687  13.212  1.00  0.00     0.042 C 
BRANCH  20  22
HETATM   22  N2  UNL     1      25.448   8.901  11.141  1.00  0.00    -0.346 N 
HETATM   23  C15 UNL     1      25.203   8.924   9.739  1.00  0.00     0.248 C 
HETATM   24  O5  UNL     1      26.089   9.480   9.014  1.00  0.00    -0.271 OA
ATOM     25  H2  UNL     1      24.755   8.462  11.747  1.00  0.00     0.163 HD
BRANCH  23  26
HETATM   26  C16 UNL     1      23.994   8.338   9.153  1.00  0.00     0.270 C 
HETATM   27  C17 UNL     1      23.086   9.348   8.503  1.00  0.00     0.050 C 
BRANCH  26  28
HETATM   28  N3  UNL     1      23.222   7.696  10.219  1.00  0.00    -0.067 N 
ATOM     29  H33 UNL     1      23.560   6.758  10.435  1.00  0.00     0.275 HD
ATOM     30  H32 UNL     1      23.390   8.119  11.132  1.00  0.00     0.275 HD
ATOM     31  H31 UNL     1      22.236   7.707   9.959  1.00  0.00     0.275 HD
ENDBRANCH  26  28
ENDBRANCH  23  26
ENDBRANCH  20  22
ENDBRANCH  17  20
ENDBRANCH  12  16
BRANCH  14  32
HETATM   32  N4  UNL     1      30.655   6.920  13.205  1.00  0.00    -0.294 N 
ATOM     33  H4  UNL     1      29.725   6.968  13.622  1.00  0.00     0.188 HD
BRANCH  32  34
HETATM   34  O7  UNL     1      31.529   7.903  13.323  1.00  0.00    -0.294 OA
ATOM     35  H7  UNL     1      31.284   8.603  13.917  1.00  0.00     0.244 HD
ENDBRANCH  32  34
ENDBRANCH  14  32
BRANCH  15  36
HETATM   36  O8  UNL     1      32.862   4.158  12.678  1.00  0.00    -0.384 OA
HETATM   37  C20 UNL     1      33.227   3.158  13.574  1.00  0.00     0.202 C 
ENDBRANCH  15  36
BRANCH   1  38
HETATM   38  O1  UNL     1      31.526   5.683  15.520  1.00  0.00    -0.363 OA
HETATM   39  C1  UNL     1      30.292   5.872  16.141  1.00  0.00     0.204 C 
ENDBRANCH   1  38
TORSDOF 9
ENDMDL
MODEL 5
REMARK VINA RESULT: -3.601648551      2.595      5.932
REMARK  9 active torsions:
REMARK  status: ('A' for Active; 'I' for Inactive)
REMARK    1  A    between atoms: O1_2  and  C2_3 
REMARK    2  A    between atoms: C11_14  and  N1_15 
REMARK       I    between atoms: N1_15  and  C12_17 
REMARK    3  A    between atoms: C12_17  and  C13_19 
REMARK    4  A    between atoms: C13_19  and  N2_21 
REMARK       I    between atoms: N2_21  and  C15_23 
REMARK    5  A    between atoms: C15_23  and  C16_25 
REMARK    6  A    between atoms: C16_25  and  N3_27 
REMARK    7  A    between atoms: C18_32  and  N4_33 
REMARK    8  A    between atoms: N4_33  and  O7_35 
REMARK    9  A    between atoms: C19_37  and  O8_38 
ROOT
HETATM    1  C2  UNL     1      31.321   5.394  13.658  1.00  0.00     0.290 C 
HETATM    2  O2  UNL     1      31.118   6.448  12.791  1.00  0.00    -0.351 OA
HETATM    3  C3  UNL     1      29.818   6.914  12.763  1.00  0.00     0.159 C 
HETATM    4  C4  UNL     1      29.831   8.216  11.973  1.00  0.00     0.043 C 
HETATM    5  C5  UNL     1      28.852   5.910  12.179  1.00  0.00     0.135 C 
HETATM    6  C6  UNL     1      27.477   6.236  12.782  1.00  0.00     0.211 C 
HETATM    7  O3  UNL     1      27.065   7.411  12.165  1.00  0.00    -0.378 OA
HETATM    8  C7  UNL     1      26.257   7.232  11.085  1.00  0.00     0.058 C 
HETATM    9  C8  UNL     1      24.807   7.389  11.568  1.00  0.00     0.045 C 
HETATM   10  C9  UNL     1      26.427   8.335  10.034  1.00  0.00     0.045 C 
HETATM   11  C10 UNL     1      26.355   5.920  10.401  1.00  0.00     0.091 C 
HETATM   12  C11 UNL     1      27.746   5.406  10.208  1.00  0.00     0.227 C 
HETATM   13  O6  UNL     1      28.728   6.136  10.822  1.00  0.00    -0.349 OA
HETATM   14  C18 UNL     1      29.307   4.541  12.539  1.00  0.00     0.178 C 
HETATM   15  C19 UNL     1      30.117   4.506  13.842  1.00  0.00     0.203 C 
ENDROOT
BRANCH  12  16
HETATM   16  N1  UNL     1      28.031   5.370   8.787  1.00  0.00    -0.333 N 
HETATM   17  C12 UNL     1      28.163   4.135   8.073  1.00  0.00     0.242 C 
HETATM   18  O4  UNL     1      28.035   3.038   8.671  1.00  0.00    -0.271 OA
ATOM     19  H1  UNL     1      28.140   6.249   8.280  1.00  0.00     0.165 HD
BRANCH  17  20
HETATM   20  C13 UNL     1      28.453   4.108   6.624  1.00  0.00     0.172 C 
HETATM   21  C14 UNL     1      27.492   3.213   5.870  1.00  0.00     0.042 C 
BRANCH  20  22
HETATM   22  N2  UNL     1      29.778   3.602   6.408  1.00  0.00    -0.346 N 
HETATM   23  C15 UNL     1      30.807   3.661   7.389  1.00  0.00     0.248 C 
HETATM   24  O5  UNL     1      30.504   4.197   8.503  1.00  0.00    -0.271 OA
ATOM     25  H2  UNL     1      29.993   3.178   5.505  1.00  0.00     0.163 HD
BRANCH  23  26
HETATM   26  C16 UNL     1      32.151   3.134   7.136  1.00  0.00     0.270 C 
HETATM   27  C17 UNL     1      32.179   1.993   6.154  1.00  0.00     0.050 C 
BRANCH  26  28
HETATM   28  N3  UNL     1      32.699   2.626   8.395  1.00  0.00    -0.067 N 
ATOM     29  H33 UNL     1      33.434   3.225   8.772  1.00  0.00     0.275 HD
ATOM     30  H32 UNL     1      32.040   2.710   9.170  1.00  0.00     0.275 HD
ATOM     31  H31 UNL     1      33.012   1.667   8.250  1.00  0.00     0.275 HD
ENDBRANCH  26  28
ENDBRANCH  23  26
ENDBRANCH  20  22
ENDBRANCH  17  20
ENDBRANCH  12  16
BRANCH  14  32
HETATM   32  N4  UNL     1      30.163   3.961  11.556  1.00  0.00    -0.294 N 
ATOM     33  H4  UNL     1      31.044   4.394  11.278  1.00  0.00     0.188 HD
BRANCH  32  34
HETATM   34  O7  UNL     1      29.742   2.826  11.030  1.00  0.00    -0.294 OA
ATOM     35  H7  UNL     1      30.259   2.490  10.307  1.00  0.00     0.244 HD
ENDBRANCH  32  34
ENDBRANCH  14  32
BRANCH  15  36
HETATM   36  O8  UNL     1      29.367   4.807  14.937  1.00  0.00    -0.384 OA
HETATM   37  C20 UNL     1      29.127   3.647  15.667  1.00  0.00     0.202 C 
ENDBRANCH  15  36
BRANCH   1  38
HETATM   38  O1  UNL     1      32.345   4.616  13.125  1.00  0.00    -0.363 OA
HETATM   39  C1  UNL     1      32.637   3.518  13.935  1.00  0.00     0.204 C 
ENDBRANCH   1  38
TORSDOF 9
ENDMDL
