MODEL 1
REMARK VINA RESULT: -9.330488212      0.000      0.000
REMARK  12 active torsions:
REMARK  status: ('A' for Active; 'I' for Inactive)
REMARK    1  A    between atoms: O1_2  and  C2_3 
REMARK    2  A    between atoms: C2_3  and  C3_5 
REMARK    3  A    between atoms: C3_5  and  C4_6 
REMARK    4  A    between atoms: C3_5  and  N1_13 
REMARK    5  A    between atoms: C4_6  and  C5_7 
REMARK       I    between atoms: N1_13  and  C11_15 
REMARK    6  A    between atoms: C11_15  and  C12_17 
REMARK    7  A    between atoms: C12_17  and  C13_21 
REMARK    8  A    between atoms: C13_21  and  C14_22 
REMARK    9  A    between atoms: C14_22  and  C15_24 
REMARK   10  A    between atoms: C16_25  and  N3_26 
REMARK   11  A    between atoms: C17_30  and  O5_31 
REMARK   12  A    between atoms: C18_33  and  N4_34 
ROOT
HETATM    1  C13 UNL     1      29.496   7.860  12.071  1.00  0.00     0.142 C 
ENDROOT
BRANCH   1   2
HETATM    2  C12 UNL     1      30.237   7.051  13.066  1.00  0.00     0.078 C 
HETATM    3  N2  UNL     1      30.949   7.570  13.988  1.00  0.00    -0.398 N 
ATOM      4  H22 UNL     1      31.459   7.013  14.673  1.00  0.00     0.156 HD
ATOM      5  H21 UNL     1      31.028   8.586  14.030  1.00  0.00     0.156 HD
BRANCH   2   6
HETATM    6  C11 UNL     1      30.123   5.582  13.005  1.00  0.00     0.264 C 
HETATM    7  N1  UNL     1      30.327   4.888  11.795  1.00  0.00    -0.342 N 
ATOM      8  H1  UNL     1      30.551   5.462  10.981  1.00  0.00     0.163 HD
HETATM    9  O3  UNL     1      29.834   4.986  14.083  1.00  0.00    -0.266 OA
BRANCH   7  10
HETATM   10  C3  UNL     1      30.256   3.472  11.569  1.00  0.00     0.185 C 
BRANCH  10  11
HETATM   11  C2  UNL     1      31.588   2.837  11.724  1.00  0.00     0.281 C 
HETATM   12  O2  UNL     1      31.855   1.827  11.071  1.00  0.00    -0.263 OA
BRANCH  11  13
HETATM   13  O1  UNL     1      32.526   3.370  12.590  1.00  0.00    -0.325 OA
HETATM   14  C1  UNL     1      32.446   2.943  13.960  1.00  0.00     0.213 C 
ENDBRANCH  11  13
ENDBRANCH  10  11
BRANCH  10  15
HETATM   15  C4  UNL     1      29.639   3.097  10.237  1.00  0.00     0.040 C 
BRANCH  15  16
HETATM   16  C5  UNL     1      29.795   4.107   9.156  1.00  0.00    -0.012 C 
HETATM   17  C6  UNL     1      28.597   4.389   8.328  1.00  0.00     0.005 C 
HETATM   18  C7  UNL     1      28.421   3.520   7.110  1.00  0.00     0.000 C 
HETATM   19  C8  UNL     1      29.724   3.149   6.442  1.00  0.00     0.000 C 
HETATM   20  C9  UNL     1      30.735   2.635   7.444  1.00  0.00     0.000 C 
HETATM   21  C10 UNL     1      31.045   3.752   8.383  1.00  0.00     0.005 C 
ENDBRANCH  15  16
ENDBRANCH  10  15
ENDBRANCH   7  10
ENDBRANCH   2   6
ENDBRANCH   1   2
BRANCH   1  22
HETATM   22  C14 UNL     1      28.086   7.500  11.930  1.00  0.00     0.153 C 
HETATM   23  O4  UNL     1      27.697   6.347  12.151  1.00  0.00    -0.296 OA
BRANCH  22  24
HETATM   24  C15 UNL     1      27.038   8.480  11.512  1.00  0.00     0.211 C 
HETATM   25  C16 UNL     1      26.210   9.003  12.636  1.00  0.00     0.239 C 
HETATM   26  C17 UNL     1      24.898   8.352  12.860  1.00  0.00     0.181 C 
HETATM   27  C18 UNL     1      23.991   8.454  11.662  1.00  0.00     0.228 C 
HETATM   28  C19 UNL     1      24.451   7.357  10.694  1.00  0.00     0.176 C 
HETATM   29  S1  UNL     1      26.072   7.866  10.159  1.00  0.00     0.159 S 
HETATM   30  O6  UNL     1      25.851   8.935   9.111  1.00  0.00    -0.227 OA
HETATM   31  O7  UNL     1      26.706   6.702   9.458  1.00  0.00    -0.227 OA
BRANCH  25  32
HETATM   32  N3  UNL     1      26.003  10.456  12.505  1.00  0.00    -0.071 N 
ATOM     33  H33 UNL     1      25.870  10.901  13.413  1.00  0.00     0.274 HD
ATOM     34  H32 UNL     1      26.859  10.933  12.223  1.00  0.00     0.274 HD
ATOM     35  H31 UNL     1      25.231  10.657  11.869  1.00  0.00     0.274 HD
ENDBRANCH  25  32
BRANCH  26  36
HETATM   36  O5  UNL     1      24.273   9.040  13.921  1.00  0.00    -0.391 OA
ATOM     37  H5  UNL     1      23.551   9.531  13.545  1.00  0.00     0.210 HD
ENDBRANCH  26  36
BRANCH  27  38
HETATM   38  N4  UNL     1      22.605   8.364  11.983  1.00  0.00    -0.072 N 
ATOM     39  H43 UNL     1      22.368   7.422  12.295  1.00  0.00     0.274 HD
ATOM     40  H42 UNL     1      22.399   8.883  12.836  1.00  0.00     0.274 HD
ATOM     41  H41 UNL     1      21.988   8.659  11.226  1.00  0.00     0.274 HD
ENDBRANCH  27  38
ENDBRANCH  22  24
ENDBRANCH   1  22
TORSDOF 12
ENDMDL
MODEL 2
REMARK VINA RESULT: -9.004800403      1.646      1.996
REMARK  12 active torsions:
REMARK  status: ('A' for Active; 'I' for Inactive)
REMARK    1  A    between atoms: O1_2  and  C2_3 
REMARK    2  A    between atoms: C2_3  and  C3_5 
REMARK    3  A    between atoms: C3_5  and  C4_6 
REMARK    4  A    between atoms: C3_5  and  N1_13 
REMARK    5  A    between atoms: C4_6  and  C5_7 
REMARK       I    between atoms: N1_13  and  C11_15 
REMARK    6  A    between atoms: C11_15  and  C12_17 
REMARK    7  A    between atoms: C12_17  and  C13_21 
REMARK    8  A    between atoms: C13_21  and  C14_22 
REMARK    9  A    between atoms: C14_22  and  C15_24 
REMARK   10  A    between atoms: C16_25  and  N3_26 
REMARK   11  A    between atoms: C17_30  and  O5_31 
REMARK   12  A    between atoms: C18_33  and  N4_34 
ROOT
HETATM    1  C13 UNL     1      26.780   6.887  10.721  1.00  0.00     0.142 C 
ENDROOT
BRANCH   1   2
HETATM    2  C12 UNL     1      28.119   6.843  11.350  1.00  0.00     0.078 C 
HETATM    3  N2  UNL     1      28.753   7.892  11.701  1.00  0.00    -0.398 N 
ATOM      4  H22 UNL     1      29.676   7.862  12.134  1.00  0.00     0.156 HD
ATOM      5  H21 UNL     1      28.329   8.802  11.522  1.00  0.00     0.156 HD
BRANCH   2   6
HETATM    6  C11 UNL     1      28.733   5.527  11.608  1.00  0.00     0.264 C 
HETATM    7  N1  UNL     1      29.475   4.864  10.609  1.00  0.00    -0.342 N 
ATOM      8  H1  UNL     1      29.553   5.346   9.714  1.00  0.00     0.163 HD
HETATM    9  O3  UNL     1      28.559   5.032  12.759  1.00  0.00    -0.266 OA
BRANCH   7  10
HETATM   10  C3  UNL     1      30.132   3.591  10.700  1.00  0.00     0.185 C 
BRANCH  10  11
HETATM   11  C2  UNL     1      31.351   3.676  11.543  1.00  0.00     0.281 C 
HETATM   12  O2  UNL     1      31.883   2.639  11.940  1.00  0.00    -0.263 OA
BRANCH  11  13
HETATM   13  O1  UNL     1      31.890   4.905  11.880  1.00  0.00    -0.325 OA
HETATM   14  C1  UNL     1      32.013   5.185  13.285  1.00  0.00     0.213 C 
ENDBRANCH  11  13
ENDBRANCH  10  11
BRANCH  10  15
HETATM   15  C4  UNL     1      30.457   2.975   9.355  1.00  0.00     0.040 C 
BRANCH  15  16
HETATM   16  C5  UNL     1      30.401   3.908   8.197  1.00  0.00    -0.012 C 
HETATM   17  C6  UNL     1      29.089   4.058   7.524  1.00  0.00     0.005 C 
HETATM   18  C7  UNL     1      28.812   3.090   6.402  1.00  0.00     0.000 C 
HETATM   19  C8  UNL     1      30.036   2.745   5.589  1.00  0.00     0.000 C 
HETATM   20  C9  UNL     1      31.203   2.366   6.476  1.00  0.00     0.000 C 
HETATM   21  C10 UNL     1      31.559   3.566   7.286  1.00  0.00     0.005 C 
ENDBRANCH  15  16
ENDBRANCH  10  15
ENDBRANCH   7  10
ENDBRANCH   2   6
ENDBRANCH   1   2
BRANCH   1  22
HETATM   22  C14 UNL     1      26.411   8.192  10.173  1.00  0.00     0.153 C 
HETATM   23  O4  UNL     1      26.982   8.648   9.175  1.00  0.00    -0.296 OA
BRANCH  22  24
HETATM   24  C15 UNL     1      25.344   9.050  10.771  1.00  0.00     0.211 C 
HETATM   25  C16 UNL     1      25.610   9.458  12.180  1.00  0.00     0.239 C 
HETATM   26  C17 UNL     1      24.957   8.657  13.242  1.00  0.00     0.181 C 
HETATM   27  C18 UNL     1      23.455   8.671  13.136  1.00  0.00     0.228 C 
HETATM   28  C19 UNL     1      23.103   7.649  12.049  1.00  0.00     0.176 C 
HETATM   29  S1  UNL     1      23.734   8.349  10.537  1.00  0.00     0.159 S 
HETATM   30  O6  UNL     1      22.732   9.400  10.112  1.00  0.00    -0.227 OA
HETATM   31  O7  UNL     1      23.701   7.276   9.490  1.00  0.00    -0.227 OA
BRANCH  25  32
HETATM   32  N3  UNL     1      25.280  10.879  12.387  1.00  0.00    -0.071 N 
ATOM     33  H33 UNL     1      25.749  11.477  11.707  1.00  0.00     0.274 HD
ATOM     34  H32 UNL     1      24.314  11.082  12.132  1.00  0.00     0.274 HD
ATOM     35  H31 UNL     1      25.486  11.164  13.345  1.00  0.00     0.274 HD
ENDBRANCH  25  32
BRANCH  26  36
HETATM   36  O5  UNL     1      25.297   9.252  14.474  1.00  0.00    -0.391 OA
ATOM     37  H5  UNL     1      24.899   8.725  15.157  1.00  0.00     0.210 HD
ENDBRANCH  26  36
BRANCH  27  38
HETATM   38  N4  UNL     1      22.790   8.417  14.372  1.00  0.00    -0.072 N 
ATOM     39  H43 UNL     1      23.146   7.565  14.804  1.00  0.00     0.274 HD
ATOM     40  H42 UNL     1      23.071   9.097  15.078  1.00  0.00     0.274 HD
ATOM     41  H41 UNL     1      21.774   8.382  14.292  1.00  0.00     0.274 HD
ENDBRANCH  27  38
ENDBRANCH  22  24
ENDBRANCH   1  22
TORSDOF 12
ENDMDL
MODEL 3
REMARK VINA RESULT: -8.425441078      1.746      2.199
REMARK  12 active torsions:
REMARK  status: ('A' for Active; 'I' for Inactive)
REMARK    1  A    between atoms: O1_2  and  C2_3 
REMARK    2  A    between atoms: C2_3  and  C3_5 
REMARK    3  A    between atoms: C3_5  and  C4_6 
REMARK    4  A    between atoms: C3_5  and  N1_13 
REMARK    5  A    between atoms: C4_6  and  C5_7 
REMARK       I    between atoms: N1_13  and  C11_15 
REMARK    6  A    between atoms: C11_15  and  C12_17 
REMARK    7  A    between atoms: C12_17  and  C13_21 
REMARK    8  A    between atoms: C13_21  and  C14_22 
REMARK    9  A    between atoms: C14_22  and  C15_24 
REMARK   10  A    between atoms: C16_25  and  N3_26 
REMARK   11  A    between atoms: C17_30  and  O5_31 
REMARK   12  A    between atoms: C18_33  and  N4_34 
ROOT
HETATM    1  C13 UNL     1      27.236   6.690  12.491  1.00  0.00     0.142 C 
ENDROOT
BRANCH   1   2
HETATM    2  C12 UNL     1      28.594   6.495  11.932  1.00  0.00     0.078 C 
HETATM    3  N2  UNL     1      29.270   7.443  11.413  1.00  0.00    -0.398 N 
ATOM      4  H22 UNL     1      30.205   7.309  11.028  1.00  0.00     0.156 HD
ATOM      5  H21 UNL     1      28.851   8.371  11.362  1.00  0.00     0.156 HD
BRANCH   2   6
HETATM    6  C11 UNL     1      29.200   5.153  12.006  1.00  0.00     0.264 C 
HETATM    7  N1  UNL     1      29.857   4.591  10.893  1.00  0.00    -0.342 N 
ATOM      8  H1  UNL     1      29.882   5.165  10.049  1.00  0.00     0.163 HD
HETATM    9  O3  UNL     1      29.097   4.540  13.109  1.00  0.00    -0.266 OA
BRANCH   7  10
HETATM   10  C3  UNL     1      30.496   3.309  10.802  1.00  0.00     0.185 C 
BRANCH  10  11
HETATM   11  C2  UNL     1      31.780   3.295  11.547  1.00  0.00     0.281 C 
HETATM   12  O2  UNL     1      32.716   3.989  11.148  1.00  0.00    -0.263 OA
BRANCH  11  13
HETATM   13  O1  UNL     1      31.930   2.515  12.679  1.00  0.00    -0.325 OA
HETATM   14  C1  UNL     1      32.266   3.207  13.893  1.00  0.00     0.213 C 
ENDBRANCH  11  13
ENDBRANCH  10  11
BRANCH  10  15
HETATM   15  C4  UNL     1      30.700   2.828   9.381  1.00  0.00     0.040 C 
BRANCH  15  16
HETATM   16  C5  UNL     1      30.451   3.844   8.323  1.00  0.00    -0.012 C 
HETATM   17  C6  UNL     1      29.047   4.011   7.875  1.00  0.00     0.005 C 
HETATM   18  C7  UNL     1      28.611   3.124   6.737  1.00  0.00     0.000 C 
HETATM   19  C8  UNL     1      29.697   2.873   5.719  1.00  0.00     0.000 C 
HETATM   20  C9  UNL     1      30.994   2.459   6.381  1.00  0.00     0.000 C 
HETATM   21  C10 UNL     1      31.456   3.603   7.219  1.00  0.00     0.005 C 
ENDBRANCH  15  16
ENDBRANCH  10  15
ENDBRANCH   7  10
ENDBRANCH   2   6
ENDBRANCH   1   2
BRANCH   1  22
HETATM   22  C14 UNL     1      26.199   6.930  11.489  1.00  0.00     0.153 C 
HETATM   23  O4  UNL     1      26.030   6.148  10.546  1.00  0.00    -0.296 OA
BRANCH  22  24
HETATM   24  C15 UNL     1      25.291   8.116  11.530  1.00  0.00     0.211 C 
HETATM   25  C16 UNL     1      23.844   7.780  11.395  1.00  0.00     0.239 C 
HETATM   26  C17 UNL     1      23.250   7.915  10.045  1.00  0.00     0.181 C 
HETATM   27  C18 UNL     1      23.349   9.318   9.508  1.00  0.00     0.228 C 
HETATM   28  C19 UNL     1      24.778   9.460   8.971  1.00  0.00     0.176 C 
HETATM   29  S1  UNL     1      25.821   9.385  10.413  1.00  0.00     0.159 S 
HETATM   30  O6  UNL     1      25.745  10.752  11.057  1.00  0.00    -0.227 OA
HETATM   31  O7  UNL     1      27.235   9.208   9.944  1.00  0.00    -0.227 OA
BRANCH  25  32
HETATM   32  N3  UNL     1      23.034   8.555  12.351  1.00  0.00    -0.071 N 
ATOM     33  H33 UNL     1      22.142   8.099  12.545  1.00  0.00     0.274 HD
ATOM     34  H32 UNL     1      23.430   8.526  13.291  1.00  0.00     0.274 HD
ATOM     35  H31 UNL     1      22.904   9.513  12.025  1.00  0.00     0.274 HD
ENDBRANCH  25  32
BRANCH  26  36
HETATM   36  O5  UNL     1      21.879   7.607  10.167  1.00  0.00    -0.391 OA
ATOM     37  H5  UNL     1      21.656   7.040   9.438  1.00  0.00     0.210 HD
ENDBRANCH  26  36
BRANCH  27  38
HETATM   38  N4  UNL     1      22.357   9.631   8.533  1.00  0.00    -0.072 N 
ATOM     39  H43 UNL     1      22.585  10.502   8.053  1.00  0.00     0.274 HD
ATOM     40  H42 UNL     1      22.409   8.984   7.746  1.00  0.00     0.274 HD
ATOM     41  H41 UNL     1      21.409   9.664   8.907  1.00  0.00     0.274 HD
ENDBRANCH  27  38
ENDBRANCH  22  24
ENDBRANCH   1  22
TORSDOF 12
ENDMDL
MODEL 4
REMARK VINA RESULT: -8.245595491      1.416      1.680
REMARK  12 active torsions:
REMARK  status: ('A' for Active; 'I' for Inactive)
REMARK    1  A    between atoms: O1_2  and  C2_3 
REMARK    2  A    between atoms: C2_3  and  C3_5 
REMARK    3  A    between atoms: C3_5  and  C4_6 
REMARK    4  A    between atoms: C3_5  and  N1_13 
REMARK    5  A    between atoms: C4_6  and  C5_7 
REMARK       I    between atoms: N1_13  and  C11_15 
REMARK    6  A    between atoms: C11_15  and  C12_17 
REMARK    7  A    between atoms: C12_17  and  C13_21 
REMARK    8  A    between atoms: C13_21  and  C14_22 
REMARK    9  A    between atoms: C14_22  and  C15_24 
REMARK   10  A    between atoms: C16_25  and  N3_26 
REMARK   11  A    between atoms: C17_30  and  O5_31 
REMARK   12  A    between atoms: C18_33  and  N4_34 
ROOT
HETATM    1  C13 UNL     1      28.809   7.677  11.705  1.00  0.00     0.142 C 
ENDROOT
BRANCH   1   2
HETATM    2  C12 UNL     1      29.720   6.946  12.614  1.00  0.00     0.078 C 
HETATM    3  N2  UNL     1      30.471   7.533  13.460  1.00  0.00    -0.398 N 
ATOM      4  H22 UNL     1      31.099   7.029  14.086  1.00  0.00     0.156 HD
ATOM      5  H21 UNL     1      30.459   8.552  13.500  1.00  0.00     0.156 HD
BRANCH   2   6
HETATM    6  C11 UNL     1      29.739   5.472  12.556  1.00  0.00     0.264 C 
HETATM    7  N1  UNL     1      30.096   4.797  11.371  1.00  0.00    -0.342 N 
ATOM      8  H1  UNL     1      30.333   5.386  10.572  1.00  0.00     0.163 HD
HETATM    9  O3  UNL     1      29.419   4.855  13.613  1.00  0.00    -0.266 OA
BRANCH   7  10
HETATM   10  C3  UNL     1      30.166   3.380  11.152  1.00  0.00     0.185 C 
BRANCH  10  11
HETATM   11  C2  UNL     1      31.527   2.860  11.434  1.00  0.00     0.281 C 
HETATM   12  O2  UNL     1      31.907   1.830  10.876  1.00  0.00    -0.263 OA
BRANCH  11  13
HETATM   13  O1  UNL     1      32.366   3.521  12.313  1.00  0.00    -0.325 OA
HETATM   14  C1  UNL     1      32.322   3.092  13.684  1.00  0.00     0.213 C 
ENDBRANCH  11  13
ENDBRANCH  10  11
BRANCH  10  15
HETATM   15  C4  UNL     1      29.708   2.953   9.773  1.00  0.00     0.040 C 
BRANCH  15  16
HETATM   16  C5  UNL     1      29.860   3.978   8.705  1.00  0.00    -0.012 C 
HETATM   17  C6  UNL     1      28.675   4.233   7.851  1.00  0.00     0.005 C 
HETATM   18  C7  UNL     1      28.555   3.371   6.620  1.00  0.00     0.000 C 
HETATM   19  C8  UNL     1      29.883   3.045   5.981  1.00  0.00     0.000 C 
HETATM   20  C9  UNL     1      30.885   2.551   7.003  1.00  0.00     0.000 C 
HETATM   21  C10 UNL     1      31.139   3.667   7.959  1.00  0.00     0.005 C 
ENDBRANCH  15  16
ENDBRANCH  10  15
ENDBRANCH   7  10
ENDBRANCH   2   6
ENDBRANCH   1   2
BRANCH   1  22
HETATM   22  C14 UNL     1      27.437   7.170  11.687  1.00  0.00     0.153 C 
HETATM   23  O4  UNL     1      27.200   5.985  11.427  1.00  0.00    -0.296 OA
BRANCH  22  24
HETATM   24  C15 UNL     1      26.250   8.032  11.973  1.00  0.00     0.211 C 
HETATM   25  C16 UNL     1      24.945   7.314  11.900  1.00  0.00     0.239 C 
HETATM   26  C17 UNL     1      24.186   7.436  10.634  1.00  0.00     0.181 C 
HETATM   27  C18 UNL     1      23.836   8.863  10.305  1.00  0.00     0.228 C 
HETATM   28  C19 UNL     1      25.101   9.472   9.688  1.00  0.00     0.176 C 
HETATM   29  S1  UNL     1      26.283   9.525  11.020  1.00  0.00     0.159 S 
HETATM   30  O6  UNL     1      25.910  10.725  11.863  1.00  0.00    -0.227 OA
HETATM   31  O7  UNL     1      27.627   9.819  10.424  1.00  0.00    -0.227 OA
BRANCH  25  32
HETATM   32  N3  UNL     1      24.069   7.703  13.019  1.00  0.00    -0.071 N 
ATOM     33  H33 UNL     1      24.105   7.024  13.779  1.00  0.00     0.274 HD
ATOM     34  H32 UNL     1      24.433   8.513  13.518  1.00  0.00     0.274 HD
ATOM     35  H31 UNL     1      23.113   7.857  12.695  1.00  0.00     0.274 HD
ENDBRANCH  25  32
BRANCH  26  36
HETATM   36  O5  UNL     1      22.975   6.736  10.812  1.00  0.00    -0.391 OA
ATOM     37  H5  UNL     1      22.791   6.287   9.994  1.00  0.00     0.210 HD
ENDBRANCH  26  36
BRANCH  27  38
HETATM   38  N4  UNL     1      22.691   8.994   9.464  1.00  0.00    -0.072 N 
ATOM     39  H43 UNL     1      22.675   8.256   8.760  1.00  0.00     0.274 HD
ATOM     40  H42 UNL     1      21.841   8.761   9.976  1.00  0.00     0.274 HD
ATOM     41  H41 UNL     1      22.606   9.911   9.026  1.00  0.00     0.274 HD
ENDBRANCH  27  38
ENDBRANCH  22  24
ENDBRANCH   1  22
TORSDOF 12
ENDMDL
MODEL 5
REMARK VINA RESULT: -7.889377521      1.510      1.727
REMARK  12 active torsions:
REMARK  status: ('A' for Active; 'I' for Inactive)
REMARK    1  A    between atoms: O1_2  and  C2_3 
REMARK    2  A    between atoms: C2_3  and  C3_5 
REMARK    3  A    between atoms: C3_5  and  C4_6 
REMARK    4  A    between atoms: C3_5  and  N1_13 
REMARK    5  A    between atoms: C4_6  and  C5_7 
REMARK       I    between atoms: N1_13  and  C11_15 
REMARK    6  A    between atoms: C11_15  and  C12_17 
REMARK    7  A    between atoms: C12_17  and  C13_21 
REMARK    8  A    between atoms: C13_21  and  C14_22 
REMARK    9  A    between atoms: C14_22  and  C15_24 
REMARK   10  A    between atoms: C16_25  and  N3_26 
REMARK   11  A    between atoms: C17_30  and  O5_31 
REMARK   12  A    between atoms: C18_33  and  N4_34 
ROOT
HETATM    1  C13 UNL     1      27.796   6.580  12.467  1.00  0.00     0.142 C 
ENDROOT
BRANCH   1   2
HETATM    2  C12 UNL     1      27.872   5.400  11.576  1.00  0.00     0.078 C 
HETATM    3  N2  UNL     1      27.052   5.200  10.621  1.00  0.00    -0.398 N 
ATOM      4  H22 UNL     1      27.104   4.387  10.008  1.00  0.00     0.156 HD
ATOM      5  H21 UNL     1      26.298   5.872  10.475  1.00  0.00     0.156 HD
BRANCH   2   6
HETATM    6  C11 UNL     1      28.961   4.428  11.787  1.00  0.00     0.264 C 
HETATM    7  N1  UNL     1      29.675   3.890  10.696  1.00  0.00    -0.342 N 
ATOM      8  H1  UNL     1      29.389   4.211   9.771  1.00  0.00     0.163 HD
HETATM    9  O3  UNL     1      29.216   4.107  12.984  1.00  0.00    -0.266 OA
BRANCH   7  10
HETATM   10  C3  UNL     1      30.755   2.945  10.731  1.00  0.00     0.185 C 
BRANCH  10  11
HETATM   11  C2  UNL     1      31.783   3.341  11.726  1.00  0.00     0.281 C 
HETATM   12  O2  UNL     1      32.086   2.556  12.625  1.00  0.00    -0.263 OA
BRANCH  11  13
HETATM   13  O1  UNL     1      32.398   4.577  11.648  1.00  0.00    -0.325 OA
HETATM   14  C1  UNL     1      32.337   5.397  12.827  1.00  0.00     0.213 C 
ENDBRANCH  11  13
ENDBRANCH  10  11
BRANCH  10  15
HETATM   15  C4  UNL     1      31.390   2.694   9.379  1.00  0.00     0.040 C 
BRANCH  15  16
HETATM   16  C5  UNL     1      31.108   3.724   8.343  1.00  0.00    -0.012 C 
HETATM   17  C6  UNL     1      29.681   3.998   8.045  1.00  0.00     0.005 C 
HETATM   18  C7  UNL     1      29.059   3.144   6.970  1.00  0.00     0.000 C 
HETATM   19  C8  UNL     1      30.008   2.806   5.845  1.00  0.00     0.000 C 
HETATM   20  C9  UNL     1      31.332   2.295   6.370  1.00  0.00     0.000 C 
HETATM   21  C10 UNL     1      31.968   3.402   7.141  1.00  0.00     0.005 C 
ENDBRANCH  15  16
ENDBRANCH  10  15
ENDBRANCH   7  10
ENDBRANCH   2   6
ENDBRANCH   1   2
BRANCH   1  22
HETATM   22  C14 UNL     1      27.945   7.864  11.783  1.00  0.00     0.153 C 
HETATM   23  O4  UNL     1      29.041   8.228  11.341  1.00  0.00    -0.296 OA
BRANCH  22  24
HETATM   24  C15 UNL     1      26.806   8.809  11.576  1.00  0.00     0.211 C 
HETATM   25  C16 UNL     1      25.999   9.067  12.803  1.00  0.00     0.239 C 
HETATM   26  C17 UNL     1      24.753   8.282  12.961  1.00  0.00     0.181 C 
HETATM   27  C18 UNL     1      23.781   8.507  11.832  1.00  0.00     0.228 C 
HETATM   28  C19 UNL     1      24.273   7.629  10.675  1.00  0.00     0.176 C 
HETATM   29  S1  UNL     1      25.823   8.352  10.175  1.00  0.00     0.159 S 
HETATM   30  O6  UNL     1      25.469   9.558   9.333  1.00  0.00    -0.227 OA
HETATM   31  O7  UNL     1      26.507   7.378   9.263  1.00  0.00    -0.227 OA
BRANCH  25  32
HETATM   32  N3  UNL     1      25.676  10.499  12.929  1.00  0.00    -0.071 N 
ATOM     33  H33 UNL     1      25.140  10.692  13.775  1.00  0.00     0.274 HD
ATOM     34  H32 UNL     1      26.505  11.054  13.141  1.00  0.00     0.274 HD
ATOM     35  H31 UNL     1      25.199  10.839  12.094  1.00  0.00     0.274 HD
ENDBRANCH  25  32
BRANCH  26  36
HETATM   36  O5  UNL     1      24.131   8.729  14.145  1.00  0.00    -0.391 OA
ATOM     37  H5  UNL     1      23.487   8.073  14.385  1.00  0.00     0.210 HD
ENDBRANCH  26  36
BRANCH  27  38
HETATM   38  N4  UNL     1      22.423   8.250  12.184  1.00  0.00    -0.072 N 
ATOM     39  H43 UNL     1      21.833   8.230  11.352  1.00  0.00     0.274 HD
ATOM     40  H42 UNL     1      22.309   7.286  12.497  1.00  0.00     0.274 HD
ATOM     41  H41 UNL     1      22.048   8.899  12.875  1.00  0.00     0.274 HD
ENDBRANCH  27  38
ENDBRANCH  22  24
ENDBRANCH   1  22
TORSDOF 12
ENDMDL
