MODEL 1
REMARK VINA RESULT: -5.812811658      0.000      0.000
REMARK  5 active torsions:
REMARK  status: ('A' for Active; 'I' for Inactive)
REMARK    1  A    between atoms: N1_1  and  C1_5 
REMARK    2  A    between atoms: C1_5  and  C2_6 
REMARK    3  A    between atoms: C2_6  and  C3_7 
REMARK    4  A    between atoms: C3_7  and  N2_8 
REMARK    5  A    between atoms: C3_7  and  C4_12 
ROOT
HETATM    1  C3  UNL     1     -25.368  14.330  58.416  1.00  0.00     0.253 C 
ENDROOT
BRANCH   1   2
HETATM    2  C2  UNL     1     -25.579  14.698  59.854  1.00  0.00     0.068 C 
BRANCH   2   3
HETATM    3  C1  UNL     1     -24.434  14.360  60.749  1.00  0.00     0.232 C 
BRANCH   3   4
HETATM    4  N1  UNL     1     -24.345  12.900  60.807  1.00  0.00    -0.079 N 
ATOM      5  H13 UNL     1     -24.747  12.443  59.988  1.00  0.00     0.274 HD
ATOM      6  H12 UNL     1     -23.392  12.553  60.697  1.00  0.00     0.274 HD
ATOM      7  H11 UNL     1     -24.779  12.606  61.682  1.00  0.00     0.274 HD
ENDBRANCH   3   4
ENDBRANCH   2   3
ENDBRANCH   1   2
BRANCH   1   8
HETATM    8  N2  UNL     1     -24.212  14.885  57.815  1.00  0.00    -0.068 N 
ATOM      9  H23 UNL     1     -24.094  14.515  56.872  1.00  0.00     0.275 HD
ATOM     10  H22 UNL     1     -24.367  15.870  57.602  1.00  0.00     0.275 HD
ATOM     11  H21 UNL     1     -23.349  14.772  58.347  1.00  0.00     0.275 HD
ENDBRANCH   1   8
BRANCH   1  12
HETATM   12  C4  UNL     1     -26.561  14.717  57.621  1.00  0.00     0.129 A 
HETATM   13  N3  UNL     1     -26.700  14.723  56.288  1.00  0.00    -0.285 N 
HETATM   14  N4  UNL     1     -27.911  15.132  55.968  1.00  0.00    -0.272 N 
ATOM     15  H3  UNL     1     -25.977  14.452  55.622  1.00  0.00     0.188 HD
HETATM   16  C5  UNL     1     -28.571  15.396  57.108  1.00  0.00     0.208 A 
ATOM     17  H4  UNL     1     -28.282  15.230  55.022  1.00  0.00     0.189 HD
HETATM   18  N5  UNL     1     -29.905  15.862  57.281  1.00  0.00    -0.062 NA
HETATM   19  N6  UNL     1     -27.741  15.141  58.136  1.00  0.00    -0.316 N 
ATOM     20  H6  UNL     1     -27.961  15.248  59.127  1.00  0.00     0.170 HD
ENDBRANCH   1  12
TORSDOF 5
ENDMDL
MODEL 2
REMARK VINA RESULT: -5.654341548      1.375      2.307
REMARK  5 active torsions:
REMARK  status: ('A' for Active; 'I' for Inactive)
REMARK    1  A    between atoms: N1_1  and  C1_5 
REMARK    2  A    between atoms: C1_5  and  C2_6 
REMARK    3  A    between atoms: C2_6  and  C3_7 
REMARK    4  A    between atoms: C3_7  and  N2_8 
REMARK    5  A    between atoms: C3_7  and  C4_12 
ROOT
HETATM    1  C3  UNL     1     -26.628  14.870  60.358  1.00  0.00     0.253 C 
ENDROOT
BRANCH   1   2
HETATM    2  C2  UNL     1     -25.320  14.276  59.928  1.00  0.00     0.068 C 
BRANCH   2   3
HETATM    3  C1  UNL     1     -24.203  14.485  60.895  1.00  0.00     0.232 C 
BRANCH   3   4
HETATM    4  N1  UNL     1     -23.683  13.164  61.248  1.00  0.00    -0.079 N 
ATOM      5  H13 UNL     1     -23.551  13.041  62.252  1.00  0.00     0.274 HD
ATOM      6  H12 UNL     1     -24.364  12.416  61.112  1.00  0.00     0.274 HD
ATOM      7  H11 UNL     1     -22.825  13.024  60.713  1.00  0.00     0.274 HD
ENDBRANCH   3   4
ENDBRANCH   2   3
ENDBRANCH   1   2
BRANCH   1   8
HETATM    8  N2  UNL     1     -27.310  14.155  61.371  1.00  0.00    -0.068 N 
ATOM      9  H23 UNL     1     -27.970  14.769  61.851  1.00  0.00     0.275 HD
ATOM     10  H22 UNL     1     -27.958  13.488  60.954  1.00  0.00     0.275 HD
ATOM     11  H21 UNL     1     -26.712  13.686  62.050  1.00  0.00     0.275 HD
ENDBRANCH   1   8
BRANCH   1  12
HETATM   12  C4  UNL     1     -27.522  15.013  59.180  1.00  0.00     0.129 A 
HETATM   13  N3  UNL     1     -28.845  15.229  59.168  1.00  0.00    -0.285 N 
HETATM   14  N4  UNL     1     -29.275  15.296  57.924  1.00  0.00    -0.272 N 
ATOM     15  H3  UNL     1     -29.431  15.326  59.997  1.00  0.00     0.188 HD
HETATM   16  C5  UNL     1     -28.217  15.122  57.113  1.00  0.00     0.208 A 
ATOM     17  H4  UNL     1     -30.239  15.453  57.629  1.00  0.00     0.189 HD
HETATM   18  N5  UNL     1     -28.173  15.113  55.691  1.00  0.00    -0.062 NA
HETATM   19  N6  UNL     1     -27.128  14.947  57.885  1.00  0.00    -0.316 N 
ATOM     20  H6  UNL     1     -26.176  14.791  57.554  1.00  0.00     0.170 HD
ENDBRANCH   1  12
TORSDOF 5
ENDMDL
MODEL 3
REMARK VINA RESULT: -5.514162440      1.409      4.911
REMARK  5 active torsions:
REMARK  status: ('A' for Active; 'I' for Inactive)
REMARK    1  A    between atoms: N1_1  and  C1_5 
REMARK    2  A    between atoms: C1_5  and  C2_6 
REMARK    3  A    between atoms: C2_6  and  C3_7 
REMARK    4  A    between atoms: C3_7  and  N2_8 
REMARK    5  A    between atoms: C3_7  and  C4_12 
ROOT
HETATM    1  C3  UNL     1     -25.477  14.631  57.921  1.00  0.00     0.253 C 
ENDROOT
BRANCH   1   2
HETATM    2  C2  UNL     1     -26.792  15.333  57.759  1.00  0.00     0.068 C 
BRANCH   2   3
HETATM    3  C1  UNL     1     -27.514  15.000  56.496  1.00  0.00     0.232 C 
BRANCH   3   4
HETATM    4  N1  UNL     1     -28.938  15.238  56.735  1.00  0.00    -0.079 N 
ATOM      5  H13 UNL     1     -29.323  14.648  57.474  1.00  0.00     0.274 HD
ATOM      6  H12 UNL     1     -29.125  16.139  57.176  1.00  0.00     0.274 HD
ATOM      7  H11 UNL     1     -29.418  15.123  55.842  1.00  0.00     0.274 HD
ENDBRANCH   3   4
ENDBRANCH   2   3
ENDBRANCH   1   2
BRANCH   1   8
HETATM    8  N2  UNL     1     -25.251  13.559  57.024  1.00  0.00    -0.068 N 
ATOM      9  H23 UNL     1     -25.769  13.710  56.158  1.00  0.00     0.275 HD
ATOM     10  H22 UNL     1     -24.296  13.593  56.671  1.00  0.00     0.275 HD
ATOM     11  H21 UNL     1     -25.455  12.632  57.396  1.00  0.00     0.275 HD
ENDBRANCH   1   8
BRANCH   1  12
HETATM   12  C4  UNL     1     -25.345  14.135  59.314  1.00  0.00     0.129 A 
HETATM   13  N3  UNL     1     -26.071  14.480  60.387  1.00  0.00    -0.285 N 
HETATM   14  N4  UNL     1     -25.646  13.818  61.445  1.00  0.00    -0.272 N 
ATOM     15  H3  UNL     1     -26.836  15.154  60.385  1.00  0.00     0.188 HD
HETATM   16  C5  UNL     1     -24.629  13.030  61.056  1.00  0.00     0.208 A 
ATOM     17  H4  UNL     1     -26.023  13.890  62.390  1.00  0.00     0.189 HD
HETATM   18  N5  UNL     1     -23.848  12.129  61.833  1.00  0.00    -0.062 NA
HETATM   19  N6  UNL     1     -24.438  13.221  59.737  1.00  0.00    -0.316 N 
ATOM     20  H6  UNL     1     -23.735  12.760  59.159  1.00  0.00     0.170 HD
ENDBRANCH   1  12
TORSDOF 5
ENDMDL
MODEL 4
REMARK VINA RESULT: -5.506762389      1.125      1.680
REMARK  5 active torsions:
REMARK  status: ('A' for Active; 'I' for Inactive)
REMARK    1  A    between atoms: N1_1  and  C1_5 
REMARK    2  A    between atoms: C1_5  and  C2_6 
REMARK    3  A    between atoms: C2_6  and  C3_7 
REMARK    4  A    between atoms: C3_7  and  N2_8 
REMARK    5  A    between atoms: C3_7  and  C4_12 
ROOT
HETATM    1  C3  UNL     1     -24.731  13.832  58.938  1.00  0.00     0.253 C 
ENDROOT
BRANCH   1   2
HETATM    2  C2  UNL     1     -24.356  14.547  60.201  1.00  0.00     0.068 C 
BRANCH   2   3
HETATM    3  C1  UNL     1     -24.518  13.732  61.440  1.00  0.00     0.232 C 
BRANCH   3   4
HETATM    4  N1  UNL     1     -23.277  12.981  61.631  1.00  0.00    -0.079 N 
ATOM      5  H13 UNL     1     -22.666  13.392  62.338  1.00  0.00     0.274 HD
ATOM      6  H12 UNL     1     -23.420  12.081  62.089  1.00  0.00     0.274 HD
ATOM      7  H11 UNL     1     -22.830  12.899  60.717  1.00  0.00     0.274 HD
ENDBRANCH   3   4
ENDBRANCH   2   3
ENDBRANCH   1   2
BRANCH   1   8
HETATM    8  N2  UNL     1     -23.741  13.837  57.926  1.00  0.00    -0.068 N 
ATOM      9  H23 UNL     1     -22.816  13.723  58.339  1.00  0.00     0.275 HD
ATOM     10  H22 UNL     1     -23.799  12.981  57.375  1.00  0.00     0.275 HD
ATOM     11  H21 UNL     1     -23.752  14.651  57.312  1.00  0.00     0.275 HD
ENDBRANCH   1   8
BRANCH   1  12
HETATM   12  C4  UNL     1     -25.986  14.409  58.392  1.00  0.00     0.129 A 
HETATM   13  N3  UNL     1     -26.973  15.021  59.061  1.00  0.00    -0.285 N 
HETATM   14  N4  UNL     1     -27.918  15.393  58.219  1.00  0.00    -0.272 N 
ATOM     15  H3  UNL     1     -26.992  15.176  60.068  1.00  0.00     0.188 HD
HETATM   16  C5  UNL     1     -27.540  15.018  56.985  1.00  0.00     0.208 A 
ATOM     17  H4  UNL     1     -28.781  15.879  58.462  1.00  0.00     0.189 HD
HETATM   18  N5  UNL     1     -28.223  15.197  55.749  1.00  0.00    -0.062 NA
HETATM   19  N6  UNL     1     -26.345  14.408  57.085  1.00  0.00    -0.316 N 
ATOM     20  H6  UNL     1     -25.804  14.015  56.314  1.00  0.00     0.170 HD
ENDBRANCH   1  12
TORSDOF 5
ENDMDL
MODEL 5
REMARK VINA RESULT: -5.448222291      1.297      1.879
REMARK  5 active torsions:
REMARK  status: ('A' for Active; 'I' for Inactive)
REMARK    1  A    between atoms: N1_1  and  C1_5 
REMARK    2  A    between atoms: C1_5  and  C2_6 
REMARK    3  A    between atoms: C2_6  and  C3_7 
REMARK    4  A    between atoms: C3_7  and  N2_8 
REMARK    5  A    between atoms: C3_7  and  C4_12 
ROOT
HETATM    1  C3  UNL     1     -25.794  14.603  60.021  1.00  0.00     0.253 C 
ENDROOT
BRANCH   1   2
HETATM    2  C2  UNL     1     -24.747  13.541  60.177  1.00  0.00     0.068 C 
BRANCH   2   3
HETATM    3  C1  UNL     1     -24.225  13.393  61.567  1.00  0.00     0.232 C 
BRANCH   3   4
HETATM    4  N1  UNL     1     -24.658  12.083  62.055  1.00  0.00    -0.079 N 
ATOM      5  H13 UNL     1     -25.394  12.142  62.759  1.00  0.00     0.274 HD
ATOM      6  H12 UNL     1     -25.182  11.551  61.360  1.00  0.00     0.274 HD
ATOM      7  H11 UNL     1     -23.826  11.595  62.388  1.00  0.00     0.274 HD
ENDBRANCH   3   4
ENDBRANCH   2   3
ENDBRANCH   1   2
BRANCH   1   8
HETATM    8  N2  UNL     1     -26.952  14.429  60.816  1.00  0.00    -0.068 N 
ATOM      9  H23 UNL     1     -27.037  13.454  61.104  1.00  0.00     0.275 HD
ATOM     10  H22 UNL     1     -26.824  14.874  61.724  1.00  0.00     0.275 HD
ATOM     11  H21 UNL     1     -27.823  14.744  60.389  1.00  0.00     0.275 HD
ENDBRANCH   1   8
BRANCH   1  12
HETATM   12  C4  UNL     1     -26.195  14.702  58.594  1.00  0.00     0.129 A 
HETATM   13  N3  UNL     1     -25.458  14.431  57.508  1.00  0.00    -0.285 N 
HETATM   14  N4  UNL     1     -26.173  14.642  56.420  1.00  0.00    -0.272 N 
ATOM     15  H3  UNL     1     -24.491  14.110  57.521  1.00  0.00     0.188 HD
HETATM   16  C5  UNL     1     -27.392  15.057  56.803  1.00  0.00     0.208 A 
ATOM     17  H4  UNL     1     -25.856  14.514  55.459  1.00  0.00     0.189 HD
HETATM   18  N5  UNL     1     -28.511  15.408  55.997  1.00  0.00    -0.062 NA
HETATM   19  N6  UNL     1     -27.413  15.096  58.149  1.00  0.00    -0.316 N 
ATOM     20  H6  UNL     1     -28.205  15.372  58.730  1.00  0.00     0.170 HD
ENDBRANCH   1  12
TORSDOF 5
ENDMDL
