MODEL 1
REMARK VINA RESULT: -5.124492446      0.000      0.000
REMARK  6 active torsions:
REMARK  status: ('A' for Active; 'I' for Inactive)
REMARK    1  A    between atoms: N1_1  and  C1_4 
REMARK    2  A    between atoms: N4_9  and  C2_10 
REMARK    3  A    between atoms: C2_10  and  S1_11 
REMARK    4  A    between atoms: S1_11  and  C3_12 
REMARK    5  A    between atoms: C3_12  and  N5_13 
REMARK    6  A    between atoms: C3_12  and  N6_17 
ROOT
HETATM    1  C2  UNL     1     -26.636  14.943  58.898  1.00  0.00     0.247 C 
ENDROOT
BRANCH   1   2
HETATM    2  N4  UNL     1     -27.174  14.983  57.562  1.00  0.00    -0.098 N 
HETATM    3  C1  UNL     1     -28.381  15.202  57.028  1.00  0.00     0.710 A 
HETATM    4  N2  UNL     1     -27.866  15.030  55.796  1.00  0.00    -0.116 N 
HETATM    5  N3  UNL     1     -26.700  14.820  56.344  1.00  0.00    -0.211 N 
ATOM      6  H2  UNL     1     -28.231  15.054  54.843  1.00  0.00     0.207 HD
ATOM      7  H3  UNL     1     -25.774  14.609  55.971  1.00  0.00     0.209 HD
BRANCH   3   8
HETATM    8  N1  UNL     1     -29.588  15.473  57.425  1.00  0.00    -0.232 N 
ATOM      9  H12 UNL     1     -30.450  15.864  57.044  1.00  0.00     0.174 HD
ATOM     10  H11 UNL     1     -30.044  15.350  58.328  1.00  0.00     0.174 HD
ENDBRANCH   3   8
ENDBRANCH   1   2
BRANCH   1  11
HETATM   11  S1  UNL     1     -24.960  14.250  58.955  1.00  0.00    -0.086 SA
BRANCH  11  12
HETATM   12  C3  UNL     1     -24.412  14.233  60.682  1.00  0.00     0.441 C 
BRANCH  12  13
HETATM   13  N5  UNL     1     -25.405  14.932  61.500  1.00  0.00    -0.041 N 
ATOM     14  H53 UNL     1     -25.664  15.838  61.109  1.00  0.00     0.277 HD
ATOM     15  H52 UNL     1     -26.324  14.492  61.456  1.00  0.00     0.277 HD
ATOM     16  H51 UNL     1     -25.053  15.004  62.454  1.00  0.00     0.277 HD
ENDBRANCH  12  13
BRANCH  12  17
HETATM   17  N6  UNL     1     -24.316  12.838  61.068  1.00  0.00    -0.041 N 
ATOM     18  H63 UNL     1     -24.693  12.198  60.369  1.00  0.00     0.277 HD
ATOM     19  H62 UNL     1     -23.361  12.481  61.062  1.00  0.00     0.277 HD
ATOM     20  H61 UNL     1     -24.772  12.758  61.977  1.00  0.00     0.277 HD
ENDBRANCH  12  17
ENDBRANCH  11  12
ENDBRANCH   1  11
TORSDOF 6
ENDMDL
MODEL 2
REMARK VINA RESULT: -5.017694912      1.906      4.450
REMARK  6 active torsions:
REMARK  status: ('A' for Active; 'I' for Inactive)
REMARK    1  A    between atoms: N1_1  and  C1_4 
REMARK    2  A    between atoms: N4_9  and  C2_10 
REMARK    3  A    between atoms: C2_10  and  S1_11 
REMARK    4  A    between atoms: S1_11  and  C3_12 
REMARK    5  A    between atoms: C3_12  and  N5_13 
REMARK    6  A    between atoms: C3_12  and  N6_17 
ROOT
HETATM    1  C2  UNL     1     -25.594  15.404  57.481  1.00  0.00     0.247 C 
ENDROOT
BRANCH   1   2
HETATM    2  N4  UNL     1     -25.016  14.461  58.404  1.00  0.00    -0.098 N 
HETATM    3  C1  UNL     1     -25.081  14.262  59.726  1.00  0.00     0.710 A 
HETATM    4  N2  UNL     1     -24.246  13.212  59.608  1.00  0.00    -0.116 N 
HETATM    5  N3  UNL     1     -24.201  13.430  58.321  1.00  0.00    -0.211 N 
ATOM      6  H2  UNL     1     -23.828  12.537  60.249  1.00  0.00     0.207 HD
ATOM      7  H3  UNL     1     -23.719  12.975  57.546  1.00  0.00     0.209 HD
BRANCH   3   8
HETATM    8  N1  UNL     1     -25.661  14.785  60.764  1.00  0.00    -0.232 N 
ATOM      9  H12 UNL     1     -25.681  14.658  61.776  1.00  0.00     0.174 HD
ATOM     10  H11 UNL     1     -26.328  15.552  60.849  1.00  0.00     0.174 HD
ENDBRANCH   3   8
ENDBRANCH   1   2
BRANCH   1  11
HETATM   11  S1  UNL     1     -27.217  14.873  56.867  1.00  0.00    -0.086 SA
BRANCH  11  12
HETATM   12  C3  UNL     1     -28.491  15.610  57.925  1.00  0.00     0.441 C 
BRANCH  12  13
HETATM   13  N5  UNL     1     -29.754  15.649  57.186  1.00  0.00    -0.041 N 
ATOM     14  H53 UNL     1     -29.690  16.208  56.334  1.00  0.00     0.277 HD
ATOM     15  H52 UNL     1     -29.978  14.754  56.750  1.00  0.00     0.277 HD
ATOM     16  H51 UNL     1     -30.491  15.974  57.811  1.00  0.00     0.277 HD
ENDBRANCH  12  13
BRANCH  12  17
HETATM   17  N6  UNL     1     -28.603  14.753  59.090  1.00  0.00    -0.041 N 
ATOM     18  H63 UNL     1     -27.710  14.361  59.391  1.00  0.00     0.277 HD
ATOM     19  H62 UNL     1     -28.812  15.262  59.949  1.00  0.00     0.277 HD
ATOM     20  H61 UNL     1     -29.299  14.044  58.861  1.00  0.00     0.277 HD
ENDBRANCH  12  17
ENDBRANCH  11  12
ENDBRANCH   1  11
TORSDOF 6
ENDMDL
MODEL 3
REMARK VINA RESULT: -4.914056761      1.120      1.912
REMARK  6 active torsions:
REMARK  status: ('A' for Active; 'I' for Inactive)
REMARK    1  A    between atoms: N1_1  and  C1_4 
REMARK    2  A    between atoms: N4_9  and  C2_10 
REMARK    3  A    between atoms: C2_10  and  S1_11 
REMARK    4  A    between atoms: S1_11  and  C3_12 
REMARK    5  A    between atoms: C3_12  and  N5_13 
REMARK    6  A    between atoms: C3_12  and  N6_17 
ROOT
HETATM    1  C2  UNL     1     -26.377  14.794  58.660  1.00  0.00     0.247 C 
ENDROOT
BRANCH   1   2
HETATM    2  N4  UNL     1     -27.697  15.049  58.142  1.00  0.00    -0.098 N 
HETATM    3  C1  UNL     1     -28.242  15.125  56.922  1.00  0.00     0.710 A 
HETATM    4  N2  UNL     1     -29.441  15.388  57.475  1.00  0.00    -0.116 N 
HETATM    5  N3  UNL     1     -28.883  15.308  58.653  1.00  0.00    -0.211 N 
ATOM      6  H2  UNL     1     -30.382  15.571  57.124  1.00  0.00     0.207 HD
ATOM      7  H3  UNL     1     -29.232  15.407  59.607  1.00  0.00     0.209 HD
BRANCH   3   8
HETATM    8  N1  UNL     1     -27.875  15.013  55.681  1.00  0.00    -0.232 N 
ATOM      9  H12 UNL     1     -27.899  15.562  54.822  1.00  0.00     0.174 HD
ATOM     10  H11 UNL     1     -27.410  14.255  55.182  1.00  0.00     0.174 HD
ENDBRANCH   3   8
ENDBRANCH   1   2
BRANCH   1  11
HETATM   11  S1  UNL     1     -26.348  14.693  60.471  1.00  0.00    -0.086 SA
BRANCH  11  12
HETATM   12  C3  UNL     1     -24.676  14.215  60.985  1.00  0.00     0.441 C 
BRANCH  12  13
HETATM   13  N5  UNL     1     -24.694  12.813  61.404  1.00  0.00    -0.041 N 
ATOM     14  H53 UNL     1     -25.156  12.209  60.725  1.00  0.00     0.277 HD
ATOM     15  H52 UNL     1     -23.769  12.384  61.368  1.00  0.00     0.277 HD
ATOM     16  H51 UNL     1     -25.115  12.752  62.331  1.00  0.00     0.277 HD
ENDBRANCH  12  13
BRANCH  12  17
HETATM   17  N6  UNL     1     -23.823  14.395  59.825  1.00  0.00    -0.041 N 
ATOM     18  H63 UNL     1     -22.924  14.824  60.047  1.00  0.00     0.277 HD
ATOM     19  H62 UNL     1     -23.456  13.520  59.453  1.00  0.00     0.277 HD
ATOM     20  H61 UNL     1     -24.368  14.927  59.146  1.00  0.00     0.277 HD
ENDBRANCH  12  17
ENDBRANCH  11  12
ENDBRANCH   1  11
TORSDOF 6
ENDMDL
MODEL 4
REMARK VINA RESULT: -4.894648407      1.766      4.788
REMARK  6 active torsions:
REMARK  status: ('A' for Active; 'I' for Inactive)
REMARK    1  A    between atoms: N1_1  and  C1_4 
REMARK    2  A    between atoms: N4_9  and  C2_10 
REMARK    3  A    between atoms: C2_10  and  S1_11 
REMARK    4  A    between atoms: S1_11  and  C3_12 
REMARK    5  A    between atoms: C3_12  and  N5_13 
REMARK    6  A    between atoms: C3_12  and  N6_17 
ROOT
HETATM    1  C2  UNL     1     -26.893  14.820  59.628  1.00  0.00     0.247 C 
ENDROOT
BRANCH   1   2
HETATM    2  N4  UNL     1     -25.646  14.273  59.154  1.00  0.00    -0.098 N 
HETATM    3  C1  UNL     1     -24.670  13.529  59.686  1.00  0.00     0.710 A 
HETATM    4  N2  UNL     1     -24.007  13.563  58.514  1.00  0.00    -0.116 N 
HETATM    5  N3  UNL     1     -24.975  14.289  58.021  1.00  0.00    -0.211 N 
ATOM      6  H2  UNL     1     -23.127  13.184  58.163  1.00  0.00     0.207 HD
ATOM      7  H3  UNL     1     -25.145  14.708  57.107  1.00  0.00     0.209 HD
BRANCH   3   8
HETATM    8  N1  UNL     1     -24.382  12.964  60.819  1.00  0.00    -0.232 N 
ATOM      9  H12 UNL     1     -24.868  12.603  61.640  1.00  0.00     0.174 HD
ATOM     10  H11 UNL     1     -23.489  12.702  61.234  1.00  0.00     0.174 HD
ENDBRANCH   3   8
ENDBRANCH   1   2
BRANCH   1  11
HETATM   11  S1  UNL     1     -27.651  15.960  58.438  1.00  0.00    -0.086 SA
BRANCH  11  12
HETATM   12  C3  UNL     1     -28.639  14.986  57.270  1.00  0.00     0.441 C 
BRANCH  12  13
HETATM   13  N5  UNL     1     -29.962  15.599  57.146  1.00  0.00    -0.041 N 
ATOM     14  H53 UNL     1     -30.711  14.974  57.446  1.00  0.00     0.277 HD
ATOM     15  H52 UNL     1     -30.114  16.340  57.831  1.00  0.00     0.277 HD
ATOM     16  H51 UNL     1     -30.086  15.923  56.187  1.00  0.00     0.277 HD
ENDBRANCH  12  13
BRANCH  12  17
HETATM   17  N6  UNL     1     -27.932  15.025  56.004  1.00  0.00    -0.041 N 
ATOM     18  H63 UNL     1     -28.255  14.322  55.339  1.00  0.00     0.277 HD
ATOM     19  H62 UNL     1     -28.157  15.844  55.439  1.00  0.00     0.277 HD
ATOM     20  H61 UNL     1     -26.940  14.947  56.224  1.00  0.00     0.277 HD
ENDBRANCH  12  17
ENDBRANCH  11  12
ENDBRANCH   1  11
TORSDOF 6
ENDMDL
MODEL 5
REMARK VINA RESULT: -4.883974167      1.386      5.022
REMARK  6 active torsions:
REMARK  status: ('A' for Active; 'I' for Inactive)
REMARK    1  A    between atoms: N1_1  and  C1_4 
REMARK    2  A    between atoms: N4_9  and  C2_10 
REMARK    3  A    between atoms: C2_10  and  S1_11 
REMARK    4  A    between atoms: S1_11  and  C3_12 
REMARK    5  A    between atoms: C3_12  and  N5_13 
REMARK    6  A    between atoms: C3_12  and  N6_17 
ROOT
HETATM    1  C2  UNL     1     -25.940  14.959  58.299  1.00  0.00     0.247 C 
ENDROOT
BRANCH   1   2
HETATM    2  N4  UNL     1     -25.312  14.183  59.338  1.00  0.00    -0.098 N 
HETATM    3  C1  UNL     1     -25.231  14.266  60.671  1.00  0.00     0.710 A 
HETATM    4  N2  UNL     1     -24.477  13.150  60.693  1.00  0.00    -0.116 N 
HETATM    5  N3  UNL     1     -24.573  13.094  59.392  1.00  0.00    -0.211 N 
ATOM      6  H2  UNL     1     -24.026  12.589  61.417  1.00  0.00     0.207 HD
ATOM      7  H3  UNL     1     -24.212  12.452  58.686  1.00  0.00     0.209 HD
BRANCH   3   8
HETATM    8  N1  UNL     1     -25.654  15.036  61.627  1.00  0.00    -0.232 N 
ATOM      9  H12 UNL     1     -26.538  15.315  62.051  1.00  0.00     0.174 HD
ATOM     10  H11 UNL     1     -25.152  15.634  62.283  1.00  0.00     0.174 HD
ENDBRANCH   3   8
ENDBRANCH   1   2
BRANCH   1  11
HETATM   11  S1  UNL     1     -27.701  15.254  58.617  1.00  0.00    -0.086 SA
BRANCH  11  12
HETATM   12  C3  UNL     1     -28.484  15.749  57.059  1.00  0.00     0.441 C 
BRANCH  12  13
HETATM   13  N5  UNL     1     -27.955  14.914  55.980  1.00  0.00    -0.041 N 
ATOM     14  H53 UNL     1     -27.184  15.361  55.484  1.00  0.00     0.277 HD
ATOM     15  H52 UNL     1     -27.447  14.102  56.329  1.00  0.00     0.277 HD
ATOM     16  H51 UNL     1     -28.722  14.657  55.358  1.00  0.00     0.277 HD
ENDBRANCH  12  13
BRANCH  12  17
HETATM   17  N6  UNL     1     -29.908  15.532  57.229  1.00  0.00    -0.041 N 
ATOM     18  H63 UNL     1     -30.276  14.784  56.640  1.00  0.00     0.277 HD
ATOM     19  H62 UNL     1     -30.150  15.114  58.127  1.00  0.00     0.277 HD
ATOM     20  H61 UNL     1     -30.359  16.432  57.067  1.00  0.00     0.277 HD
ENDBRANCH  12  17
ENDBRANCH  11  12
ENDBRANCH   1  11
TORSDOF 6
ENDMDL
