MODEL 1
REMARK VINA RESULT: -6.717072368      0.000      0.000
REMARK  2 active torsions:
REMARK  status: ('A' for Active; 'I' for Inactive)
REMARK    1  A    between atoms: C3_6  and  N3_7 
REMARK       I    between atoms: N3_7  and  C4_9 
REMARK       I    between atoms: C4_9  and  N4_10 
REMARK       I    between atoms: C4_9  and  N5_14 
REMARK    2  A    between atoms: C5_20  and  N7_21 
ROOT
HETATM    1  N1  UNL     1     -28.221  15.178  55.779  1.00  0.00    -0.188 NA
HETATM    2  C1  UNL     1     -27.956  15.064  56.905  1.00  0.00     0.138 C 
HETATM    3  C2  UNL     1     -27.645  14.904  58.298  1.00  0.00     0.217 A 
HETATM    4  N2  UNL     1     -26.392  14.739  58.739  1.00  0.00    -0.166 N 
ATOM      5  H2  UNL     1     -25.631  14.726  58.061  1.00  0.00     0.186 HD
HETATM    6  C3  UNL     1     -26.095  14.587  60.064  1.00  0.00     0.697 A 
HETATM    7  N6  UNL     1     -27.103  14.607  60.937  1.00  0.00    -0.022 N 
ATOM      8  H6  UNL     1     -26.901  14.496  61.931  1.00  0.00     0.203 HD
HETATM    9  C5  UNL     1     -28.398  14.773  60.537  1.00  0.00     0.692 A 
HETATM   10  N8  UNL     1     -28.620  14.917  59.224  1.00  0.00    -0.166 N 
ATOM     11  H8  UNL     1     -29.582  15.043  58.909  1.00  0.00     0.186 HD
ENDROOT
BRANCH   6  12
HETATM   12  N3  UNL     1     -24.758  14.428  60.452  1.00  0.00    -0.173 N 
HETATM   13  C4  UNL     1     -24.408  13.698  61.638  1.00  0.00     0.494 C 
HETATM   14  N4  UNL     1     -24.770  12.324  61.487  1.00  0.00    -0.032 N 
HETATM   15  N5  UNL     1     -23.003  13.856  61.985  1.00  0.00    -0.032 N 
ATOM     16  H43 UNL     1     -25.755  12.212  61.244  1.00  0.00     0.278 HD
ATOM     17  H42 UNL     1     -24.363  11.910  60.647  1.00  0.00     0.278 HD
ATOM     18  H41 UNL     1     -24.522  11.805  62.329  1.00  0.00     0.278 HD
ATOM     19  H53 UNL     1     -22.399  13.602  61.203  1.00  0.00     0.278 HD
ATOM     20  H52 UNL     1     -22.753  14.841  62.070  1.00  0.00     0.278 HD
ATOM     21  H51 UNL     1     -22.755  13.337  62.827  1.00  0.00     0.278 HD
ATOM     22  H3  UNL     1     -24.019  14.839  59.881  1.00  0.00     0.181 HD
ENDBRANCH   6  12
BRANCH   9  23
HETATM   23  N7  UNL     1     -29.325  14.783  61.429  1.00  0.00    -0.234 N 
ATOM     24  H72 UNL     1     -29.154  14.897  62.428  1.00  0.00     0.174 HD
ATOM     25  H71 UNL     1     -30.294  14.669  61.131  1.00  0.00     0.174 HD
ENDBRANCH   9  23
TORSDOF 2
ENDMDL
MODEL 2
REMARK VINA RESULT: -6.604232701      1.625      3.434
REMARK  2 active torsions:
REMARK  status: ('A' for Active; 'I' for Inactive)
REMARK    1  A    between atoms: C3_6  and  N3_7 
REMARK       I    between atoms: N3_7  and  C4_9 
REMARK       I    between atoms: C4_9  and  N4_10 
REMARK       I    between atoms: C4_9  and  N5_14 
REMARK    2  A    between atoms: C5_20  and  N7_21 
ROOT
HETATM    1  N1  UNL     1     -28.838  15.781  55.983  1.00  0.00    -0.188 NA
HETATM    2  C1  UNL     1     -28.063  15.423  56.773  1.00  0.00     0.138 C 
HETATM    3  C2  UNL     1     -27.091  14.999  57.741  1.00  0.00     0.217 A 
HETATM    4  N2  UNL     1     -27.351  14.967  59.053  1.00  0.00    -0.166 N 
ATOM      5  H2  UNL     1     -28.274  15.255  59.378  1.00  0.00     0.186 HD
HETATM    6  C3  UNL     1     -26.426  14.564  59.974  1.00  0.00     0.697 A 
HETATM    7  N6  UNL     1     -25.225  14.190  59.532  1.00  0.00    -0.022 N 
ATOM      8  H6  UNL     1     -24.521  13.885  60.205  1.00  0.00     0.203 HD
HETATM    9  C5  UNL     1     -24.911  14.205  58.203  1.00  0.00     0.692 A 
HETATM   10  N8  UNL     1     -25.863  14.611  57.353  1.00  0.00    -0.166 N 
ATOM     11  H8  UNL     1     -25.645  14.626  56.357  1.00  0.00     0.186 HD
ENDROOT
BRANCH   6  12
HETATM   12  N3  UNL     1     -26.774  14.547  61.332  1.00  0.00    -0.173 N 
HETATM   13  C4  UNL     1     -28.088  14.925  61.770  1.00  0.00     0.494 C 
HETATM   14  N4  UNL     1     -29.052  13.994  61.272  1.00  0.00    -0.032 N 
HETATM   15  N5  UNL     1     -28.165  15.069  63.216  1.00  0.00    -0.032 N 
ATOM     16  H43 UNL     1     -28.999  13.893  60.259  1.00  0.00     0.278 HD
ATOM     17  H42 UNL     1     -28.824  13.033  61.528  1.00  0.00     0.278 HD
ATOM     18  H41 UNL     1     -29.986  14.263  61.583  1.00  0.00     0.278 HD
ATOM     19  H53 UNL     1     -27.848  14.222  63.688  1.00  0.00     0.278 HD
ATOM     20  H52 UNL     1     -27.460  15.720  63.560  1.00  0.00     0.278 HD
ATOM     21  H51 UNL     1     -29.099  15.337  63.526  1.00  0.00     0.278 HD
ATOM     22  H3  UNL     1     -26.080  14.261  62.023  1.00  0.00     0.181 HD
ENDBRANCH   6  12
BRANCH   9  23
HETATM   23  N7  UNL     1     -23.734  13.833  57.841  1.00  0.00    -0.234 N 
ATOM     24  H72 UNL     1     -23.332  12.921  58.058  1.00  0.00     0.174 HD
ATOM     25  H71 UNL     1     -23.158  14.482  57.306  1.00  0.00     0.174 HD
ENDBRANCH   9  23
TORSDOF 2
ENDMDL
MODEL 3
REMARK VINA RESULT: -6.549222328      1.828      3.456
REMARK  2 active torsions:
REMARK  status: ('A' for Active; 'I' for Inactive)
REMARK    1  A    between atoms: C3_6  and  N3_7 
REMARK       I    between atoms: N3_7  and  C4_9 
REMARK       I    between atoms: C4_9  and  N4_10 
REMARK       I    between atoms: C4_9  and  N5_14 
REMARK    2  A    between atoms: C5_20  and  N7_21 
ROOT
HETATM    1  N1  UNL     1     -28.900  15.412  60.141  1.00  0.00    -0.188 NA
HETATM    2  C1  UNL     1     -27.815  14.994  60.151  1.00  0.00     0.138 C 
HETATM    3  C2  UNL     1     -26.467  14.498  60.154  1.00  0.00     0.217 A 
HETATM    4  N2  UNL     1     -25.861  14.073  61.269  1.00  0.00    -0.166 N 
ATOM      5  H2  UNL     1     -26.376  14.101  62.149  1.00  0.00     0.186 HD
HETATM    6  C3  UNL     1     -24.579  13.601  61.272  1.00  0.00     0.697 A 
HETATM    7  N6  UNL     1     -23.921  13.570  60.113  1.00  0.00    -0.022 N 
ATOM      8  H6  UNL     1     -22.963  13.221  60.095  1.00  0.00     0.203 HD
HETATM    9  C5  UNL     1     -24.495  13.994  58.948  1.00  0.00     0.692 A 
HETATM   10  N8  UNL     1     -25.755  14.444  59.015  1.00  0.00    -0.166 N 
ATOM     11  H8  UNL     1     -26.199  14.762  58.153  1.00  0.00     0.186 HD
ENDROOT
BRANCH   6  12
HETATM   12  N3  UNL     1     -24.013  13.163  62.478  1.00  0.00    -0.173 N 
HETATM   13  C4  UNL     1     -24.668  12.180  63.294  1.00  0.00     0.494 C 
HETATM   14  N4  UNL     1     -24.726  10.933  62.599  1.00  0.00    -0.032 N 
HETATM   15  N5  UNL     1     -24.041  12.046  64.601  1.00  0.00    -0.032 N 
ATOM     16  H43 UNL     1     -25.165  11.025  61.683  1.00  0.00     0.278 HD
ATOM     17  H42 UNL     1     -23.804  10.623  62.289  1.00  0.00     0.278 HD
ATOM     18  H41 UNL     1     -25.191  10.234  63.178  1.00  0.00     0.278 HD
ATOM     19  H53 UNL     1     -23.043  11.849  64.514  1.00  0.00     0.278 HD
ATOM     20  H52 UNL     1     -23.987  12.946  65.078  1.00  0.00     0.278 HD
ATOM     21  H51 UNL     1     -24.506  11.347  65.180  1.00  0.00     0.278 HD
ATOM     22  H3  UNL     1     -23.119  13.550  62.781  1.00  0.00     0.181 HD
ENDBRANCH   6  12
BRANCH   9  23
HETATM   23  N7  UNL     1     -23.807  13.938  57.863  1.00  0.00    -0.234 N 
ATOM     24  H72 UNL     1     -24.034  14.460  57.016  1.00  0.00     0.174 HD
ATOM     25  H71 UNL     1     -22.982  13.339  57.836  1.00  0.00     0.174 HD
ENDBRANCH   9  23
TORSDOF 2
ENDMDL
MODEL 4
REMARK VINA RESULT: -6.457494657      1.221      2.977
REMARK  2 active torsions:
REMARK  status: ('A' for Active; 'I' for Inactive)
REMARK    1  A    between atoms: C3_6  and  N3_7 
REMARK       I    between atoms: N3_7  and  C4_9 
REMARK       I    between atoms: C4_9  and  N4_10 
REMARK       I    between atoms: C4_9  and  N5_14 
REMARK    2  A    between atoms: C5_20  and  N7_21 
ROOT
HETATM    1  N1  UNL     1     -29.456  15.182  61.306  1.00  0.00    -0.188 NA
HETATM    2  C1  UNL     1     -28.489  14.997  60.687  1.00  0.00     0.138 C 
HETATM    3  C2  UNL     1     -27.296  14.792  59.914  1.00  0.00     0.217 A 
HETATM    4  N2  UNL     1     -26.141  14.403  60.466  1.00  0.00    -0.166 N 
ATOM      5  H2  UNL     1     -26.107  14.245  61.473  1.00  0.00     0.186 HD
HETATM    6  C3  UNL     1     -25.007  14.207  59.731  1.00  0.00     0.697 A 
HETATM    7  N6  UNL     1     -25.070  14.418  58.415  1.00  0.00    -0.022 N 
ATOM      8  H6  UNL     1     -24.232  14.276  57.849  1.00  0.00     0.203 HD
HETATM    9  C5  UNL     1     -26.224  14.816  57.805  1.00  0.00     0.692 A 
HETATM   10  N8  UNL     1     -27.300  14.989  58.584  1.00  0.00    -0.166 N 
ATOM     11  H8  UNL     1     -28.171  15.285  58.143  1.00  0.00     0.186 HD
ENDROOT
BRANCH   6  12
HETATM   12  N3  UNL     1     -23.835  13.789  60.377  1.00  0.00    -0.173 N 
HETATM   13  C4  UNL     1     -23.856  13.337  61.740  1.00  0.00     0.494 C 
HETATM   14  N4  UNL     1     -24.619  12.133  61.840  1.00  0.00    -0.032 N 
HETATM   15  N5  UNL     1     -22.517  13.181  62.287  1.00  0.00    -0.032 N 
ATOM     16  H43 UNL     1     -25.559  12.241  61.457  1.00  0.00     0.278 HD
ATOM     17  H42 UNL     1     -24.283  11.411  61.202  1.00  0.00     0.278 HD
ATOM     18  H41 UNL     1     -24.635  11.812  62.808  1.00  0.00     0.278 HD
ATOM     19  H53 UNL     1     -21.949  12.566  61.703  1.00  0.00     0.278 HD
ATOM     20  H52 UNL     1     -21.977  14.040  62.191  1.00  0.00     0.278 HD
ATOM     21  H51 UNL     1     -22.532  12.859  63.255  1.00  0.00     0.278 HD
ATOM     22  H3  UNL     1     -22.950  13.805  59.869  1.00  0.00     0.181 HD
ENDBRANCH   6  12
BRANCH   9  23
HETATM   23  N7  UNL     1     -26.220  15.002  56.533  1.00  0.00    -0.234 N 
ATOM     24  H72 UNL     1     -25.798  14.358  55.863  1.00  0.00     0.174 HD
ATOM     25  H71 UNL     1     -26.660  15.842  56.158  1.00  0.00     0.174 HD
ENDBRANCH   9  23
TORSDOF 2
ENDMDL
MODEL 5
REMARK VINA RESULT: -6.302867091      1.636      2.932
REMARK  2 active torsions:
REMARK  status: ('A' for Active; 'I' for Inactive)
REMARK    1  A    between atoms: C3_6  and  N3_7 
REMARK       I    between atoms: N3_7  and  C4_9 
REMARK       I    between atoms: C4_9  and  N4_10 
REMARK       I    between atoms: C4_9  and  N5_14 
REMARK    2  A    between atoms: C5_20  and  N7_21 
ROOT
HETATM    1  N1  UNL     1     -28.872  15.762  56.122  1.00  0.00    -0.188 NA
HETATM    2  C1  UNL     1     -28.079  15.403  56.892  1.00  0.00     0.138 C 
HETATM    3  C2  UNL     1     -27.084  14.976  57.836  1.00  0.00     0.217 A 
HETATM    4  N2  UNL     1     -27.316  14.932  59.153  1.00  0.00    -0.166 N 
ATOM      5  H2  UNL     1     -28.233  15.211  59.499  1.00  0.00     0.186 HD
HETATM    6  C3  UNL     1     -26.370  14.525  60.051  1.00  0.00     0.697 A 
HETATM    7  N6  UNL     1     -25.176  14.162  59.580  1.00  0.00    -0.022 N 
ATOM      8  H6  UNL     1     -24.456  13.856  60.235  1.00  0.00     0.203 HD
HETATM    9  C5  UNL     1     -24.890  14.191  58.245  1.00  0.00     0.692 A 
HETATM   10  N8  UNL     1     -25.862  14.598  57.419  1.00  0.00    -0.166 N 
ATOM     11  H8  UNL     1     -25.665  14.623  56.418  1.00  0.00     0.186 HD
ENDROOT
BRANCH   6  12
HETATM   12  N3  UNL     1     -26.689  14.496  61.416  1.00  0.00    -0.173 N 
HETATM   13  C4  UNL     1     -25.721  14.097  62.398  1.00  0.00     0.494 C 
HETATM   14  N4  UNL     1     -24.647  15.038  62.432  1.00  0.00    -0.032 N 
HETATM   15  N5  UNL     1     -26.319  13.906  63.711  1.00  0.00    -0.032 N 
ATOM     16  H43 UNL     1     -24.226  15.172  61.512  1.00  0.00     0.278 HD
ATOM     17  H42 UNL     1     -24.977  15.992  62.583  1.00  0.00     0.278 HD
ATOM     18  H41 UNL     1     -23.959  14.755  63.130  1.00  0.00     0.278 HD
ATOM     19  H53 UNL     1     -26.828  14.738  64.010  1.00  0.00     0.278 HD
ATOM     20  H52 UNL     1     -27.097  13.248  63.670  1.00  0.00     0.278 HD
ATOM     21  H51 UNL     1     -25.631  13.623  64.409  1.00  0.00     0.278 HD
ATOM     22  H3  UNL     1     -27.626  14.763  61.716  1.00  0.00     0.181 HD
ENDBRANCH   6  12
BRANCH   9  23
HETATM   23  N7  UNL     1     -23.719  13.828  57.855  1.00  0.00    -0.234 N 
ATOM     24  H72 UNL     1     -23.264  12.962  58.144  1.00  0.00     0.174 HD
ATOM     25  H71 UNL     1     -23.204  14.437  57.219  1.00  0.00     0.174 HD
ENDBRANCH   9  23
TORSDOF 2
ENDMDL
