MODEL 1
REMARK VINA RESULT: -4.041300832      0.000      0.000
REMARK  4 active torsions:
REMARK  status: ('A' for Active; 'I' for Inactive)
REMARK    1  A    between atoms: S1_2  and  N1_5 
REMARK    2  A    between atoms: N1_5  and  N2_7 
REMARK    3  A    between atoms: N2_7  and  N3_9 
REMARK    4  A    between atoms: N3_9  and  N4_11 
ROOT
HETATM    1  N2  UNL     1      20.767  71.091  93.627  1.00  0.00    -0.219 N 
ATOM      2  H2  UNL     1      20.466  71.468  92.729  1.00  0.00     0.210 HD
ENDROOT
BRANCH   1   3
HETATM    3  N1  UNL     1      22.074  71.160  94.044  1.00  0.00    -0.212 N 
ATOM      4  H1  UNL     1      22.610  72.012  94.212  1.00  0.00     0.201 HD
BRANCH   3   5
HETATM    5  S1  UNL     1      22.640  69.539  94.230  1.00  0.00     0.241 S 
HETATM    6  C1  UNL     1      24.272  69.359  93.566  1.00  0.00     0.187 C 
HETATM    7  O1  UNL     1      21.728  68.638  93.451  1.00  0.00    -0.205 OA
HETATM    8  O2  UNL     1      22.594  69.143  95.677  1.00  0.00    -0.205 OA
ENDBRANCH   3   5
ENDBRANCH   1   3
BRANCH   1   9
HETATM    9  N3  UNL     1      19.894  70.487  94.487  1.00  0.00    -0.234 N 
ATOM     10  H3  UNL     1      20.172  69.683  95.051  1.00  0.00     0.209 HD
BRANCH   9  11
HETATM   11  N4  UNL     1      18.638  71.003  94.558  1.00  0.00    -0.330 N 
ATOM     12  H42 UNL     1      18.443  71.942  94.209  1.00  0.00     0.178 HD
ATOM     13  H41 UNL     1      17.917  70.413  94.972  1.00  0.00     0.178 HD
ENDBRANCH   9  11
ENDBRANCH   1   9
TORSDOF 4
ENDMDL
MODEL 2
REMARK VINA RESULT: -3.940196231      5.456      5.868
REMARK  4 active torsions:
REMARK  status: ('A' for Active; 'I' for Inactive)
REMARK    1  A    between atoms: S1_2  and  N1_5 
REMARK    2  A    between atoms: N1_5  and  N2_7 
REMARK    3  A    between atoms: N2_7  and  N3_9 
REMARK    4  A    between atoms: N3_9  and  N4_11 
ROOT
HETATM    1  N2  UNL     1      18.149  71.718  98.104  1.00  0.00    -0.219 N 
ATOM      2  H2  UNL     1      19.117  71.399  98.065  1.00  0.00     0.210 HD
ENDROOT
BRANCH   1   3
HETATM    3  N1  UNL     1      17.094  70.875  97.856  1.00  0.00    -0.212 N 
ATOM      4  H1  UNL     1      16.490  70.441  98.554  1.00  0.00     0.201 HD
BRANCH   3   5
HETATM    5  S1  UNL     1      16.979  70.686  96.143  1.00  0.00     0.241 S 
HETATM    6  C1  UNL     1      18.012  69.362  95.581  1.00  0.00     0.187 C 
HETATM    7  O1  UNL     1      17.470  71.952  95.504  1.00  0.00    -0.205 OA
HETATM    8  O2  UNL     1      15.548  70.467  95.747  1.00  0.00    -0.205 OA
ENDBRANCH   3   5
ENDBRANCH   1   3
BRANCH   1   9
HETATM    9  N3  UNL     1      17.826  73.011  98.405  1.00  0.00    -0.234 N 
ATOM     10  H3  UNL     1      17.318  73.248  99.258  1.00  0.00     0.209 HD
BRANCH   9  11
HETATM   11  N4  UNL     1      18.210  73.968  97.519  1.00  0.00    -0.330 N 
ATOM     12  H42 UNL     1      18.964  73.787  96.856  1.00  0.00     0.178 HD
ATOM     13  H41 UNL     1      17.713  74.858  97.553  1.00  0.00     0.178 HD
ENDBRANCH   9  11
ENDBRANCH   1   9
TORSDOF 4
ENDMDL
MODEL 3
REMARK VINA RESULT: -3.918505668      1.569      1.948
REMARK  4 active torsions:
REMARK  status: ('A' for Active; 'I' for Inactive)
REMARK    1  A    between atoms: S1_2  and  N1_5 
REMARK    2  A    between atoms: N1_5  and  N2_7 
REMARK    3  A    between atoms: N2_7  and  N3_9 
REMARK    4  A    between atoms: N3_9  and  N4_11 
ROOT
HETATM    1  N2  UNL     1      19.896  69.901  94.814  1.00  0.00    -0.219 N 
ATOM      2  H2  UNL     1      19.933  69.696  95.812  1.00  0.00     0.210 HD
ENDROOT
BRANCH   1   3
HETATM    3  N1  UNL     1      20.672  69.227  93.903  1.00  0.00    -0.212 N 
ATOM      4  H1  UNL     1      20.414  68.378  93.400  1.00  0.00     0.201 HD
BRANCH   3   5
HETATM    5  S1  UNL     1      22.166  70.084  93.767  1.00  0.00     0.241 S 
HETATM    6  C1  UNL     1      23.151  69.433  92.448  1.00  0.00     0.187 C 
HETATM    7  O1  UNL     1      22.927  69.890  95.046  1.00  0.00    -0.205 OA
HETATM    8  O2  UNL     1      21.900  71.549  93.578  1.00  0.00    -0.205 OA
ENDBRANCH   3   5
ENDBRANCH   1   3
BRANCH   1   9
HETATM    9  N3  UNL     1      19.071  70.863  94.304  1.00  0.00    -0.234 N 
ATOM     10  H3  UNL     1      19.144  71.168  93.333  1.00  0.00     0.209 HD
BRANCH   9  11
HETATM   11  N4  UNL     1      18.148  71.398  95.147  1.00  0.00    -0.330 N 
ATOM     12  H42 UNL     1      17.690  70.817  95.849  1.00  0.00     0.178 HD
ATOM     13  H41 UNL     1      17.943  72.391  95.041  1.00  0.00     0.178 HD
ENDBRANCH   9  11
ENDBRANCH   1   9
TORSDOF 4
ENDMDL
MODEL 4
REMARK VINA RESULT: -3.875691326      2.324      2.721
REMARK  4 active torsions:
REMARK  status: ('A' for Active; 'I' for Inactive)
REMARK    1  A    between atoms: S1_2  and  N1_5 
REMARK    2  A    between atoms: N1_5  and  N2_7 
REMARK    3  A    between atoms: N2_7  and  N3_9 
REMARK    4  A    between atoms: N3_9  and  N4_11 
ROOT
HETATM    1  N2  UNL     1      22.745  70.583  94.587  1.00  0.00    -0.219 N 
ATOM      2  H2  UNL     1      23.224  71.300  95.131  1.00  0.00     0.210 HD
ENDROOT
BRANCH   1   3
HETATM    3  N1  UNL     1      23.066  70.328  93.276  1.00  0.00    -0.212 N 
ATOM      4  H1  UNL     1      22.689  70.806  92.458  1.00  0.00     0.201 HD
BRANCH   3   5
HETATM    5  S1  UNL     1      24.226  69.048  93.271  1.00  0.00     0.241 S 
HETATM    6  C1  UNL     1      23.951  67.950  91.909  1.00  0.00     0.187 C 
HETATM    7  O1  UNL     1      24.051  68.261  94.536  1.00  0.00    -0.205 OA
HETATM    8  O2  UNL     1      25.615  69.617  93.241  1.00  0.00    -0.205 OA
ENDBRANCH   3   5
ENDBRANCH   1   3
BRANCH   1   9
HETATM    9  N3  UNL     1      21.745  69.819  95.119  1.00  0.00    -0.234 N 
ATOM     10  H3  UNL     1      20.882  69.638  94.606  1.00  0.00     0.209 HD
BRANCH   9  11
HETATM   11  N4  UNL     1      21.950  69.312  96.364  1.00  0.00    -0.330 N 
ATOM     12  H42 UNL     1      22.895  69.116  96.695  1.00  0.00     0.178 HD
ATOM     13  H41 UNL     1      21.124  69.141  96.937  1.00  0.00     0.178 HD
ENDBRANCH   9  11
ENDBRANCH   1   9
TORSDOF 4
ENDMDL
MODEL 5
REMARK VINA RESULT: -3.864798029      0.967      1.340
REMARK  4 active torsions:
REMARK  status: ('A' for Active; 'I' for Inactive)
REMARK    1  A    between atoms: S1_2  and  N1_5 
REMARK    2  A    between atoms: N1_5  and  N2_7 
REMARK    3  A    between atoms: N2_7  and  N3_9 
REMARK    4  A    between atoms: N3_9  and  N4_11 
ROOT
HETATM    1  N2  UNL     1      22.227  71.024  94.191  1.00  0.00    -0.219 N 
ATOM      2  H2  UNL     1      22.973  71.688  93.983  1.00  0.00     0.210 HD
ENDROOT
BRANCH   1   3
HETATM    3  N1  UNL     1      22.372  70.042  95.140  1.00  0.00    -0.212 N 
ATOM      4  H1  UNL     1      22.152  70.124  96.133  1.00  0.00     0.201 HD
BRANCH   3   5
HETATM    5  S1  UNL     1      22.995  68.643  94.341  1.00  0.00     0.241 S 
HETATM    6  C1  UNL     1      24.268  69.085  93.192  1.00  0.00     0.187 C 
HETATM    7  O1  UNL     1      21.875  68.018  93.563  1.00  0.00    -0.205 OA
HETATM    8  O2  UNL     1      23.494  67.655  95.354  1.00  0.00    -0.205 OA
ENDBRANCH   3   5
ENDBRANCH   1   3
BRANCH   1   9
HETATM    9  N3  UNL     1      21.026  71.059  93.543  1.00  0.00    -0.234 N 
ATOM     10  H3  UNL     1      20.929  71.494  92.625  1.00  0.00     0.209 HD
BRANCH   9  11
HETATM   11  N4  UNL     1      19.965  70.490  94.173  1.00  0.00    -0.330 N 
ATOM     12  H42 UNL     1      19.066  70.402  93.699  1.00  0.00     0.178 HD
ATOM     13  H41 UNL     1      20.113  70.162  95.128  1.00  0.00     0.178 HD
ENDBRANCH   9  11
ENDBRANCH   1   9
TORSDOF 4
ENDMDL
