MODEL 1
REMARK VINA RESULT: -4.751494728      0.000      0.000
REMARK  2 active torsions:
REMARK  status: ('A' for Active; 'I' for Inactive)
REMARK    1  A    between atoms: C3_6  and  C4_7 
REMARK    2  A    between atoms: C4_7  and  N2_8 
REMARK       I    between atoms: N2_8  and  C5_11 
REMARK       I    between atoms: C5_11  and  N3_12 
REMARK       I    between atoms: C5_11  and  N4_16 
ROOT
HETATM    1  N2  UNL     1      17.926  70.948  97.461  1.00  0.00    -0.018 N 
ATOM      2  H21 UNL     1      18.932  70.785  97.483  1.00  0.00     0.281 HD
ATOM      3  H22 UNL     1      17.668  70.242  98.150  1.00  0.00     0.281 HD
HETATM    4  C5  UNL     1      17.548  72.313  97.856  1.00  0.00     0.575 C 
HETATM    5  N3  UNL     1      18.090  73.197  96.846  1.00  0.00    -0.026 N 
ATOM      6  H31 UNL     1      17.828  74.144  97.120  1.00  0.00     0.278 HD
ATOM      7  H32 UNL     1      17.799  72.955  95.899  1.00  0.00     0.278 HD
ATOM      8  H33 UNL     1      19.093  73.081  96.704  1.00  0.00     0.278 HD
HETATM    9  N4  UNL     1      18.074  72.589  99.178  1.00  0.00    -0.026 N 
ATOM     10  H41 UNL     1      17.812  73.535  99.452  1.00  0.00     0.278 HD
ATOM     11  H42 UNL     1      19.081  72.434  99.235  1.00  0.00     0.278 HD
ATOM     12  H43 UNL     1      17.782  71.892  99.865  1.00  0.00     0.278 HD
ENDROOT
BRANCH   1  13
HETATM   13  C4  UNL     1      17.340  70.723  96.167  1.00  0.00     0.298 C 
BRANCH  13  14
HETATM   14  C3  UNL     1      18.205  69.892  95.277  1.00  0.00     0.351 C 
HETATM   15  N1  UNL     1      19.586  69.741  95.697  1.00  0.00    -0.021 N 
HETATM   16  C2  UNL     1      19.804  69.670  94.241  1.00  0.00     0.322 C 
ATOM     17  H12 UNL     1      19.902  69.025  96.351  1.00  0.00     0.283 HD
ATOM     18  H11 UNL     1      20.066  70.402  96.308  1.00  0.00     0.283 HD
HETATM   19  C1  UNL     1      21.114  70.234  93.782  1.00  0.00     0.071 C 
HETATM   20  O1  UNL     1      18.722  70.580  94.154  1.00  0.00    -0.325 OA
ENDBRANCH  13  14
ENDBRANCH   1  13
TORSDOF 2
ENDMDL
MODEL 2
REMARK VINA RESULT: -4.716510548      1.081      1.233
REMARK  2 active torsions:
REMARK  status: ('A' for Active; 'I' for Inactive)
REMARK    1  A    between atoms: C3_6  and  C4_7 
REMARK    2  A    between atoms: C4_7  and  N2_8 
REMARK       I    between atoms: N2_8  and  C5_11 
REMARK       I    between atoms: C5_11  and  N3_12 
REMARK       I    between atoms: C5_11  and  N4_16 
ROOT
HETATM    1  N2  UNL     1      18.586  70.270  97.004  1.00  0.00    -0.018 N 
ATOM      2  H21 UNL     1      19.557  70.571  96.920  1.00  0.00     0.281 HD
ATOM      3  H22 UNL     1      18.672  69.824  97.918  1.00  0.00     0.281 HD
HETATM    4  C5  UNL     1      17.626  71.383  96.986  1.00  0.00     0.575 C 
HETATM    5  N3  UNL     1      17.716  71.980  95.671  1.00  0.00    -0.026 N 
ATOM      6  H31 UNL     1      17.050  72.753  95.658  1.00  0.00     0.278 HD
ATOM      7  H32 UNL     1      17.574  71.312  94.914  1.00  0.00     0.278 HD
ATOM      8  H33 UNL     1      18.664  72.260  95.418  1.00  0.00     0.278 HD
HETATM    9  N4  UNL     1      17.958  72.315  98.046  1.00  0.00    -0.026 N 
ATOM     10  H41 UNL     1      17.293  73.088  98.033  1.00  0.00     0.278 HD
ATOM     11  H42 UNL     1      18.925  72.637  97.990  1.00  0.00     0.278 HD
ATOM     12  H43 UNL     1      18.009  71.862  98.959  1.00  0.00     0.278 HD
ENDROOT
BRANCH   1  13
HETATM   13  C4  UNL     1      18.177  69.364  95.965  1.00  0.00     0.298 C 
BRANCH  13  14
HETATM   14  C3  UNL     1      19.261  69.095  94.972  1.00  0.00     0.351 C 
HETATM   15  N1  UNL     1      20.603  69.459  95.386  1.00  0.00    -0.021 N 
HETATM   16  C2  UNL     1      20.762  69.695  93.940  1.00  0.00     0.322 C 
ATOM     17  H12 UNL     1      21.212  68.846  95.928  1.00  0.00     0.283 HD
ATOM     18  H11 UNL     1      20.804  70.161  96.098  1.00  0.00     0.283 HD
HETATM   19  C1  UNL     1      21.709  70.804  93.593  1.00  0.00     0.071 C 
HETATM   20  O1  UNL     1      19.402  70.090  93.976  1.00  0.00    -0.325 OA
ENDBRANCH  13  14
ENDBRANCH   1  13
TORSDOF 2
ENDMDL
MODEL 3
REMARK VINA RESULT: -4.615010449      2.950      3.296
REMARK  2 active torsions:
REMARK  status: ('A' for Active; 'I' for Inactive)
REMARK    1  A    between atoms: C3_6  and  C4_7 
REMARK    2  A    between atoms: C4_7  and  N2_8 
REMARK       I    between atoms: N2_8  and  C5_11 
REMARK       I    between atoms: C5_11  and  N3_12 
REMARK       I    between atoms: C5_11  and  N4_16 
ROOT
HETATM    1  N2  UNL     1      21.495  69.213  97.847  1.00  0.00    -0.018 N 
ATOM      2  H21 UNL     1      21.856  70.074  97.436  1.00  0.00     0.281 HD
ATOM      3  H22 UNL     1      22.398  68.784  98.053  1.00  0.00     0.281 HD
HETATM    4  C5  UNL     1      20.670  69.438  99.042  1.00  0.00     0.575 C 
HETATM    5  N3  UNL     1      19.496  70.159  98.599  1.00  0.00    -0.026 N 
ATOM      6  H31 UNL     1      18.923  70.316  99.429  1.00  0.00     0.278 HD
ATOM      7  H32 UNL     1      18.994  69.690  97.846  1.00  0.00     0.278 HD
ATOM      8  H33 UNL     1      19.715  71.017  98.092  1.00  0.00     0.278 HD
HETATM    9  N4  UNL     1      21.442  70.179 100.021  1.00  0.00    -0.026 N 
ATOM     10  H41 UNL     1      20.870  70.336 100.850  1.00  0.00     0.278 HD
ATOM     11  H42 UNL     1      21.819  71.047  99.641  1.00  0.00     0.278 HD
ATOM     12  H43 UNL     1      22.328  69.722 100.242  1.00  0.00     0.278 HD
ENDROOT
BRANCH   1  13
HETATM   13  C4  UNL     1      20.692  68.441  96.939  1.00  0.00     0.298 C 
BRANCH  13  14
HETATM   14  C3  UNL     1      21.117  68.595  95.514  1.00  0.00     0.351 C 
HETATM   15  N1  UNL     1      22.078  69.649  95.252  1.00  0.00    -0.021 N 
HETATM   16  C2  UNL     1      21.370  69.689  93.960  1.00  0.00     0.322 C 
ATOM     17  H12 UNL     1      23.088  69.528  95.339  1.00  0.00     0.283 HD
ATOM     18  H11 UNL     1      22.203  70.464  95.853  1.00  0.00     0.283 HD
HETATM   19  C1  UNL     1      21.300  71.049  93.333  1.00  0.00     0.071 C 
HETATM   20  O1  UNL     1      20.222  69.343  94.714  1.00  0.00    -0.325 OA
ENDBRANCH  13  14
ENDBRANCH   1  13
TORSDOF 2
ENDMDL
MODEL 4
REMARK VINA RESULT: -4.530310948      1.931      4.553
REMARK  2 active torsions:
REMARK  status: ('A' for Active; 'I' for Inactive)
REMARK    1  A    between atoms: C3_6  and  C4_7 
REMARK    2  A    between atoms: C4_7  and  N2_8 
REMARK       I    between atoms: N2_8  and  C5_11 
REMARK       I    between atoms: C5_11  and  N3_12 
REMARK       I    between atoms: C5_11  and  N4_16 
ROOT
HETATM    1  N2  UNL     1      19.955  70.597  94.028  1.00  0.00    -0.018 N 
ATOM      2  H21 UNL     1      19.963  71.502  94.498  1.00  0.00     0.281 HD
ATOM      3  H22 UNL     1      19.504  70.907  93.166  1.00  0.00     0.281 HD
HETATM    4  C5  UNL     1      21.297  70.038  93.816  1.00  0.00     0.575 C 
HETATM    5  N3  UNL     1      21.842  69.768  95.129  1.00  0.00    -0.026 N 
ATOM      6  H31 UNL     1      22.773  69.381  94.982  1.00  0.00     0.278 HD
ATOM      7  H32 UNL     1      21.242  69.174  95.701  1.00  0.00     0.278 HD
ATOM      8  H33 UNL     1      21.836  70.583  95.744  1.00  0.00     0.278 HD
HETATM    9  N4  UNL     1      22.095  70.987  93.065  1.00  0.00    -0.026 N 
ATOM     10  H41 UNL     1      23.027  70.600  92.918  1.00  0.00     0.278 HD
ATOM     11  H42 UNL     1      22.125  71.905  93.509  1.00  0.00     0.278 HD
ATOM     12  H43 UNL     1      21.648  71.264  92.191  1.00  0.00     0.278 HD
ENDROOT
BRANCH   1  13
HETATM   13  C4  UNL     1      19.204  69.595  94.734  1.00  0.00     0.298 C 
BRANCH  13  14
HETATM   14  C3  UNL     1      18.021  70.157  95.454  1.00  0.00     0.351 C 
HETATM   15  N1  UNL     1      17.979  71.602  95.570  1.00  0.00    -0.021 N 
HETATM   16  C2  UNL     1      17.281  71.274  96.826  1.00  0.00     0.322 C 
ATOM     17  H12 UNL     1      17.593  72.216  94.853  1.00  0.00     0.283 HD
ATOM     18  H11 UNL     1      18.807  72.197  95.523  1.00  0.00     0.283 HD
HETATM   19  C1  UNL     1      17.515  72.250  97.939  1.00  0.00     0.071 C 
HETATM   20  O1  UNL     1      18.132  70.142  96.864  1.00  0.00    -0.325 OA
ENDBRANCH  13  14
ENDBRANCH   1  13
TORSDOF 2
ENDMDL
MODEL 5
REMARK VINA RESULT: -4.437044471      4.855      6.671
REMARK  2 active torsions:
REMARK  status: ('A' for Active; 'I' for Inactive)
REMARK    1  A    between atoms: C3_6  and  C4_7 
REMARK    2  A    between atoms: C4_7  and  N2_8 
REMARK       I    between atoms: N2_8  and  C5_11 
REMARK       I    between atoms: C5_11  and  N3_12 
REMARK       I    between atoms: C5_11  and  N4_16 
ROOT
HETATM    1  N2  UNL     1      22.202  69.030  93.153  1.00  0.00    -0.018 N 
ATOM      2  H21 UNL     1      22.415  68.443  93.959  1.00  0.00     0.281 HD
ATOM      3  H22 UNL     1      21.606  68.362  92.665  1.00  0.00     0.281 HD
HETATM    4  C5  UNL     1      21.510  70.278  93.507  1.00  0.00     0.575 C 
HETATM    5  N3  UNL     1      22.443  71.054  94.296  1.00  0.00    -0.026 N 
ATOM      6  H31 UNL     1      21.964  71.920  94.542  1.00  0.00     0.278 HD
ATOM      7  H32 UNL     1      23.337  71.207  93.830  1.00  0.00     0.278 HD
ATOM      8  H33 UNL     1      22.806  70.550  95.105  1.00  0.00     0.278 HD
HETATM    9  N4  UNL     1      20.297  69.960  94.234  1.00  0.00    -0.026 N 
ATOM     10  H41 UNL     1      19.817  70.825  94.480  1.00  0.00     0.278 HD
ATOM     11  H42 UNL     1      20.475  69.372  95.048  1.00  0.00     0.278 HD
ATOM     12  H43 UNL     1      19.695  69.316  93.720  1.00  0.00     0.278 HD
ENDROOT
BRANCH   1  13
HETATM   13  C4  UNL     1      23.366  69.411  92.401  1.00  0.00     0.298 C 
BRANCH  13  14
HETATM   14  C3  UNL     1      24.501  68.452  92.566  1.00  0.00     0.351 C 
HETATM   15  N1  UNL     1      25.628  68.933  93.342  1.00  0.00    -0.021 N 
HETATM   16  C2  UNL     1      26.370  68.042  92.431  1.00  0.00     0.322 C 
ATOM     17  H12 UNL     1      25.681  68.872  94.359  1.00  0.00     0.283 HD
ATOM     18  H11 UNL     1      25.847  69.922  93.468  1.00  0.00     0.283 HD
HETATM   19  C1  UNL     1      27.756  68.507  92.102  1.00  0.00     0.071 C 
HETATM   20  O1  UNL     1      25.396  68.410  91.471  1.00  0.00    -0.325 OA
ENDBRANCH  13  14
ENDBRANCH   1  13
TORSDOF 2
ENDMDL
