MODEL 1
REMARK VINA RESULT: -4.180916271      0.000      0.000
REMARK  5 active torsions:
REMARK  status: ('A' for Active; 'I' for Inactive)
REMARK    1  A    between atoms: C1_4  and  N2_5 
REMARK    2  A    between atoms: N2_5  and  N3_7 
REMARK    3  A    between atoms: N3_7  and  N4_8 
REMARK    4  A    between atoms: N3_7  and  C2_11 
REMARK    5  A    between atoms: C2_11  and  C3_12 
ROOT
HETATM    1  N3  UNL     1      16.809  71.159  95.739  1.00  0.00    -0.142 NA
ENDROOT
BRANCH   1   2
HETATM    2  N2  UNL     1      17.137  69.879  95.320  1.00  0.00    -0.298 N 
ATOM      3  H2  UNL     1      16.450  69.125  95.349  1.00  0.00     0.183 HD
BRANCH   2   4
HETATM    4  C1  UNL     1      18.453  69.649  94.850  1.00  0.00     0.187 C 
HETATM    5  N1  UNL     1      19.413  69.516  95.694  1.00  0.00    -0.395 N 
ATOM      6  H12 UNL     1      19.211  69.577  96.692  1.00  0.00     0.156 HD
ATOM      7  H11 UNL     1      20.360  69.350  95.356  1.00  0.00     0.156 HD
ENDBRANCH   2   4
ENDBRANCH   1   2
BRANCH   1   8
HETATM    8  N4  UNL     1      17.750  72.118  95.467  1.00  0.00    -0.346 NA
ATOM      9  H42 UNL     1      17.468  72.808  94.771  1.00  0.00     0.172 HD
ATOM     10  H41 UNL     1      18.123  72.602  96.284  1.00  0.00     0.172 HD
ENDBRANCH   1   8
BRANCH   1  11
HETATM   11  C2  UNL     1      16.378  71.107  97.108  1.00  0.00     0.200 C 
BRANCH  11  12
HETATM   12  C3  UNL     1      17.208  71.965  98.027  1.00  0.00     0.402 A 
HETATM   13  N5  UNL     1      16.654  71.929  99.369  1.00  0.00    -0.021 N 
HETATM   14  C4  UNL     1      17.882  71.364  99.867  1.00  0.00     0.468 A 
ATOM     15  H52 UNL     1      16.280  72.780  99.787  1.00  0.00     0.281 HD
ATOM     16  H51 UNL     1      15.769  71.452  99.541  1.00  0.00     0.281 HD
HETATM   17  N6  UNL     1      18.416  71.342  98.518  1.00  0.00    -0.021 N 
ATOM     18  H62 UNL     1      18.738  70.464  98.111  1.00  0.00     0.281 HD
ATOM     19  H61 UNL     1      19.323  71.766  98.322  1.00  0.00     0.281 HD
ENDBRANCH  11  12
ENDBRANCH   1  11
TORSDOF 5
ENDMDL
MODEL 2
REMARK VINA RESULT: -4.101292898      3.987      5.752
REMARK  5 active torsions:
REMARK  status: ('A' for Active; 'I' for Inactive)
REMARK    1  A    between atoms: C1_4  and  N2_5 
REMARK    2  A    between atoms: N2_5  and  N3_7 
REMARK    3  A    between atoms: N3_7  and  N4_8 
REMARK    4  A    between atoms: N3_7  and  C2_11 
REMARK    5  A    between atoms: C2_11  and  C3_12 
ROOT
HETATM    1  N3  UNL     1      22.163  68.666  95.851  1.00  0.00    -0.142 NA
ENDROOT
BRANCH   1   2
HETATM    2  N2  UNL     1      21.767  69.364  96.982  1.00  0.00    -0.298 N 
ATOM      3  H2  UNL     1      22.086  70.317  97.149  1.00  0.00     0.183 HD
BRANCH   2   4
HETATM    4  C1  UNL     1      20.907  68.711  97.899  1.00  0.00     0.187 C 
HETATM    5  N1  UNL     1      21.399  67.882  98.749  1.00  0.00    -0.395 N 
ATOM      6  H12 UNL     1      22.403  67.707  98.751  1.00  0.00     0.156 HD
ATOM      7  H11 UNL     1      20.779  67.413  99.409  1.00  0.00     0.156 HD
ENDBRANCH   2   4
ENDBRANCH   1   2
BRANCH   1   8
HETATM    8  N4  UNL     1      23.158  67.745  96.054  1.00  0.00    -0.346 NA
ATOM      9  H42 UNL     1      23.928  68.069  96.639  1.00  0.00     0.172 HD
ATOM     10  H41 UNL     1      22.844  66.835  96.391  1.00  0.00     0.172 HD
ENDBRANCH   1   8
BRANCH   1  11
HETATM   11  C2  UNL     1      22.412  69.600  94.789  1.00  0.00     0.200 C 
BRANCH  11  12
HETATM   12  C3  UNL     1      21.277  69.698  93.804  1.00  0.00     0.402 A 
HETATM   13  N5  UNL     1      20.121  68.979  94.310  1.00  0.00    -0.021 N 
HETATM   14  C4  UNL     1      19.354  70.198  94.308  1.00  0.00     0.468 A 
ATOM     15  H52 UNL     1      19.774  68.160  93.813  1.00  0.00     0.281 HD
ATOM     16  H51 UNL     1      20.200  68.430  95.166  1.00  0.00     0.281 HD
HETATM   17  N6  UNL     1      20.525  70.930  93.860  1.00  0.00    -0.021 N 
ATOM     18  H62 UNL     1      20.874  71.716  94.408  1.00  0.00     0.281 HD
ATOM     19  H61 UNL     1      20.466  71.530  93.036  1.00  0.00     0.281 HD
ENDBRANCH  11  12
ENDBRANCH   1  11
TORSDOF 5
ENDMDL
MODEL 3
REMARK VINA RESULT: -4.097806607      3.398      5.872
REMARK  5 active torsions:
REMARK  status: ('A' for Active; 'I' for Inactive)
REMARK    1  A    between atoms: C1_4  and  N2_5 
REMARK    2  A    between atoms: N2_5  and  N3_7 
REMARK    3  A    between atoms: N3_7  and  N4_8 
REMARK    4  A    between atoms: N3_7  and  C2_11 
REMARK    5  A    between atoms: C2_11  and  C3_12 
ROOT
HETATM    1  N3  UNL     1      20.960  68.719  95.967  1.00  0.00    -0.142 NA
ENDROOT
BRANCH   1   2
HETATM    2  N2  UNL     1      19.734  69.361  96.035  1.00  0.00    -0.298 N 
ATOM      3  H2  UNL     1      19.333  69.634  96.932  1.00  0.00     0.183 HD
BRANCH   2   4
HETATM    4  C1  UNL     1      19.054  69.626  94.820  1.00  0.00     0.187 C 
HETATM    5  N1  UNL     1      18.678  70.826  94.554  1.00  0.00    -0.395 N 
ATOM      6  H12 UNL     1      18.874  71.570  95.223  1.00  0.00     0.156 HD
ATOM      7  H11 UNL     1      18.188  71.017  93.680  1.00  0.00     0.156 HD
ENDBRANCH   2   4
ENDBRANCH   1   2
BRANCH   1   8
HETATM    8  N4  UNL     1      21.932  69.233  96.786  1.00  0.00    -0.346 NA
ATOM      9  H42 UNL     1      22.494  68.535  97.274  1.00  0.00     0.172 HD
ATOM     10  H41 UNL     1      22.553  69.914  96.348  1.00  0.00     0.172 HD
ENDBRANCH   1   8
BRANCH   1  11
HETATM   11  C2  UNL     1      21.343  68.583  94.589  1.00  0.00     0.200 C 
BRANCH  11  12
HETATM   12  C3  UNL     1      22.594  69.346  94.241  1.00  0.00     0.402 A 
HETATM   13  N5  UNL     1      22.765  69.379  92.799  1.00  0.00    -0.021 N 
HETATM   14  C4  UNL     1      22.688  70.817  92.817  1.00  0.00     0.468 A 
ATOM     15  H52 UNL     1      23.569  68.919  92.372  1.00  0.00     0.281 HD
ATOM     16  H51 UNL     1      22.137  68.844  92.200  1.00  0.00     0.281 HD
HETATM   17  N6  UNL     1      22.456  70.783  94.250  1.00  0.00    -0.021 N 
ATOM     18  H62 UNL     1      21.617  71.213  94.640  1.00  0.00     0.281 HD
ATOM     19  H61 UNL     1      23.035  71.347  94.873  1.00  0.00     0.281 HD
ENDBRANCH  11  12
ENDBRANCH   1  11
TORSDOF 5
ENDMDL
MODEL 4
REMARK VINA RESULT: -4.074238371      2.646      3.531
REMARK  5 active torsions:
REMARK  status: ('A' for Active; 'I' for Inactive)
REMARK    1  A    between atoms: C1_4  and  N2_5 
REMARK    2  A    between atoms: N2_5  and  N3_7 
REMARK    3  A    between atoms: N3_7  and  N4_8 
REMARK    4  A    between atoms: N3_7  and  C2_11 
REMARK    5  A    between atoms: C2_11  and  C3_12 
ROOT
HETATM    1  N3  UNL     1      18.932  70.512  94.228  1.00  0.00    -0.142 NA
ENDROOT
BRANCH   1   2
HETATM    2  N2  UNL     1      20.096  71.134  93.804  1.00  0.00    -0.298 N 
ATOM      3  H2  UNL     1      20.098  72.117  93.534  1.00  0.00     0.183 HD
BRANCH   2   4
HETATM    4  C1  UNL     1      21.284  70.362  93.757  1.00  0.00     0.187 C 
HETATM    5  N1  UNL     1      22.375  70.850  94.230  1.00  0.00    -0.395 N 
ATOM      6  H12 UNL     1      22.369  71.787  94.632  1.00  0.00     0.156 HD
ATOM      7  H11 UNL     1      23.229  70.294  94.196  1.00  0.00     0.156 HD
ENDBRANCH   2   4
ENDBRANCH   1   2
BRANCH   1   8
HETATM    8  N4  UNL     1      18.103  71.290  94.995  1.00  0.00    -0.346 NA
ATOM      9  H42 UNL     1      18.157  72.290  94.803  1.00  0.00     0.172 HD
ATOM     10  H41 UNL     1      17.124  71.004  95.001  1.00  0.00     0.172 HD
ENDBRANCH   1   8
BRANCH   1  11
HETATM   11  C2  UNL     1      19.264  69.238  94.801  1.00  0.00     0.200 C 
BRANCH  11  12
HETATM   12  C3  UNL     1      18.683  69.033  96.175  1.00  0.00     0.402 A 
HETATM   13  N5  UNL     1      19.257  67.844  96.780  1.00  0.00    -0.021 N 
HETATM   14  C4  UNL     1      19.798  68.641  97.850  1.00  0.00     0.468 A 
ATOM     15  H52 UNL     1      18.661  67.044  96.994  1.00  0.00     0.281 HD
ATOM     16  H51 UNL     1      19.872  67.242  96.234  1.00  0.00     0.281 HD
HETATM   17  N6  UNL     1      19.278  69.839  97.216  1.00  0.00    -0.021 N 
ATOM     18  H62 UNL     1      19.911  70.601  96.971  1.00  0.00     0.281 HD
ATOM     19  H61 UNL     1      18.700  70.489  97.750  1.00  0.00     0.281 HD
ENDBRANCH  11  12
ENDBRANCH   1  11
TORSDOF 5
ENDMDL
MODEL 5
REMARK VINA RESULT: -4.047871190      2.510      4.199
REMARK  5 active torsions:
REMARK  status: ('A' for Active; 'I' for Inactive)
REMARK    1  A    between atoms: C1_4  and  N2_5 
REMARK    2  A    between atoms: N2_5  and  N3_7 
REMARK    3  A    between atoms: N3_7  and  N4_8 
REMARK    4  A    between atoms: N3_7  and  C2_11 
REMARK    5  A    between atoms: C2_11  and  C3_12 
ROOT
HETATM    1  N3  UNL     1      21.104  69.995  94.067  1.00  0.00    -0.142 NA
ENDROOT
BRANCH   1   2
HETATM    2  N2  UNL     1      22.043  69.827  95.073  1.00  0.00    -0.298 N 
ATOM      3  H2  UNL     1      22.900  70.378  95.089  1.00  0.00     0.183 HD
BRANCH   2   4
HETATM    4  C1  UNL     1      21.774  68.866  96.079  1.00  0.00     0.187 C 
HETATM    5  N1  UNL     1      21.676  69.242  97.304  1.00  0.00    -0.395 N 
ATOM      6  H12 UNL     1      21.793  70.229  97.533  1.00  0.00     0.156 HD
ATOM      7  H11 UNL     1      21.483  68.550  98.028  1.00  0.00     0.156 HD
ENDBRANCH   2   4
ENDBRANCH   1   2
BRANCH   1   8
HETATM    8  N4  UNL     1      20.911  71.290  93.661  1.00  0.00    -0.346 NA
ATOM      9  H42 UNL     1      21.470  71.982  94.160  1.00  0.00     0.172 HD
ATOM     10  H41 UNL     1      21.003  71.448  92.658  1.00  0.00     0.172 HD
ENDBRANCH   1   8
BRANCH   1  11
HETATM   11  C2  UNL     1      19.905  69.289  94.422  1.00  0.00     0.200 C 
BRANCH  11  12
HETATM   12  C3  UNL     1      18.705  70.187  94.564  1.00  0.00     0.402 A 
HETATM   13  N5  UNL     1      17.497  69.386  94.658  1.00  0.00    -0.021 N 
HETATM   14  C4  UNL     1      17.230  69.929  95.965  1.00  0.00     0.468 A 
ATOM     15  H52 UNL     1      16.788  69.447  93.928  1.00  0.00     0.281 HD
ATOM     16  H51 UNL     1      17.547  68.375  94.528  1.00  0.00     0.281 HD
HETATM   17  N6  UNL     1      18.468  70.685  95.899  1.00  0.00    -0.021 N 
ATOM     18  H62 UNL     1      19.178  70.563  96.621  1.00  0.00     0.281 HD
ATOM     19  H61 UNL     1      18.461  71.690  96.074  1.00  0.00     0.281 HD
ENDBRANCH  11  12
ENDBRANCH   1  11
TORSDOF 5
ENDMDL
