MODEL 1
REMARK VINA RESULT: -7.791221817      0.000      0.000
REMARK  1 active torsions:
REMARK  status: ('A' for Active; 'I' for Inactive)
REMARK    1  A    between atoms: C2_2  and  C3_3 
ROOT
HETATM    1  C1  UNL     1      59.377  77.040  -4.942  1.00  0.00     0.044 C 
HETATM    2  C2  UNL     1      58.720  76.363  -3.725  1.00  0.00     0.054 C 
HETATM    3  C9  UNL     1      57.800  77.413  -3.082  1.00  0.00     0.036 C 
HETATM    4  C10 UNL     1      56.742  76.854  -2.228  1.00  0.00     0.004 C 
HETATM    5  C11 UNL     1      55.402  77.508  -2.307  1.00  0.00     0.027 C 
HETATM    6  C12 UNL     1      55.274  78.641  -3.244  1.00  0.00     0.169 C 
HETATM    7  C13 UNL     1      54.179  79.518  -2.720  1.00  0.00     0.072 C 
HETATM    8  N1  UNL     1      53.338  80.199  -2.301  1.00  0.00    -0.196 NA
HETATM    9  C14 UNL     1      54.872  78.087  -4.595  1.00  0.00     0.158 C 
HETATM   10  N2  UNL     1      54.258  78.941  -5.341  1.00  0.00    -0.381 N 
ATOM     11  H21 UNL     1      53.988  78.568  -6.251  1.00  0.00     0.158 HD
ATOM     12  H22 UNL     1      54.071  79.894  -5.030  1.00  0.00     0.158 HD
HETATM   13  O1  UNL     1      55.117  76.839  -5.002  1.00  0.00    -0.223 OA
HETATM   14  N3  UNL     1      55.939  75.922  -5.285  1.00  0.00    -0.255 N 
ATOM     15  H3  UNL     1      55.530  75.538  -6.136  1.00  0.00     0.195 HD
HETATM   16  C15 UNL     1      56.933  75.217  -5.150  1.00  0.00     0.201 C 
HETATM   17  N4  UNL     1      57.952  75.243  -4.138  1.00  0.00    -0.372 N 
ATOM     18  H4  UNL     1      58.145  74.360  -3.666  1.00  0.00     0.161 HD
ENDROOT
BRANCH   2  19
HETATM   19  C3  UNL     1      59.817  75.995  -2.813  1.00  0.00    -0.030 A 
HETATM   20  C4  UNL     1      60.111  76.714  -1.679  1.00  0.00     0.011 A 
HETATM   21  C5  UNL     1      61.174  76.350  -0.841  1.00  0.00     0.019 A 
HETATM   22  C6  UNL     1      61.974  75.265  -1.104  1.00  0.00     0.011 A 
HETATM   23 BR1  UNL     1      63.427  74.794   0.057  1.00  0.00    -0.051 Br
HETATM   24  C7  UNL     1      61.690  74.538  -2.237  1.00  0.00     0.019 A 
HETATM   25  C8  UNL     1      60.641  74.893  -3.067  1.00  0.00     0.011 A 
ENDBRANCH   2  19
TORSDOF 1
ENDMDL
MODEL 2
REMARK VINA RESULT: -7.752595132      0.078      1.027
REMARK  1 active torsions:
REMARK  status: ('A' for Active; 'I' for Inactive)
REMARK    1  A    between atoms: C2_2  and  C3_3 
ROOT
HETATM    1  C1  UNL     1      59.370  77.018  -5.049  1.00  0.00     0.044 C 
HETATM    2  C2  UNL     1      58.743  76.353  -3.809  1.00  0.00     0.054 C 
HETATM    3  C9  UNL     1      57.841  77.410  -3.153  1.00  0.00     0.036 C 
HETATM    4  C10 UNL     1      56.805  76.861  -2.267  1.00  0.00     0.004 C 
HETATM    5  C11 UNL     1      55.464  77.516  -2.318  1.00  0.00     0.027 C 
HETATM    6  C12 UNL     1      55.314  78.640  -3.262  1.00  0.00     0.169 C 
HETATM    7  C13 UNL     1      54.233  79.524  -2.718  1.00  0.00     0.072 C 
HETATM    8  N1  UNL     1      53.405  80.210  -2.284  1.00  0.00    -0.196 NA
HETATM    9  C14 UNL     1      54.877  78.075  -4.597  1.00  0.00     0.158 C 
HETATM   10  N2  UNL     1      54.245  78.922  -5.335  1.00  0.00    -0.381 N 
ATOM     11  H21 UNL     1      53.951  78.541  -6.234  1.00  0.00     0.158 HD
ATOM     12  H22 UNL     1      54.067  79.878  -5.028  1.00  0.00     0.158 HD
HETATM   13  O1  UNL     1      55.110  76.822  -4.998  1.00  0.00    -0.223 OA
HETATM   14  N3  UNL     1      55.923  75.902  -5.293  1.00  0.00    -0.255 N 
ATOM     15  H3  UNL     1      55.492  75.510  -6.130  1.00  0.00     0.195 HD
HETATM   16  C15 UNL     1      56.919  75.196  -5.178  1.00  0.00     0.201 C 
HETATM   17  N4  UNL     1      57.964  75.230  -4.193  1.00  0.00    -0.372 N 
ATOM     18  H4  UNL     1      58.168  74.351  -3.717  1.00  0.00     0.161 HD
ENDROOT
BRANCH   2  19
HETATM   19  C3  UNL     1      59.863  75.991  -2.922  1.00  0.00    -0.030 A 
HETATM   20  C4  UNL     1      60.630  74.867  -3.118  1.00  0.00     0.011 A 
HETATM   21  C5  UNL     1      61.677  74.538  -2.245  1.00  0.00     0.019 A 
HETATM   22  C6  UNL     1      61.991  75.314  -1.156  1.00  0.00     0.011 A 
HETATM   23 BR1  UNL     1      63.424  74.836   0.026  1.00  0.00    -0.051 Br
HETATM   24  C7  UNL     1      61.229  76.441  -0.949  1.00  0.00     0.019 A 
HETATM   25  C8  UNL     1      60.195  76.770  -1.808  1.00  0.00     0.011 A 
ENDBRANCH   2  19
TORSDOF 1
ENDMDL
MODEL 3
REMARK VINA RESULT: -7.415151370      3.670      6.732
REMARK  1 active torsions:
REMARK  status: ('A' for Active; 'I' for Inactive)
REMARK    1  A    between atoms: C2_2  and  C3_3 
ROOT
HETATM    1  C1  UNL     1      57.224  75.017  -3.826  1.00  0.00     0.044 C 
HETATM    2  C2  UNL     1      57.887  76.385  -3.579  1.00  0.00     0.054 C 
HETATM    3  C9  UNL     1      58.821  76.208  -2.371  1.00  0.00     0.036 C 
HETATM    4  C10 UNL     1      59.883  77.220  -2.269  1.00  0.00     0.004 C 
HETATM    5  C11 UNL     1      61.226  76.740  -1.831  1.00  0.00     0.027 C 
HETATM    6  C12 UNL     1      61.354  75.295  -1.557  1.00  0.00     0.169 C 
HETATM    7  C13 UNL     1      62.461  75.137  -0.561  1.00  0.00     0.072 C 
HETATM    8  N1  UNL     1      63.310  75.023   0.222  1.00  0.00    -0.196 NA
HETATM    9  C14 UNL     1      61.739  74.606  -2.851  1.00  0.00     0.158 C 
HETATM   10  N2  UNL     1      62.353  73.486  -2.675  1.00  0.00    -0.381 N 
ATOM     11  H21 UNL     1      62.612  73.022  -3.546  1.00  0.00     0.158 HD
ATOM     12  H22 UNL     1      62.550  73.117  -1.745  1.00  0.00     0.158 HD
HETATM   13  O1  UNL     1      61.481  75.089  -4.068  1.00  0.00    -0.223 OA
HETATM   14  N3  UNL     1      60.650  75.458  -4.945  1.00  0.00    -0.255 N 
ATOM     15  H3  UNL     1      61.049  75.046  -5.789  1.00  0.00     0.195 HD
HETATM   16  C15 UNL     1      59.652  76.013  -5.391  1.00  0.00     0.201 C 
HETATM   17  N4  UNL     1      58.643  76.779  -4.715  1.00  0.00    -0.372 N 
ATOM     18  H4  UNL     1      58.448  77.707  -5.091  1.00  0.00     0.161 HD
ENDROOT
BRANCH   2  19
HETATM   19  C3  UNL     1      56.796  77.325  -3.268  1.00  0.00    -0.030 A 
HETATM   20  C4  UNL     1      56.446  77.654  -1.981  1.00  0.00     0.011 A 
HETATM   21  C5  UNL     1      55.389  78.537  -1.716  1.00  0.00     0.019 A 
HETATM   22  C6  UNL     1      54.652  79.116  -2.720  1.00  0.00     0.011 A 
HETATM   23 BR1  UNL     1      53.207  80.315  -2.329  1.00  0.00    -0.051 Br
HETATM   24  C7  UNL     1      54.993  78.794  -4.014  1.00  0.00     0.019 A 
HETATM   25  C8  UNL     1      56.036  77.923  -4.279  1.00  0.00     0.011 A 
ENDBRANCH   2  19
TORSDOF 1
ENDMDL
MODEL 4
REMARK VINA RESULT: -7.369955113      3.656      6.745
REMARK  1 active torsions:
REMARK  status: ('A' for Active; 'I' for Inactive)
REMARK    1  A    between atoms: C2_2  and  C3_3 
ROOT
HETATM    1  C1  UNL     1      57.219  75.012  -4.009  1.00  0.00     0.044 C 
HETATM    2  C2  UNL     1      57.859  76.382  -3.718  1.00  0.00     0.054 C 
HETATM    3  C9  UNL     1      58.770  76.191  -2.495  1.00  0.00     0.036 C 
HETATM    4  C10 UNL     1      59.816  77.213  -2.349  1.00  0.00     0.004 C 
HETATM    5  C11 UNL     1      61.156  76.740  -1.894  1.00  0.00     0.027 C 
HETATM    6  C12 UNL     1      61.298  75.291  -1.649  1.00  0.00     0.169 C 
HETATM    7  C13 UNL     1      62.385  75.125  -0.633  1.00  0.00     0.072 C 
HETATM    8  N1  UNL     1      63.220  75.005   0.164  1.00  0.00    -0.196 NA
HETATM    9  C14 UNL     1      61.719  74.636  -2.949  1.00  0.00     0.158 C 
HETATM   10  N2  UNL     1      62.343  73.521  -2.785  1.00  0.00    -0.381 N 
ATOM     11  H21 UNL     1      62.626  73.080  -3.660  1.00  0.00     0.158 HD
ATOM     12  H22 UNL     1      62.526  73.134  -1.860  1.00  0.00     0.158 HD
HETATM   13  O1  UNL     1      61.479  75.143  -4.161  1.00  0.00    -0.223 OA
HETATM   14  N3  UNL     1      60.662  75.521  -5.047  1.00  0.00    -0.255 N 
ATOM     15  H3  UNL     1      61.083  75.133  -5.891  1.00  0.00     0.195 HD
HETATM   16  C15 UNL     1      59.666  76.073  -5.501  1.00  0.00     0.201 C 
HETATM   17  N4  UNL     1      58.633  76.811  -4.829  1.00  0.00    -0.372 N 
ATOM     18  H4  UNL     1      58.433  77.744  -5.189  1.00  0.00     0.161 HD
ENDROOT
BRANCH   2  19
HETATM   19  C3  UNL     1      56.749  77.301  -3.410  1.00  0.00    -0.030 A 
HETATM   20  C4  UNL     1      55.993  77.902  -4.388  1.00  0.00     0.011 A 
HETATM   21  C5  UNL     1      54.955  78.789  -4.064  1.00  0.00     0.019 A 
HETATM   22  C6  UNL     1      54.640  79.101  -2.765  1.00  0.00     0.011 A 
HETATM   23 BR1  UNL     1      53.220  80.322  -2.351  1.00  0.00    -0.051 Br
HETATM   24  C7  UNL     1      55.391  78.505  -1.777  1.00  0.00     0.019 A 
HETATM   25  C8  UNL     1      56.416  77.630  -2.092  1.00  0.00     0.011 A 
ENDBRANCH   2  19
TORSDOF 1
ENDMDL
MODEL 5
REMARK VINA RESULT: -7.347092310      4.543      7.614
REMARK  1 active torsions:
REMARK  status: ('A' for Active; 'I' for Inactive)
REMARK    1  A    between atoms: C2_2  and  C3_3 
ROOT
HETATM    1  C1  UNL     1      61.151  77.750  -1.668  1.00  0.00     0.044 C 
HETATM    2  C2  UNL     1      60.414  76.426  -1.941  1.00  0.00     0.054 C 
HETATM    3  C9  UNL     1      61.072  75.805  -3.183  1.00  0.00     0.036 C 
HETATM    4  C10 UNL     1      60.859  74.358  -3.326  1.00  0.00     0.004 C 
HETATM    5  C11 UNL     1      62.019  73.555  -3.814  1.00  0.00     0.027 C 
HETATM    6  C12 UNL     1      63.265  74.295  -4.092  1.00  0.00     0.169 C 
HETATM    7  C13 UNL     1      64.013  73.517  -5.130  1.00  0.00     0.072 C 
HETATM    8  N1  UNL     1      64.580  72.915  -5.944  1.00  0.00    -0.196 NA
HETATM    9  C14 UNL     1      64.078  74.340  -2.814  1.00  0.00     0.158 C 
HETATM   10  N2  UNL     1      65.342  74.494  -3.012  1.00  0.00    -0.381 N 
ATOM     11  H21 UNL     1      65.889  74.524  -2.151  1.00  0.00     0.158 HD
ATOM     12  H22 UNL     1      65.736  74.576  -3.949  1.00  0.00     0.158 HD
HETATM   13  O1  UNL     1      63.560  74.232  -1.587  1.00  0.00    -0.223 OA
HETATM   14  N3  UNL     1      62.798  74.669  -0.680  1.00  0.00    -0.255 N 
ATOM     15  H3  UNL     1      63.382  74.556   0.149  1.00  0.00     0.195 HD
HETATM   16  C15 UNL     1      61.777  75.146  -0.196  1.00  0.00     0.201 C 
HETATM   17  N4  UNL     1      60.554  75.546  -0.835  1.00  0.00    -0.372 N 
ATOM     18  H4  UNL     1      59.693  75.157  -0.451  1.00  0.00     0.161 HD
ENDROOT
BRANCH   2  19
HETATM   19  C3  UNL     1      59.009  76.780  -2.210  1.00  0.00    -0.030 A 
HETATM   20  C4  UNL     1      58.023  76.673  -1.258  1.00  0.00     0.011 A 
HETATM   21  C5  UNL     1      56.691  77.000  -1.550  1.00  0.00     0.019 A 
HETATM   22  C6  UNL     1      56.302  77.440  -2.791  1.00  0.00     0.011 A 
HETATM   23 BR1  UNL     1      54.471  77.873  -3.164  1.00  0.00    -0.051 Br
HETATM   24  C7  UNL     1      57.280  77.551  -3.752  1.00  0.00     0.019 A 
HETATM   25  C8  UNL     1      58.596  77.230  -3.468  1.00  0.00     0.011 A 
ENDBRANCH   2  19
TORSDOF 1
ENDMDL
