MODEL 1
REMARK VINA RESULT: -8.883452898      0.000      0.000
REMARK  1 active torsions:
REMARK  status: ('A' for Active; 'I' for Inactive)
REMARK    1  A    between atoms: N3_10  and  C7_11 
ROOT
HETATM    1  C1  UNL     1      58.408  78.700  -6.379  1.00  0.00     0.047 C 
HETATM    2  C2  UNL     1      58.195  77.353  -5.761  1.00  0.00    -0.042 C 
HETATM    3  C3  UNL     1      58.587  76.419  -6.597  1.00  0.00     0.030 C 
HETATM    4  C4  UNL     1      58.587  74.910  -6.466  1.00  0.00     0.272 C 
HETATM    5  N1  UNL     1      58.121  74.277  -7.602  1.00  0.00    -0.056 NA
HETATM    6  O1  UNL     1      56.988  75.048  -7.894  1.00  0.00    -0.223 OA
HETATM    7  C5  UNL     1      55.924  74.760  -7.012  1.00  0.00     0.345 C 
HETATM    8  N2  UNL     1      55.647  75.567  -5.964  1.00  0.00    -0.388 NA
HETATM    9  C6  UNL     1      55.388  76.278  -5.034  1.00  0.00     0.281 C 
HETATM   10  N3  UNL     1      56.197  77.255  -4.316  1.00  0.00    -0.306 N 
HETATM   11  C13 UNL     1      57.613  77.363  -4.380  1.00  0.00     0.221 C 
HETATM   12  N4  UNL     1      58.351  76.499  -3.483  1.00  0.00    -0.362 N 
ATOM     13  H4  UNL     1      57.904  76.475  -2.567  1.00  0.00     0.162 HD
HETATM   14  C14 UNL     1      59.519  75.665  -3.488  1.00  0.00     0.063 A 
HETATM   15  C15 UNL     1      60.056  75.732  -2.218  1.00  0.00     0.032 A 
HETATM   16  C16 UNL     1      61.203  75.017  -1.990  1.00  0.00     0.002 A 
HETATM   17  C17 UNL     1      61.798  74.260  -2.987  1.00  0.00     0.003 A 
HETATM   18  C18 UNL     1      61.264  74.185  -4.272  1.00  0.00     0.039 A 
HETATM   19  C19 UNL     1      60.106  74.913  -4.484  1.00  0.00     0.098 A 
HETATM   20  O2  UNL     1      59.805  74.638  -5.854  1.00  0.00    -0.321 OA
ENDROOT
BRANCH  10  21
HETATM   21  C7  UNL     1      55.508  78.206  -3.494  1.00  0.00     0.038 A 
HETATM   22  C8  UNL     1      55.832  78.334  -2.166  1.00  0.00     0.033 A 
HETATM   23  C9  UNL     1      55.192  79.261  -1.340  1.00  0.00     0.044 A 
HETATM   24  C10 UNL     1      54.210  80.070  -1.858  1.00  0.00     0.116 A 
HETATM   25  F1  UNL     1      53.578  80.984  -1.044  1.00  0.00    -0.206 F 
HETATM   26  C11 UNL     1      53.873  79.958  -3.176  1.00  0.00     0.044 A 
HETATM   27  C12 UNL     1      54.525  79.030  -3.974  1.00  0.00     0.033 A 
ENDBRANCH  10  21
TORSDOF 1
ENDMDL
MODEL 2
REMARK VINA RESULT: -8.874074372      3.475      6.556
REMARK  1 active torsions:
REMARK  status: ('A' for Active; 'I' for Inactive)
REMARK    1  A    between atoms: N3_10  and  C7_11 
ROOT
HETATM    1  C1  UNL     1      60.081  74.780  -5.209  1.00  0.00     0.047 C 
HETATM    2  C2  UNL     1      59.626  76.086  -4.634  1.00  0.00    -0.042 C 
HETATM    3  C3  UNL     1      59.128  76.838  -5.589  1.00  0.00     0.030 C 
HETATM    4  C4  UNL     1      58.538  78.231  -5.547  1.00  0.00     0.272 C 
HETATM    5  N1  UNL     1      58.995  79.035  -6.573  1.00  0.00    -0.056 NA
HETATM    6  O1  UNL     1      60.367  78.753  -6.546  1.00  0.00    -0.223 OA
HETATM    7  C5  UNL     1      61.004  79.383  -5.455  1.00  0.00     0.345 C 
HETATM    8  N2  UNL     1      61.299  78.699  -4.329  1.00  0.00    -0.388 NA
HETATM    9  C6  UNL     1      61.572  78.101  -3.325  1.00  0.00     0.281 C 
HETATM   10  N3  UNL     1      61.036  76.867  -2.766  1.00  0.00    -0.306 N 
HETATM   11  C13 UNL     1      59.821  76.242  -3.156  1.00  0.00     0.221 C 
HETATM   12  N4  UNL     1      58.623  76.734  -2.509  1.00  0.00    -0.362 N 
ATOM     13  H4  UNL     1      58.796  76.888  -1.516  1.00  0.00     0.162 HD
HETATM   14  C14 UNL     1      57.268  77.072  -2.835  1.00  0.00     0.063 A 
HETATM   15  C15 UNL     1      56.506  76.762  -1.727  1.00  0.00     0.032 A 
HETATM   16  C16 UNL     1      55.157  76.990  -1.816  1.00  0.00     0.002 A 
HETATM   17  C17 UNL     1      54.582  77.507  -2.966  1.00  0.00     0.003 A 
HETATM   18  C18 UNL     1      55.341  77.824  -4.090  1.00  0.00     0.039 A 
HETATM   19  C19 UNL     1      56.701  77.589  -3.982  1.00  0.00     0.098 A 
HETATM   20  O2  UNL     1      57.198  78.007  -5.256  1.00  0.00    -0.321 OA
ENDROOT
BRANCH  10  21
HETATM   21  C7  UNL     1      61.809  76.210  -1.752  1.00  0.00     0.038 A 
HETATM   22  C8  UNL     1      62.694  75.217  -2.093  1.00  0.00     0.033 A 
HETATM   23  C9  UNL     1      63.473  74.567  -1.134  1.00  0.00     0.044 A 
HETATM   24  C10 UNL     1      63.361  74.922   0.189  1.00  0.00     0.116 A 
HETATM   25  F1  UNL     1      64.129  74.281   1.136  1.00  0.00    -0.206 F 
HETATM   26  C11 UNL     1      62.487  75.907   0.548  1.00  0.00     0.044 A 
HETATM   27  C12 UNL     1      61.725  76.536  -0.425  1.00  0.00     0.033 A 
ENDBRANCH  10  21
TORSDOF 1
ENDMDL
MODEL 3
REMARK VINA RESULT: -8.795098792      0.506      1.051
REMARK  1 active torsions:
REMARK  status: ('A' for Active; 'I' for Inactive)
REMARK    1  A    between atoms: N3_10  and  C7_11 
ROOT
HETATM    1  C1  UNL     1      58.693  78.443  -6.594  1.00  0.00     0.047 C 
HETATM    2  C2  UNL     1      58.502  77.085  -5.995  1.00  0.00    -0.042 C 
HETATM    3  C3  UNL     1      58.917  76.169  -6.840  1.00  0.00     0.030 C 
HETATM    4  C4  UNL     1      58.945  74.659  -6.729  1.00  0.00     0.272 C 
HETATM    5  N1  UNL     1      58.497  74.032  -7.875  1.00  0.00    -0.056 NA
HETATM    6  O1  UNL     1      57.352  74.785  -8.164  1.00  0.00    -0.223 OA
HETATM    7  C5  UNL     1      56.288  74.465  -7.292  1.00  0.00     0.345 C 
HETATM    8  N2  UNL     1      55.991  75.253  -6.235  1.00  0.00    -0.388 NA
HETATM    9  C6  UNL     1      55.713  75.947  -5.298  1.00  0.00     0.281 C 
HETATM   10  N3  UNL     1      56.499  76.929  -4.563  1.00  0.00    -0.306 N 
HETATM   11  C13 UNL     1      57.913  77.065  -4.617  1.00  0.00     0.221 C 
HETATM   12  N4  UNL     1      58.663  76.204  -3.727  1.00  0.00    -0.362 N 
ATOM     13  H4  UNL     1      58.211  76.160  -2.814  1.00  0.00     0.162 HD
HETATM   14  C14 UNL     1      59.846  75.393  -3.736  1.00  0.00     0.063 A 
HETATM   15  C15 UNL     1      60.375  75.454  -2.462  1.00  0.00     0.032 A 
HETATM   16  C16 UNL     1      61.534  74.757  -2.237  1.00  0.00     0.002 A 
HETATM   17  C17 UNL     1      62.149  74.025  -3.240  1.00  0.00     0.003 A 
HETATM   18  C18 UNL     1      61.624  73.957  -4.529  1.00  0.00     0.039 A 
HETATM   19  C19 UNL     1      60.453  74.665  -4.738  1.00  0.00     0.098 A 
HETATM   20  O2  UNL     1      60.165  74.403  -6.114  1.00  0.00    -0.321 OA
ENDROOT
BRANCH  10  21
HETATM   21  C7  UNL     1      55.787  77.857  -3.732  1.00  0.00     0.038 A 
HETATM   22  C8  UNL     1      54.833  78.680  -4.276  1.00  0.00     0.033 A 
HETATM   23  C9  UNL     1      54.111  79.585  -3.494  1.00  0.00     0.044 A 
HETATM   24  C10 UNL     1      54.354  79.662  -2.144  1.00  0.00     0.116 A 
HETATM   25  F1  UNL     1      53.642  80.553  -1.372  1.00  0.00    -0.206 F 
HETATM   26  C11 UNL     1      55.299  78.851  -1.583  1.00  0.00     0.044 A 
HETATM   27  C12 UNL     1      56.001  77.962  -2.383  1.00  0.00     0.033 A 
ENDBRANCH  10  21
TORSDOF 1
ENDMDL
MODEL 4
REMARK VINA RESULT: -8.572091359      1.861      2.729
REMARK  1 active torsions:
REMARK  status: ('A' for Active; 'I' for Inactive)
REMARK    1  A    between atoms: N3_10  and  C7_11 
ROOT
HETATM    1  C1  UNL     1      60.460  78.838  -5.046  1.00  0.00     0.047 C 
HETATM    2  C2  UNL     1      60.330  77.414  -4.600  1.00  0.00    -0.042 C 
HETATM    3  C3  UNL     1      61.276  76.692  -5.155  1.00  0.00     0.030 C 
HETATM    4  C4  UNL     1      61.590  75.215  -5.040  1.00  0.00     0.272 C 
HETATM    5  N1  UNL     1      61.862  74.631  -6.262  1.00  0.00    -0.056 NA
HETATM    6  O1  UNL     1      60.833  75.164  -7.050  1.00  0.00    -0.223 OA
HETATM    7  C5  UNL     1      59.593  74.551  -6.769  1.00  0.00     0.345 C 
HETATM    8  N2  UNL     1      58.682  75.150  -5.971  1.00  0.00    -0.388 NA
HETATM    9  C6  UNL     1      57.863  75.675  -5.270  1.00  0.00     0.281 C 
HETATM   10  N3  UNL     1      57.989  76.715  -4.257  1.00  0.00    -0.306 N 
HETATM   11  C13 UNL     1      59.203  77.137  -3.651  1.00  0.00     0.221 C 
HETATM   12  N4  UNL     1      59.643  76.357  -2.514  1.00  0.00    -0.362 N 
ATOM     13  H4  UNL     1      58.851  76.130  -1.913  1.00  0.00     0.162 HD
HETATM   14  C14 UNL     1      60.851  75.805  -1.971  1.00  0.00     0.063 A 
HETATM   15  C15 UNL     1      60.719  75.840  -0.598  1.00  0.00     0.032 A 
HETATM   16  C16 UNL     1      61.775  75.371   0.140  1.00  0.00     0.002 A 
HETATM   17  C17 UNL     1      62.924  74.883  -0.463  1.00  0.00     0.003 A 
HETATM   18  C18 UNL     1      63.067  74.843  -1.848  1.00  0.00     0.039 A 
HETATM   19  C19 UNL     1      61.991  75.320  -2.578  1.00  0.00     0.098 A 
HETATM   20  O2  UNL     1      62.423  75.147  -3.930  1.00  0.00    -0.321 OA
ENDROOT
BRANCH  10  21
HETATM   21  C7  UNL     1      56.790  77.391  -3.852  1.00  0.00     0.038 A 
HETATM   22  C8  UNL     1      55.948  77.927  -4.794  1.00  0.00     0.033 A 
HETATM   23  C9  UNL     1      54.765  78.579  -4.435  1.00  0.00     0.044 A 
HETATM   24  C10 UNL     1      54.426  78.693  -3.109  1.00  0.00     0.116 A 
HETATM   25  F1  UNL     1      53.261  79.336  -2.755  1.00  0.00    -0.206 F 
HETATM   26  C11 UNL     1      55.251  78.166  -2.157  1.00  0.00     0.044 A 
HETATM   27  C12 UNL     1      56.419  77.524  -2.541  1.00  0.00     0.033 A 
ENDBRANCH  10  21
TORSDOF 1
ENDMDL
MODEL 5
REMARK VINA RESULT: -8.061551809      3.855      7.115
REMARK  1 active torsions:
REMARK  status: ('A' for Active; 'I' for Inactive)
REMARK    1  A    between atoms: N3_10  and  C7_11 
ROOT
HETATM    1  C1  UNL     1      58.836  77.937  -8.768  1.00  0.00     0.047 C 
HETATM    2  C2  UNL     1      58.592  77.186  -7.496  1.00  0.00    -0.042 C 
HETATM    3  C3  UNL     1      59.145  77.829  -6.493  1.00  0.00     0.030 C 
HETATM    4  C4  UNL     1      59.192  77.504  -5.014  1.00  0.00     0.272 C 
HETATM    5  N1  UNL     1      60.448  77.683  -4.469  1.00  0.00    -0.056 NA
HETATM    6  O1  UNL     1      61.253  77.076  -5.441  1.00  0.00    -0.223 OA
HETATM    7  C5  UNL     1      61.171  75.668  -5.377  1.00  0.00     0.345 C 
HETATM    8  N2  UNL     1      60.391  74.974  -6.235  1.00  0.00    -0.388 NA
HETATM    9  C6  UNL     1      59.708  74.346  -6.995  1.00  0.00     0.281 C 
HETATM   10  N3  UNL     1      58.562  74.739  -7.805  1.00  0.00    -0.306 N 
HETATM   11  C13 UNL     1      57.796  75.923  -7.636  1.00  0.00     0.221 C 
HETATM   12  N4  UNL     1      56.733  75.851  -6.657  1.00  0.00    -0.362 N 
ATOM     13  H4  UNL     1      56.243  74.960  -6.732  1.00  0.00     0.162 HD
HETATM   14  C14 UNL     1      56.155  76.648  -5.613  1.00  0.00     0.063 A 
HETATM   15  C15 UNL     1      54.808  76.353  -5.591  1.00  0.00     0.032 A 
HETATM   16  C16 UNL     1      54.041  77.018  -4.669  1.00  0.00     0.002 A 
HETATM   17  C17 UNL     1      54.592  77.946  -3.799  1.00  0.00     0.003 A 
HETATM   18  C18 UNL     1      55.951  78.250  -3.812  1.00  0.00     0.039 A 
HETATM   19  C19 UNL     1      56.710  77.569  -4.748  1.00  0.00     0.098 A 
HETATM   20  O2  UNL     1      58.027  78.077  -4.520  1.00  0.00    -0.321 OA
ENDROOT
BRANCH  10  21
HETATM   21  C7  UNL     1      58.187  73.869  -8.883  1.00  0.00     0.038 A 
HETATM   22  C8  UNL     1      57.445  72.741  -8.635  1.00  0.00     0.033 A 
HETATM   23  C9  UNL     1      57.050  71.881  -9.662  1.00  0.00     0.044 A 
HETATM   24  C10 UNL     1      57.407  72.161 -10.959  1.00  0.00     0.116 A 
HETATM   25  F1  UNL     1      57.019  71.313 -11.972  1.00  0.00    -0.206 F 
HETATM   26  C11 UNL     1      58.145  73.278 -11.227  1.00  0.00     0.044 A 
HETATM   27  C12 UNL     1      58.524  74.115 -10.188  1.00  0.00     0.033 A 
ENDBRANCH  10  21
TORSDOF 1
ENDMDL
