MODEL 1
REMARK VINA RESULT: -7.752890031      0.000      0.000
REMARK  11 active torsions:
REMARK  status: ('A' for Active; 'I' for Inactive)
REMARK    1  A    between atoms: N1_2  and  O1_4 
REMARK    2  A    between atoms: O1_4  and  S1_5 
REMARK    3  A    between atoms: S1_5  and  C3_8 
REMARK    4  A    between atoms: C4_9  and  C5_10 
REMARK    5  A    between atoms: C9_14  and  C10_15 
REMARK       I    between atoms: C10_15  and  N2_17 
REMARK    6  A    between atoms: N2_17  and  C11_19 
REMARK    7  A    between atoms: C12_20  and  N3_21 
REMARK    8  A    between atoms: N3_21  and  N4_23 
REMARK    9  A    between atoms: C14_29  and  C15_30 
REMARK   10  A    between atoms: C15_30  and  C16_31 
REMARK   11  A    between atoms: C18_38  and  O6_39 
ROOT
HETATM    1  C11 UNL     1      -0.718  18.749   9.386  1.00  0.00     0.151 A 
HETATM    2  C12 UNL     1      -1.880  18.964   8.677  1.00  0.00     0.154 A 
HETATM    3  N5  UNL     1      -2.490  17.929   8.074  1.00  0.00    -0.323 N 
ATOM      4  H5  UNL     1      -3.349  18.104   7.553  1.00  0.00     0.169 HD
HETATM    5  C13 UNL     1      -2.015  16.671   8.129  1.00  0.00     0.144 A 
HETATM    6  C14 UNL     1      -2.464  15.480   7.599  1.00  0.00     0.029 A 
HETATM    7  C19 UNL     1      -1.565  14.501   7.983  1.00  0.00     0.123 A 
HETATM    8  N8  UNL     1      -0.633  15.134   8.714  1.00  0.00    -0.300 N 
ATOM      9  H8  UNL     1       0.170  14.672   9.142  1.00  0.00     0.186 HD
HETATM   10  N9  UNL     1      -0.884  16.427   8.813  1.00  0.00    -0.201 N 
HETATM   11  C20 UNL     1      -0.243  17.458   9.434  1.00  0.00     0.299 A 
HETATM   12  O7  UNL     1       0.804  17.219  10.064  1.00  0.00    -0.263 OA
ENDROOT
BRANCH   1  13
HETATM   13  N2  UNL     1      -0.025  19.826  10.048  1.00  0.00    -0.315 N 
HETATM   14  C10 UNL     1       0.799  20.714   9.319  1.00  0.00     0.256 C 
HETATM   15  O4  UNL     1       0.905  20.535   8.084  1.00  0.00    -0.267 OA
ATOM     16  H2  UNL     1      -0.130  19.948  11.055  1.00  0.00     0.169 HD
BRANCH  14  17
HETATM   17  C9  UNL     1       1.521  21.814   9.932  1.00  0.00     0.033 A 
HETATM   18  C8  UNL     1       2.236  22.679   9.153  1.00  0.00     0.017 A 
HETATM   19  C7  UNL     1       2.917  23.725   9.743  1.00  0.00     0.002 A 
HETATM   20  C6  UNL     1       2.858  23.868  11.100  1.00  0.00     0.011 A 
HETATM   21  C5  UNL     1       2.128  22.989  11.929  1.00  0.00    -0.035 A 
HETATM   22  C21 UNL     1       1.455  21.951  11.324  1.00  0.00     0.028 A 
BRANCH  21  23
HETATM   23  C4  UNL     1       2.136  23.234  13.348  1.00  0.00     0.025 C 
HETATM   24  C3  UNL     1       1.277  23.541  14.232  1.00  0.00     0.141 C 
BRANCH  24  25
HETATM   25  S1  UNL     1      -0.410  23.850  14.260  1.00  0.00     0.304 S 
HETATM   26  O2  UNL     1      -0.795  24.704  15.448  1.00  0.00    -0.193 OA
HETATM   27  O3  UNL     1      -0.938  24.502  13.024  1.00  0.00    -0.193 OA
BRANCH  25  28
HETATM   28  O1  UNL     1      -1.280  22.376  14.420  1.00  0.00    -0.175 OA
BRANCH  28  29
HETATM   29  N1  UNL     1      -2.138  22.228  13.389  1.00  0.00    -0.187 NA
HETATM   30  C1  UNL     1      -3.523  22.324  13.823  1.00  0.00     0.144 C 
HETATM   31  C2  UNL     1      -1.900  21.003  12.652  1.00  0.00     0.144 C 
ENDBRANCH  28  29
ENDBRANCH  25  28
ENDBRANCH  24  25
ENDBRANCH  21  23
ENDBRANCH  14  17
ENDBRANCH   1  13
BRANCH   2  32
HETATM   32  N3  UNL     1      -2.396  20.291   8.608  1.00  0.00    -0.290 N 
ATOM     33  H3  UNL     1      -2.350  20.919   9.411  1.00  0.00     0.188 HD
BRANCH  32  34
HETATM   34  N4  UNL     1      -2.966  20.700   7.405  1.00  0.00    -0.344 N 
ATOM     35  H42 UNL     1      -2.467  20.561   6.526  1.00  0.00     0.176 HD
ATOM     36  H41 UNL     1      -3.887  21.137   7.442  1.00  0.00     0.176 HD
ENDBRANCH  32  34
ENDBRANCH   2  32
BRANCH   6  37
HETATM   37  C15 UNL     1      -3.543  15.259   6.855  1.00  0.00     0.051 C 
BRANCH  37  38
HETATM   38  C16 UNL     1      -3.598  15.687   5.481  1.00  0.00     0.088 A 
HETATM   39  N6  UNL     1      -3.111  15.060   4.391  1.00  0.00    -0.305 N 
HETATM   40  C17 UNL     1      -3.383  15.815   3.314  1.00  0.00     0.326 A 
ATOM     41  H6  UNL     1      -2.621  14.165   4.386  1.00  0.00     0.171 HD
HETATM   42  O5  UNL     1      -3.089  15.564   2.117  1.00  0.00    -0.247 OA
HETATM   43  N7  UNL     1      -4.043  16.932   3.682  1.00  0.00    -0.287 N 
HETATM   44  C18 UNL     1      -4.182  16.862   5.024  1.00  0.00     0.171 A 
ATOM     45  H7  UNL     1      -4.372  17.679   3.070  1.00  0.00     0.172 HD
BRANCH  44  46
HETATM   46  O6  UNL     1      -4.812  17.817   5.841  1.00  0.00    -0.344 OA
ATOM     47  H6  UNL     1      -4.362  18.400   6.441  1.00  0.00     0.219 HD
ENDBRANCH  44  46
ENDBRANCH  37  38
ENDBRANCH   6  37
TORSDOF 11
ENDMDL
MODEL 2
REMARK VINA RESULT: -7.680361514      5.348      9.498
REMARK  11 active torsions:
REMARK  status: ('A' for Active; 'I' for Inactive)
REMARK    1  A    between atoms: N1_2  and  O1_4 
REMARK    2  A    between atoms: O1_4  and  S1_5 
REMARK    3  A    between atoms: S1_5  and  C3_8 
REMARK    4  A    between atoms: C4_9  and  C5_10 
REMARK    5  A    between atoms: C9_14  and  C10_15 
REMARK       I    between atoms: C10_15  and  N2_17 
REMARK    6  A    between atoms: N2_17  and  C11_19 
REMARK    7  A    between atoms: C12_20  and  N3_21 
REMARK    8  A    between atoms: N3_21  and  N4_23 
REMARK    9  A    between atoms: C14_29  and  C15_30 
REMARK   10  A    between atoms: C15_30  and  C16_31 
REMARK   11  A    between atoms: C18_38  and  O6_39 
ROOT
HETATM    1  C11 UNL     1      -2.761  19.134  15.019  1.00  0.00     0.151 A 
HETATM    2  C12 UNL     1      -3.643  20.123  14.639  1.00  0.00     0.154 A 
HETATM    3  N5  UNL     1      -4.769  20.315  15.348  1.00  0.00    -0.323 N 
ATOM      4  H5  UNL     1      -5.411  21.051  15.054  1.00  0.00     0.169 HD
HETATM    5  C13 UNL     1      -5.084  19.578  16.429  1.00  0.00     0.144 A 
HETATM    6  C14 UNL     1      -6.161  19.598  17.289  1.00  0.00     0.029 A 
HETATM    7  C19 UNL     1      -5.950  18.601  18.226  1.00  0.00     0.123 A 
HETATM    8  N8  UNL     1      -4.776  18.038  17.894  1.00  0.00    -0.300 N 
ATOM      9  H8  UNL     1      -4.348  17.265  18.404  1.00  0.00     0.186 HD
HETATM   10  N9  UNL     1      -4.245  18.607  16.826  1.00  0.00    -0.201 N 
HETATM   11  C20 UNL     1      -3.096  18.388  16.126  1.00  0.00     0.299 A 
HETATM   12  O7  UNL     1      -2.327  17.484  16.504  1.00  0.00    -0.263 OA
ENDROOT
BRANCH   1  13
HETATM   13  N2  UNL     1      -1.542  18.886  14.291  1.00  0.00    -0.315 N 
HETATM   14  C10 UNL     1      -1.499  17.928  13.252  1.00  0.00     0.256 C 
HETATM   15  O4  UNL     1      -2.552  17.304  12.987  1.00  0.00    -0.267 OA
ATOM     16  H2  UNL     1      -0.699  19.410  14.528  1.00  0.00     0.169 HD
BRANCH  14  17
HETATM   17  C9  UNL     1      -0.301  17.636  12.487  1.00  0.00     0.033 A 
HETATM   18  C8  UNL     1      -0.397  17.334  11.158  1.00  0.00     0.017 A 
HETATM   19  C7  UNL     1       0.748  17.062  10.436  1.00  0.00     0.002 A 
HETATM   20  C6  UNL     1       1.955  17.101  11.074  1.00  0.00     0.011 A 
HETATM   21  C5  UNL     1       2.084  17.409  12.446  1.00  0.00    -0.035 A 
HETATM   22  C21 UNL     1       0.931  17.678  13.151  1.00  0.00     0.028 A 
BRANCH  21  23
HETATM   23  C4  UNL     1       3.405  17.421  13.016  1.00  0.00     0.025 C 
HETATM   24  C3  UNL     1       4.245  18.306  13.369  1.00  0.00     0.141 C 
BRANCH  24  25
HETATM   25  S1  UNL     1       4.305  20.020  13.374  1.00  0.00     0.304 S 
HETATM   26  O2  UNL     1       4.773  20.553  14.711  1.00  0.00    -0.193 OA
HETATM   27  O3  UNL     1       5.169  20.610  12.308  1.00  0.00    -0.193 OA
BRANCH  25  28
HETATM   28  O1  UNL     1       2.734  20.669  13.115  1.00  0.00    -0.175 OA
BRANCH  28  29
HETATM   29  N1  UNL     1       2.711  21.393  11.977  1.00  0.00    -0.187 NA
HETATM   30  C1  UNL     1       2.398  22.790  12.235  1.00  0.00     0.144 C 
HETATM   31  C2  UNL     1       1.818  20.826  10.987  1.00  0.00     0.144 C 
ENDBRANCH  28  29
ENDBRANCH  25  28
ENDBRANCH  24  25
ENDBRANCH  21  23
ENDBRANCH  14  17
ENDBRANCH   1  13
BRANCH   2  32
HETATM   32  N3  UNL     1      -3.324  20.913  13.495  1.00  0.00    -0.290 N 
ATOM     33  H3  UNL     1      -2.690  20.567  12.774  1.00  0.00     0.188 HD
BRANCH  32  34
HETATM   34  N4  UNL     1      -3.909  22.173  13.398  1.00  0.00    -0.344 N 
ATOM     35  H42 UNL     1      -4.537  22.390  12.625  1.00  0.00     0.176 HD
ATOM     36  H41 UNL     1      -3.683  22.855  14.122  1.00  0.00     0.176 HD
ENDBRANCH  32  34
ENDBRANCH   2  32
BRANCH   6  37
HETATM   37  C15 UNL     1      -7.223  20.396  17.268  1.00  0.00     0.051 C 
BRANCH  37  38
HETATM   38  C16 UNL     1      -7.160  21.731  17.807  1.00  0.00     0.088 A 
HETATM   39  N6  UNL     1      -7.572  22.164  19.015  1.00  0.00    -0.305 N 
HETATM   40  C17 UNL     1      -7.322  23.481  19.098  1.00  0.00     0.326 A 
ATOM     41  H6  UNL     1      -8.000  21.590  19.742  1.00  0.00     0.171 HD
HETATM   42  O5  UNL     1      -7.565  24.240  20.071  1.00  0.00    -0.247 OA
HETATM   43  N7  UNL     1      -6.750  23.920  17.959  1.00  0.00    -0.287 N 
HETATM   44  C18 UNL     1      -6.644  22.841  17.151  1.00  0.00     0.171 A 
ATOM     45  H7  UNL     1      -6.455  24.874  17.748  1.00  0.00     0.172 HD
BRANCH  44  46
HETATM   46  O6  UNL     1      -6.103  22.830  15.853  1.00  0.00    -0.344 OA
ATOM     47  H6  UNL     1      -6.548  23.147  15.077  1.00  0.00     0.219 HD
ENDBRANCH  44  46
ENDBRANCH  37  38
ENDBRANCH   6  37
TORSDOF 11
ENDMDL
MODEL 3
REMARK VINA RESULT: -7.558757940      5.172      9.625
REMARK  11 active torsions:
REMARK  status: ('A' for Active; 'I' for Inactive)
REMARK    1  A    between atoms: N1_2  and  O1_4 
REMARK    2  A    between atoms: O1_4  and  S1_5 
REMARK    3  A    between atoms: S1_5  and  C3_8 
REMARK    4  A    between atoms: C4_9  and  C5_10 
REMARK    5  A    between atoms: C9_14  and  C10_15 
REMARK       I    between atoms: C10_15  and  N2_17 
REMARK    6  A    between atoms: N2_17  and  C11_19 
REMARK    7  A    between atoms: C12_20  and  N3_21 
REMARK    8  A    between atoms: N3_21  and  N4_23 
REMARK    9  A    between atoms: C14_29  and  C15_30 
REMARK   10  A    between atoms: C15_30  and  C16_31 
REMARK   11  A    between atoms: C18_38  and  O6_39 
ROOT
HETATM    1  C11 UNL     1      -2.935  19.943  14.120  1.00  0.00     0.151 A 
HETATM    2  C12 UNL     1      -3.403  19.393  15.293  1.00  0.00     0.154 A 
HETATM    3  N5  UNL     1      -4.581  19.803  15.795  1.00  0.00    -0.323 N 
ATOM      4  H5  UNL     1      -4.913  19.386  16.664  1.00  0.00     0.169 HD
HETATM    5  C13 UNL     1      -5.339  20.741  15.198  1.00  0.00     0.144 A 
HETATM    6  C14 UNL     1      -6.554  21.305  15.525  1.00  0.00     0.029 A 
HETATM    7  C19 UNL     1      -6.852  22.227  14.538  1.00  0.00     0.123 A 
HETATM    8  N8  UNL     1      -5.823  22.178  13.676  1.00  0.00    -0.300 N 
ATOM      9  H8  UNL     1      -5.753  22.749  12.834  1.00  0.00     0.186 HD
HETATM   10  N9  UNL     1      -4.911  21.298  14.052  1.00  0.00    -0.201 N 
HETATM   11  C20 UNL     1      -3.720  20.901  13.520  1.00  0.00     0.299 A 
HETATM   12  O7  UNL     1      -3.336  21.426  12.458  1.00  0.00    -0.263 OA
ENDROOT
BRANCH   1  13
HETATM   13  N2  UNL     1      -1.677  19.539  13.542  1.00  0.00    -0.315 N 
HETATM   14  C10 UNL     1      -1.557  18.310  12.853  1.00  0.00     0.256 C 
HETATM   15  O4  UNL     1      -2.576  17.588  12.762  1.00  0.00    -0.267 OA
ATOM     16  H2  UNL     1      -0.864  20.148  13.631  1.00  0.00     0.169 HD
BRANCH  14  17
HETATM   17  C9  UNL     1      -0.318  17.852  12.253  1.00  0.00     0.033 A 
HETATM   18  C8  UNL     1      -0.315  17.375  10.973  1.00  0.00     0.017 A 
HETATM   19  C7  UNL     1       0.868  16.945  10.408  1.00  0.00     0.002 A 
HETATM   20  C6  UNL     1       2.014  17.006  11.148  1.00  0.00     0.011 A 
HETATM   21  C5  UNL     1       2.041  17.494  12.473  1.00  0.00    -0.035 A 
HETATM   22  C21 UNL     1       0.850  17.919  13.021  1.00  0.00     0.028 A 
BRANCH  21  23
HETATM   23  C4  UNL     1       3.304  17.514  13.162  1.00  0.00     0.025 C 
HETATM   24  C3  UNL     1       4.152  18.398  13.501  1.00  0.00     0.141 C 
BRANCH  24  25
HETATM   25  S1  UNL     1       4.295  20.099  13.337  1.00  0.00     0.304 S 
HETATM   26  O2  UNL     1       4.822  20.734  14.606  1.00  0.00    -0.193 OA
HETATM   27  O3  UNL     1       5.160  20.538  12.202  1.00  0.00    -0.193 OA
BRANCH  25  28
HETATM   28  O1  UNL     1       2.752  20.799  13.049  1.00  0.00    -0.175 OA
BRANCH  28  29
HETATM   29  N1  UNL     1       2.749  21.448  11.866  1.00  0.00    -0.187 NA
HETATM   30  C1  UNL     1       2.495  22.870  12.033  1.00  0.00     0.144 C 
HETATM   31  C2  UNL     1       1.825  20.855  10.920  1.00  0.00     0.144 C 
ENDBRANCH  28  29
ENDBRANCH  25  28
ENDBRANCH  24  25
ENDBRANCH  21  23
ENDBRANCH  14  17
ENDBRANCH   1  13
BRANCH   2  32
HETATM   32  N3  UNL     1      -2.611  18.397  15.938  1.00  0.00    -0.290 N 
ATOM     33  H3  UNL     1      -1.725  18.634  16.384  1.00  0.00     0.188 HD
BRANCH  32  34
HETATM   34  N4  UNL     1      -3.091  17.090  15.935  1.00  0.00    -0.344 N 
ATOM     35  H42 UNL     1      -3.898  16.839  15.363  1.00  0.00     0.176 HD
ATOM     36  H41 UNL     1      -2.609  16.408  16.521  1.00  0.00     0.176 HD
ENDBRANCH  32  34
ENDBRANCH   2  32
BRANCH   6  37
HETATM   37  C15 UNL     1      -7.330  21.050  16.574  1.00  0.00     0.051 C 
BRANCH  37  38
HETATM   38  C16 UNL     1      -7.228  21.831  17.780  1.00  0.00     0.088 A 
HETATM   39  N6  UNL     1      -8.021  22.842  18.190  1.00  0.00    -0.305 N 
HETATM   40  C17 UNL     1      -7.561  23.284  19.372  1.00  0.00     0.326 A 
ATOM     41  H6  UNL     1      -8.830  23.207  17.689  1.00  0.00     0.171 HD
HETATM   42  O5  UNL     1      -8.036  24.217  20.070  1.00  0.00    -0.247 OA
HETATM   43  N7  UNL     1      -6.476  22.577  19.745  1.00  0.00    -0.287 N 
HETATM   44  C18 UNL     1      -6.261  21.672  18.764  1.00  0.00     0.171 A 
ATOM     45  H7  UNL     1      -5.927  22.700  20.596  1.00  0.00     0.172 HD
BRANCH  44  46
HETATM   46  O6  UNL     1      -5.228  20.719  18.731  1.00  0.00    -0.344 OA
ATOM     47  H6  UNL     1      -4.492  20.694  19.330  1.00  0.00     0.219 HD
ENDBRANCH  44  46
ENDBRANCH  37  38
ENDBRANCH   6  37
TORSDOF 11
ENDMDL
MODEL 4
REMARK VINA RESULT: -7.523429009      5.076      8.718
REMARK  11 active torsions:
REMARK  status: ('A' for Active; 'I' for Inactive)
REMARK    1  A    between atoms: N1_2  and  O1_4 
REMARK    2  A    between atoms: O1_4  and  S1_5 
REMARK    3  A    between atoms: S1_5  and  C3_8 
REMARK    4  A    between atoms: C4_9  and  C5_10 
REMARK    5  A    between atoms: C9_14  and  C10_15 
REMARK       I    between atoms: C10_15  and  N2_17 
REMARK    6  A    between atoms: N2_17  and  C11_19 
REMARK    7  A    between atoms: C12_20  and  N3_21 
REMARK    8  A    between atoms: N3_21  and  N4_23 
REMARK    9  A    between atoms: C14_29  and  C15_30 
REMARK   10  A    between atoms: C15_30  and  C16_31 
REMARK   11  A    between atoms: C18_38  and  O6_39 
ROOT
HETATM    1  C11 UNL     1      -2.115  21.848  12.184  1.00  0.00     0.151 A 
HETATM    2  C12 UNL     1      -1.369  21.048  11.347  1.00  0.00     0.154 A 
HETATM    3  N5  UNL     1      -0.027  21.095  11.407  1.00  0.00    -0.323 N 
ATOM      4  H5  UNL     1       0.512  20.497  10.781  1.00  0.00     0.169 HD
HETATM    5  C13 UNL     1       0.636  21.898  12.260  1.00  0.00     0.144 A 
HETATM    6  C14 UNL     1       1.979  22.107  12.491  1.00  0.00     0.029 A 
HETATM    7  C19 UNL     1       2.075  23.058  13.492  1.00  0.00     0.123 A 
HETATM    8  N8  UNL     1       0.809  23.371  13.813  1.00  0.00    -0.300 N 
ATOM      9  H8  UNL     1       0.551  24.052  14.528  1.00  0.00     0.186 HD
HETATM   10  N9  UNL     1      -0.063  22.691  13.090  1.00  0.00    -0.201 N 
HETATM   11  C20 UNL     1      -1.425  22.665  13.051  1.00  0.00     0.299 A 
HETATM   12  O7  UNL     1      -2.060  23.405  13.825  1.00  0.00    -0.263 OA
ENDROOT
BRANCH   1  13
HETATM   13  N2  UNL     1      -3.557  21.837  12.156  1.00  0.00    -0.315 N 
HETATM   14  C10 UNL     1      -4.285  20.756  12.706  1.00  0.00     0.256 C 
HETATM   15  O4  UNL     1      -3.637  19.814  13.216  1.00  0.00    -0.267 OA
ATOM     16  H2  UNL     1      -4.058  22.619  11.733  1.00  0.00     0.169 HD
BRANCH  14  17
HETATM   17  C9  UNL     1      -5.735  20.691  12.705  1.00  0.00     0.033 A 
HETATM   18  C8  UNL     1      -6.377  19.828  11.865  1.00  0.00     0.017 A 
HETATM   19  C7  UNL     1      -7.757  19.768  11.872  1.00  0.00     0.002 A 
HETATM   20  C6  UNL     1      -8.447  20.581  12.725  1.00  0.00     0.011 A 
HETATM   21  C5  UNL     1      -7.809  21.483  13.604  1.00  0.00    -0.035 A 
HETATM   22  C21 UNL     1      -6.432  21.529  13.583  1.00  0.00     0.028 A 
BRANCH  21  23
HETATM   23  C4  UNL     1      -8.635  22.293  14.461  1.00  0.00     0.025 C 
HETATM   24  C3  UNL     1      -8.449  23.230  15.297  1.00  0.00     0.141 C 
BRANCH  24  25
HETATM   25  S1  UNL     1      -7.098  24.092  15.907  1.00  0.00     0.304 S 
HETATM   26  O2  UNL     1      -6.302  24.734  14.791  1.00  0.00    -0.193 OA
HETATM   27  O3  UNL     1      -7.440  25.150  16.905  1.00  0.00    -0.193 OA
BRANCH  25  28
HETATM   28  O1  UNL     1      -6.024  23.018  16.713  1.00  0.00    -0.175 OA
BRANCH  28  29
HETATM   29  N1  UNL     1      -6.713  22.212  17.548  1.00  0.00    -0.187 NA
HETATM   30  C1  UNL     1      -6.477  22.555  18.942  1.00  0.00     0.144 C 
HETATM   31  C2  UNL     1      -6.446  20.810  17.298  1.00  0.00     0.144 C 
ENDBRANCH  28  29
ENDBRANCH  25  28
ENDBRANCH  24  25
ENDBRANCH  21  23
ENDBRANCH  14  17
ENDBRANCH   1  13
BRANCH   2  32
HETATM   32  N3  UNL     1      -2.056  20.192  10.437  1.00  0.00    -0.290 N 
ATOM     33  H3  UNL     1      -2.443  19.298  10.742  1.00  0.00     0.188 HD
BRANCH  32  34
HETATM   34  N4  UNL     1      -2.180  20.619   9.117  1.00  0.00    -0.344 N 
ATOM     35  H42 UNL     1      -1.364  20.964   8.609  1.00  0.00     0.176 HD
ATOM     36  H41 UNL     1      -3.104  20.572   8.690  1.00  0.00     0.176 HD
ENDBRANCH  32  34
ENDBRANCH   2  32
BRANCH   6  37
HETATM   37  C15 UNL     1       3.021  21.535  11.896  1.00  0.00     0.051 C 
BRANCH  37  38
HETATM   38  C16 UNL     1       3.447  20.208  12.260  1.00  0.00     0.088 A 
HETATM   39  N6  UNL     1       2.686  19.163  12.644  1.00  0.00    -0.305 N 
HETATM   40  C17 UNL     1       3.497  18.120  12.887  1.00  0.00     0.326 A 
ATOM     41  H6  UNL     1       1.670  19.165  12.734  1.00  0.00     0.171 HD
HETATM   42  O5  UNL     1       3.159  16.969  13.266  1.00  0.00    -0.247 OA
HETATM   43  N7  UNL     1       4.781  18.465  12.668  1.00  0.00    -0.287 N 
HETATM   44  C18 UNL     1       4.761  19.759  12.277  1.00  0.00     0.171 A 
ATOM     45  H7  UNL     1       5.603  17.871  12.774  1.00  0.00     0.172 HD
BRANCH  44  46
HETATM   46  O6  UNL     1       5.882  20.539  11.941  1.00  0.00    -0.344 OA
ATOM     47  H6  UNL     1       6.778  20.226  11.933  1.00  0.00     0.219 HD
ENDBRANCH  44  46
ENDBRANCH  37  38
ENDBRANCH   6  37
TORSDOF 11
ENDMDL
MODEL 5
REMARK VINA RESULT: -7.469454229      5.078      8.863
REMARK  11 active torsions:
REMARK  status: ('A' for Active; 'I' for Inactive)
REMARK    1  A    between atoms: N1_2  and  O1_4 
REMARK    2  A    between atoms: O1_4  and  S1_5 
REMARK    3  A    between atoms: S1_5  and  C3_8 
REMARK    4  A    between atoms: C4_9  and  C5_10 
REMARK    5  A    between atoms: C9_14  and  C10_15 
REMARK       I    between atoms: C10_15  and  N2_17 
REMARK    6  A    between atoms: N2_17  and  C11_19 
REMARK    7  A    between atoms: C12_20  and  N3_21 
REMARK    8  A    between atoms: N3_21  and  N4_23 
REMARK    9  A    between atoms: C14_29  and  C15_30 
REMARK   10  A    between atoms: C15_30  and  C16_31 
REMARK   11  A    between atoms: C18_38  and  O6_39 
ROOT
HETATM    1  C11 UNL     1      -2.100  21.844  12.167  1.00  0.00     0.151 A 
HETATM    2  C12 UNL     1      -1.346  21.044  11.336  1.00  0.00     0.154 A 
HETATM    3  N5  UNL     1      -0.005  21.093  11.405  1.00  0.00    -0.323 N 
ATOM      4  H5  UNL     1       0.539  20.494  10.784  1.00  0.00     0.169 HD
HETATM    5  C13 UNL     1       0.651  21.898  12.261  1.00  0.00     0.144 A 
HETATM    6  C14 UNL     1       1.992  22.110  12.500  1.00  0.00     0.029 A 
HETATM    7  C19 UNL     1       2.080  23.062  13.500  1.00  0.00     0.123 A 
HETATM    8  N8  UNL     1       0.812  23.375  13.813  1.00  0.00    -0.300 N 
ATOM      9  H8  UNL     1       0.548  24.056  14.525  1.00  0.00     0.186 HD
HETATM   10  N9  UNL     1      -0.054  22.691  13.085  1.00  0.00    -0.201 N 
HETATM   11  C20 UNL     1      -1.416  22.663  13.037  1.00  0.00     0.299 A 
HETATM   12  O7  UNL     1      -2.058  23.403  13.806  1.00  0.00    -0.263 OA
ENDROOT
BRANCH   1  13
HETATM   13  N2  UNL     1      -3.541  21.830  12.130  1.00  0.00    -0.315 N 
HETATM   14  C10 UNL     1      -4.272  20.770  12.714  1.00  0.00     0.256 C 
HETATM   15  O4  UNL     1      -3.627  19.847  13.263  1.00  0.00    -0.267 OA
ATOM     16  H2  UNL     1      -4.040  22.596  11.676  1.00  0.00     0.169 HD
BRANCH  14  17
HETATM   17  C9  UNL     1      -5.722  20.703  12.706  1.00  0.00     0.033 A 
HETATM   18  C8  UNL     1      -6.362  19.916  11.793  1.00  0.00     0.017 A 
HETATM   19  C7  UNL     1      -7.742  19.854  11.793  1.00  0.00     0.002 A 
HETATM   20  C6  UNL     1      -8.434  20.589  12.713  1.00  0.00     0.011 A 
HETATM   21  C5  UNL     1      -7.798  21.412  13.668  1.00  0.00    -0.035 A 
HETATM   22  C21 UNL     1      -6.421  21.461  13.652  1.00  0.00     0.028 A 
BRANCH  21  23
HETATM   23  C4  UNL     1      -8.625  22.143  14.591  1.00  0.00     0.025 C 
HETATM   24  C3  UNL     1      -8.451  23.054  15.459  1.00  0.00     0.141 C 
BRANCH  24  25
HETATM   25  S1  UNL     1      -7.119  23.958  16.050  1.00  0.00     0.304 S 
HETATM   26  O2  UNL     1      -6.116  23.069  16.751  1.00  0.00    -0.193 OA
HETATM   27  O3  UNL     1      -6.397  24.746  15.006  1.00  0.00    -0.193 OA
BRANCH  25  28
HETATM   28  O1  UNL     1      -7.651  25.104  17.216  1.00  0.00    -0.175 OA
BRANCH  28  29
HETATM   29  N1  UNL     1      -7.706  26.335  16.667  1.00  0.00    -0.187 NA
HETATM   30  C1  UNL     1      -7.196  27.352  17.574  1.00  0.00     0.144 C 
HETATM   31  C2  UNL     1      -9.038  26.665  16.200  1.00  0.00     0.144 C 
ENDBRANCH  28  29
ENDBRANCH  25  28
ENDBRANCH  24  25
ENDBRANCH  21  23
ENDBRANCH  14  17
ENDBRANCH   1  13
BRANCH   2  32
HETATM   32  N3  UNL     1      -2.026  20.184  10.423  1.00  0.00    -0.290 N 
ATOM     33  H3  UNL     1      -2.403  19.285  10.724  1.00  0.00     0.188 HD
BRANCH  32  34
HETATM   34  N4  UNL     1      -2.159  20.618   9.106  1.00  0.00    -0.344 N 
ATOM     35  H42 UNL     1      -1.889  20.007   8.334  1.00  0.00     0.176 HD
ATOM     36  H41 UNL     1      -2.530  21.555   8.952  1.00  0.00     0.176 HD
ENDBRANCH  32  34
ENDBRANCH   2  32
BRANCH   6  37
HETATM   37  C15 UNL     1       3.039  21.539  11.913  1.00  0.00     0.051 C 
BRANCH  37  38
HETATM   38  C16 UNL     1       3.455  20.207  12.270  1.00  0.00     0.088 A 
HETATM   39  N6  UNL     1       2.687  19.169  12.660  1.00  0.00    -0.305 N 
HETATM   40  C17 UNL     1       3.490  18.117  12.894  1.00  0.00     0.326 A 
ATOM     41  H6  UNL     1       1.673  19.180  12.759  1.00  0.00     0.171 HD
HETATM   42  O5  UNL     1       3.145  16.969  13.274  1.00  0.00    -0.247 OA
HETATM   43  N7  UNL     1       4.776  18.450  12.663  1.00  0.00    -0.287 N 
HETATM   44  C18 UNL     1       4.765  19.745  12.275  1.00  0.00     0.171 A 
ATOM     45  H7  UNL     1       5.592  17.847  12.761  1.00  0.00     0.172 HD
BRANCH  44  46
HETATM   46  O6  UNL     1       5.890  20.514  11.930  1.00  0.00    -0.344 OA
ATOM     47  H6  UNL     1       6.753  20.416  12.313  1.00  0.00     0.219 HD
ENDBRANCH  44  46
ENDBRANCH  37  38
ENDBRANCH   6  37
TORSDOF 11
ENDMDL
