MODEL 1
REMARK VINA RESULT: -7.983313006      0.000      0.000
REMARK  10 active torsions:
REMARK  status: ('A' for Active; 'I' for Inactive)
REMARK    1  A    between atoms: O1_2  and  C2_3 
REMARK    2  A    between atoms: C4_5  and  C5_6 
REMARK    3  A    between atoms: C5_6  and  C6_7 
REMARK    4  A    between atoms: C6_7  and  O2_8 
REMARK    5  A    between atoms: C6_7  and  C9_20 
REMARK    6  A    between atoms: O2_8  and  N1_9 
REMARK       I    between atoms: C7_11  and  N3_13 
REMARK       I    between atoms: N3_13  and  C8_15 
REMARK    7  A    between atoms: C10_21  and  O3_22 
REMARK    8  A    between atoms: C14_29  and  C15_30 
REMARK       I    between atoms: C15_30  and  N7_32 
REMARK    9  A    between atoms: N7_32  and  S1_34 
REMARK   10  A    between atoms: C18_46  and  O8_47 
ROOT
HETATM    1  C6  UNL     1       0.659  21.019  11.425  1.00  0.00     0.196 C 
ENDROOT
BRANCH   1   2
HETATM    2  C5  UNL     1       0.293  20.734  10.023  1.00  0.00     0.098 C 
BRANCH   2   3
HETATM    3  C4  UNL     1      -0.327  19.364   9.912  1.00  0.00     0.031 A 
HETATM    4  C3  UNL     1      -1.681  19.142   9.891  1.00  0.00     0.068 A 
HETATM    5  C2  UNL     1      -2.199  17.841   9.828  1.00  0.00     0.122 A 
HETATM    6  C18 UNL     1      -1.306  16.792   9.789  1.00  0.00     0.191 A 
HETATM    7  N10 UNL     1       0.010  17.059   9.812  1.00  0.00    -0.278 N 
HETATM    8  N9  UNL     1       0.495  18.311   9.872  1.00  0.00    -0.303 N 
ATOM      9  H10 UNL     1       0.668  16.280   9.783  1.00  0.00     0.189 HD
ATOM     10  H9  UNL     1       1.504  18.459   9.888  1.00  0.00     0.186 HD
BRANCH   5  11
HETATM   11  O1  UNL     1      -3.539  17.551   9.803  1.00  0.00    -0.352 OA
HETATM   12  C1  UNL     1      -4.454  17.688  10.847  1.00  0.00     0.210 C 
ENDBRANCH   5  11
BRANCH   6  13
HETATM   13  O8  UNL     1      -1.733  15.461   9.725  1.00  0.00    -0.338 OA
HETATM   14  C19 UNL     1      -1.628  14.738   8.532  1.00  0.00     0.211 C 
ENDBRANCH   6  13
ENDBRANCH   2   3
ENDBRANCH   1   2
BRANCH   1  15
HETATM   15  O2  UNL     1       1.101  19.853  12.120  1.00  0.00    -0.267 OA
BRANCH  15  16
HETATM   16  N1  UNL     1       2.258  19.458  12.498  1.00  0.00    -0.237 N 
HETATM   17  C7  UNL     1       3.042  18.561  12.766  1.00  0.00     0.214 C 
HETATM   18  N2  UNL     1       2.899  17.151  12.747  1.00  0.00    -0.061 NA
HETATM   19  N3  UNL     1       4.378  18.978  13.178  1.00  0.00    -0.303 N 
HETATM   20  C8  UNL     1       5.349  19.182  12.170  1.00  0.00     0.188 C 
ATOM     21  H3  UNL     1       4.605  19.119  14.163  1.00  0.00     0.171 HD
HETATM   22  N4  UNL     1       5.694  18.202  11.412  1.00  0.00    -0.373 N 
HETATM   23  N5  UNL     1       5.949  20.440  11.975  1.00  0.00    -0.064 NA
ATOM     24  H42 UNL     1       5.259  17.290  11.554  1.00  0.00     0.158 HD
ATOM     25  H41 UNL     1       6.395  18.349  10.685  1.00  0.00     0.158 HD
ATOM     26  H1  UNL     1       2.787  20.317  12.649  1.00  0.00     0.197 HD
ENDBRANCH  15  16
ENDBRANCH   1  15
BRANCH   1  27
HETATM   27  C9  UNL     1      -0.270  21.812  12.232  1.00  0.00     0.035 A 
HETATM   28  C10 UNL     1      -0.091  23.215  12.287  1.00  0.00     0.077 A 
HETATM   29  C11 UNL     1      -0.878  24.040  13.039  1.00  0.00     0.039 A 
HETATM   30  C12 UNL     1      -1.886  23.474  13.767  1.00  0.00     0.035 A 
HETATM   31  C13 UNL     1      -2.109  22.096  13.748  1.00  0.00     0.060 A 
HETATM   32  N6  UNL     1      -3.106  21.568  14.478  1.00  0.00    -0.349 N 
HETATM   33  C17 UNL     1      -1.287  21.266  12.969  1.00  0.00     0.070 A 
HETATM   34  C14 UNL     1      -3.340  20.240  14.481  1.00  0.00     0.117 A 
ATOM     35  H6  UNL     1      -3.696  22.183  15.040  1.00  0.00     0.166 HD
HETATM   36  C16 UNL     1      -2.514  19.454  13.705  1.00  0.00     0.123 A 
HETATM   37  N8  UNL     1      -1.517  19.947  12.971  1.00  0.00    -0.361 N 
ATOM     38  H8  UNL     1      -0.933  19.324  12.414  1.00  0.00     0.165 HD
BRANCH  28  39
HETATM   39  O3  UNL     1       0.938  23.776  11.538  1.00  0.00    -0.360 OA
ATOM     40  H3  UNL     1       1.557  24.344  11.981  1.00  0.00     0.217 HD
ENDBRANCH  28  39
BRANCH  34  41
HETATM   41  C15 UNL     1      -4.416  19.668  15.281  1.00  0.00     0.284 C 
HETATM   42  O4  UNL     1      -5.548  19.503  14.811  1.00  0.00    -0.265 OA
HETATM   43  N7  UNL     1      -4.162  19.292  16.624  1.00  0.00    -0.230 N 
ATOM     44  H7  UNL     1      -3.226  19.431  17.007  1.00  0.00     0.184 HD
BRANCH  43  45
HETATM   45  S1  UNL     1      -5.385  18.605  17.636  1.00  0.00     0.211 S 
HETATM   46  O5  UNL     1      -6.540  19.549  17.810  1.00  0.00    -0.578 OA
HETATM   47  O6  UNL     1      -4.813  18.320  19.011  1.00  0.00    -0.578 OA
HETATM   48  O7  UNL     1      -5.912  17.132  17.029  1.00  0.00    -0.578 OA
ENDBRANCH  43  45
ENDBRANCH  34  41
ENDBRANCH   1  27
TORSDOF 10
ENDMDL
MODEL 2
REMARK VINA RESULT: -7.933701476      3.376      7.027
REMARK  10 active torsions:
REMARK  status: ('A' for Active; 'I' for Inactive)
REMARK    1  A    between atoms: O1_2  and  C2_3 
REMARK    2  A    between atoms: C4_5  and  C5_6 
REMARK    3  A    between atoms: C5_6  and  C6_7 
REMARK    4  A    between atoms: C6_7  and  O2_8 
REMARK    5  A    between atoms: C6_7  and  C9_20 
REMARK    6  A    between atoms: O2_8  and  N1_9 
REMARK       I    between atoms: C7_11  and  N3_13 
REMARK       I    between atoms: N3_13  and  C8_15 
REMARK    7  A    between atoms: C10_21  and  O3_22 
REMARK    8  A    between atoms: C14_29  and  C15_30 
REMARK       I    between atoms: C15_30  and  N7_32 
REMARK    9  A    between atoms: N7_32  and  S1_34 
REMARK   10  A    between atoms: C18_46  and  O8_47 
ROOT
HETATM    1  C6  UNL     1      -2.592  21.880  13.691  1.00  0.00     0.196 C 
ENDROOT
BRANCH   1   2
HETATM    2  C5  UNL     1      -1.941  23.124  13.234  1.00  0.00     0.098 C 
BRANCH   2   3
HETATM    3  C4  UNL     1      -0.533  22.840  12.776  1.00  0.00     0.031 A 
HETATM    4  C3  UNL     1      -0.188  22.638  11.463  1.00  0.00     0.068 A 
HETATM    5  C2  UNL     1       1.132  22.337  11.102  1.00  0.00     0.122 A 
HETATM    6  C18 UNL     1       2.073  22.250  12.105  1.00  0.00     0.191 A 
HETATM    7  N10 UNL     1       1.687  22.456  13.375  1.00  0.00    -0.278 N 
HETATM    8  N9  UNL     1       0.418  22.744  13.709  1.00  0.00    -0.303 N 
ATOM      9  H10 UNL     1       2.386  22.390  14.115  1.00  0.00     0.189 HD
ATOM     10  H9  UNL     1       0.177  22.891  14.690  1.00  0.00     0.186 HD
BRANCH   5  11
HETATM   11  O1  UNL     1       1.543  22.124   9.810  1.00  0.00    -0.352 OA
HETATM   12  C1  UNL     1       1.158  21.088   8.960  1.00  0.00     0.210 C 
ENDBRANCH   5  11
BRANCH   6  13
HETATM   13  O8  UNL     1       3.413  21.953  11.837  1.00  0.00    -0.338 OA
HETATM   14  C19 UNL     1       3.931  20.685  12.123  1.00  0.00     0.211 C 
ENDBRANCH   6  13
ENDBRANCH   2   3
ENDBRANCH   1   2
BRANCH   1  15
HETATM   15  O2  UNL     1      -1.682  20.999  14.349  1.00  0.00    -0.267 OA
BRANCH  15  16
HETATM   16  N1  UNL     1      -1.773  19.774  14.710  1.00  0.00    -0.237 N 
HETATM   17  C7  UNL     1      -2.395  18.860  15.227  1.00  0.00     0.214 C 
HETATM   18  N2  UNL     1      -3.684  18.814  15.814  1.00  0.00    -0.061 NA
HETATM   19  N3  UNL     1      -1.723  17.564  15.260  1.00  0.00    -0.303 N 
HETATM   20  C8  UNL     1      -1.884  16.707  14.146  1.00  0.00     0.188 C 
ATOM     21  H3  UNL     1      -1.156  17.285  16.060  1.00  0.00     0.171 HD
HETATM   22  N4  UNL     1      -3.059  16.291  13.827  1.00  0.00    -0.373 N 
HETATM   23  N5  UNL     1      -0.782  16.296  13.373  1.00  0.00    -0.064 NA
ATOM     24  H42 UNL     1      -3.857  16.589  14.388  1.00  0.00     0.158 HD
ATOM     25  H41 UNL     1      -3.174  15.672  13.024  1.00  0.00     0.158 HD
ATOM     26  H1  UNL     1      -0.888  19.355  14.424  1.00  0.00     0.197 HD
ENDBRANCH  15  16
ENDBRANCH   1  15
BRANCH   1  27
HETATM   27  C9  UNL     1      -3.451  21.165  12.745  1.00  0.00     0.035 A 
HETATM   28  C10 UNL     1      -4.845  21.403  12.783  1.00  0.00     0.077 A 
HETATM   29  C11 UNL     1      -5.735  20.761  11.971  1.00  0.00     0.039 A 
HETATM   30  C12 UNL     1      -5.246  19.848  11.081  1.00  0.00     0.035 A 
HETATM   31  C13 UNL     1      -3.879  19.574  10.999  1.00  0.00     0.060 A 
HETATM   32  N6  UNL     1      -3.429  18.668  10.115  1.00  0.00    -0.349 N 
HETATM   33  C17 UNL     1      -2.982  20.246  11.845  1.00  0.00     0.070 A 
HETATM   34  C14 UNL     1      -2.114  18.383  10.019  1.00  0.00     0.117 A 
ATOM     35  H6  UNL     1      -4.092  18.188   9.507  1.00  0.00     0.166 HD
HETATM   36  C16 UNL     1      -1.260  19.060  10.865  1.00  0.00     0.123 A 
HETATM   37  N8  UNL     1      -1.676  19.963  11.751  1.00  0.00    -0.361 N 
ATOM     38  H8  UNL     1      -1.005  20.437  12.355  1.00  0.00     0.165 HD
BRANCH  28  39
HETATM   39  O3  UNL     1      -5.328  22.338  13.694  1.00  0.00    -0.360 OA
ATOM     40  H3  UNL     1      -6.268  22.425  13.790  1.00  0.00     0.217 HD
ENDBRANCH  28  39
BRANCH  34  41
HETATM   41  C15 UNL     1      -1.627  17.392   9.066  1.00  0.00     0.284 C 
HETATM   42  O4  UNL     1      -2.266  17.114   8.045  1.00  0.00    -0.265 OA
HETATM   43  N7  UNL     1      -0.396  16.734   9.315  1.00  0.00    -0.230 N 
ATOM     44  H7  UNL     1       0.126  16.966  10.160  1.00  0.00     0.184 HD
BRANCH  43  45
HETATM   45  S1  UNL     1       0.249  15.549   8.232  1.00  0.00     0.211 S 
HETATM   46  O5  UNL     1      -0.703  14.402   8.052  1.00  0.00    -0.578 OA
HETATM   47  O6  UNL     1       1.541  14.990   8.795  1.00  0.00    -0.578 OA
HETATM   48  O7  UNL     1       0.636  16.234   6.750  1.00  0.00    -0.578 OA
ENDBRANCH  43  45
ENDBRANCH  34  41
ENDBRANCH   1  27
TORSDOF 10
ENDMDL
MODEL 3
REMARK VINA RESULT: -7.867950878      0.946      1.523
REMARK  10 active torsions:
REMARK  status: ('A' for Active; 'I' for Inactive)
REMARK    1  A    between atoms: O1_2  and  C2_3 
REMARK    2  A    between atoms: C4_5  and  C5_6 
REMARK    3  A    between atoms: C5_6  and  C6_7 
REMARK    4  A    between atoms: C6_7  and  O2_8 
REMARK    5  A    between atoms: C6_7  and  C9_20 
REMARK    6  A    between atoms: O2_8  and  N1_9 
REMARK       I    between atoms: C7_11  and  N3_13 
REMARK       I    between atoms: N3_13  and  C8_15 
REMARK    7  A    between atoms: C10_21  and  O3_22 
REMARK    8  A    between atoms: C14_29  and  C15_30 
REMARK       I    between atoms: C15_30  and  N7_32 
REMARK    9  A    between atoms: N7_32  and  S1_34 
REMARK   10  A    between atoms: C18_46  and  O8_47 
ROOT
HETATM    1  C6  UNL     1       0.597  20.863  11.416  1.00  0.00     0.196 C 
ENDROOT
BRANCH   1   2
HETATM    2  C5  UNL     1       0.174  20.498  10.049  1.00  0.00     0.098 C 
BRANCH   2   3
HETATM    3  C4  UNL     1      -0.387  19.098  10.031  1.00  0.00     0.031 A 
HETATM    4  C3  UNL     1       0.387  17.971   9.912  1.00  0.00     0.068 A 
HETATM    5  C2  UNL     1      -0.195  16.698   9.859  1.00  0.00     0.122 A 
HETATM    6  C18 UNL     1      -1.569  16.612   9.930  1.00  0.00     0.191 A 
HETATM    7  N10 UNL     1      -2.283  17.743  10.046  1.00  0.00    -0.278 N 
HETATM    8  N9  UNL     1      -1.714  18.959  10.096  1.00  0.00    -0.303 N 
ATOM      9  H10 UNL     1      -3.300  17.676  10.099  1.00  0.00     0.189 HD
ATOM     10  H9  UNL     1      -2.303  19.787  10.184  1.00  0.00     0.186 HD
BRANCH   5  11
HETATM   11  O1  UNL     1       0.520  15.533   9.741  1.00  0.00    -0.352 OA
HETATM   12  C1  UNL     1       1.075  14.995   8.580  1.00  0.00     0.210 C 
ENDBRANCH   5  11
BRANCH   6  13
HETATM   13  O8  UNL     1      -2.235  15.383   9.885  1.00  0.00    -0.338 OA
HETATM   14  C19 UNL     1      -2.843  14.948   8.701  1.00  0.00     0.211 C 
ENDBRANCH   6  13
ENDBRANCH   2   3
ENDBRANCH   1   2
BRANCH   1  15
HETATM   15  O2  UNL     1       1.065  19.739  12.160  1.00  0.00    -0.267 OA
BRANCH  15  16
HETATM   16  N1  UNL     1       2.235  19.373  12.529  1.00  0.00    -0.237 N 
HETATM   17  C7  UNL     1       3.046  18.495  12.782  1.00  0.00     0.214 C 
HETATM   18  N2  UNL     1       2.944  17.082  12.745  1.00  0.00    -0.061 NA
HETATM   19  N3  UNL     1       4.371  18.946  13.196  1.00  0.00    -0.303 N 
HETATM   20  C8  UNL     1       5.332  19.191  12.187  1.00  0.00     0.188 C 
ATOM     21  H3  UNL     1       4.598  19.080  14.181  1.00  0.00     0.171 HD
HETATM   22  N4  UNL     1       5.702  18.232  11.414  1.00  0.00    -0.373 N 
HETATM   23  N5  UNL     1       5.894  20.468  12.007  1.00  0.00    -0.064 NA
ATOM     24  H42 UNL     1       5.294  17.306  11.545  1.00  0.00     0.158 HD
ATOM     25  H41 UNL     1       6.396  18.409  10.687  1.00  0.00     0.158 HD
ATOM     26  H1  UNL     1       2.740  20.244  12.690  1.00  0.00     0.197 HD
ENDBRANCH  15  16
ENDBRANCH   1  15
BRANCH   1  27
HETATM   27  C9  UNL     1      -0.300  21.704  12.212  1.00  0.00     0.035 A 
HETATM   28  C10 UNL     1      -0.076  23.102  12.231  1.00  0.00     0.077 A 
HETATM   29  C11 UNL     1      -0.830  23.968  12.970  1.00  0.00     0.039 A 
HETATM   30  C12 UNL     1      -1.848  23.452  13.721  1.00  0.00     0.035 A 
HETATM   31  C13 UNL     1      -2.114  22.082  13.738  1.00  0.00     0.060 A 
HETATM   32  N6  UNL     1      -3.120  21.604  14.489  1.00  0.00    -0.349 N 
HETATM   33  C17 UNL     1      -1.325  21.208  12.971  1.00  0.00     0.070 A 
HETATM   34  C14 UNL     1      -3.395  20.284  14.527  1.00  0.00     0.117 A 
ATOM     35  H6  UNL     1      -3.685  22.249  15.041  1.00  0.00     0.166 HD
HETATM   36  C16 UNL     1      -2.601  19.453  13.763  1.00  0.00     0.123 A 
HETATM   37  N8  UNL     1      -1.597  19.898  13.008  1.00  0.00    -0.361 N 
ATOM     38  H8  UNL     1      -1.037  19.243  12.461  1.00  0.00     0.165 HD
BRANCH  28  39
HETATM   39  O3  UNL     1       0.962  23.612  11.459  1.00  0.00    -0.360 OA
ATOM     40  H3  UNL     1       1.249  23.110  10.706  1.00  0.00     0.217 HD
ENDBRANCH  28  39
BRANCH  34  41
HETATM   41  C15 UNL     1      -4.480  19.765  15.350  1.00  0.00     0.284 C 
HETATM   42  O4  UNL     1      -5.642  19.723  14.929  1.00  0.00    -0.265 OA
HETATM   43  N7  UNL     1      -4.200  19.299  16.660  1.00  0.00    -0.230 N 
ATOM     44  H7  UNL     1      -3.240  19.337  17.002  1.00  0.00     0.184 HD
BRANCH  43  45
HETATM   45  S1  UNL     1      -5.433  18.668  17.696  1.00  0.00     0.211 S 
HETATM   46  O5  UNL     1      -6.498  19.692  17.961  1.00  0.00    -0.578 OA
HETATM   47  O6  UNL     1      -4.829  18.276  19.031  1.00  0.00    -0.578 OA
HETATM   48  O7  UNL     1      -6.104  17.271  17.053  1.00  0.00    -0.578 OA
ENDBRANCH  43  45
ENDBRANCH  34  41
ENDBRANCH   1  27
TORSDOF 10
ENDMDL
MODEL 4
REMARK VINA RESULT: -7.741205153      1.109      1.355
REMARK  10 active torsions:
REMARK  status: ('A' for Active; 'I' for Inactive)
REMARK    1  A    between atoms: O1_2  and  C2_3 
REMARK    2  A    between atoms: C4_5  and  C5_6 
REMARK    3  A    between atoms: C5_6  and  C6_7 
REMARK    4  A    between atoms: C6_7  and  O2_8 
REMARK    5  A    between atoms: C6_7  and  C9_20 
REMARK    6  A    between atoms: O2_8  and  N1_9 
REMARK       I    between atoms: C7_11  and  N3_13 
REMARK       I    between atoms: N3_13  and  C8_15 
REMARK    7  A    between atoms: C10_21  and  O3_22 
REMARK    8  A    between atoms: C14_29  and  C15_30 
REMARK       I    between atoms: C15_30  and  N7_32 
REMARK    9  A    between atoms: N7_32  and  S1_34 
REMARK   10  A    between atoms: C18_46  and  O8_47 
ROOT
HETATM    1  C6  UNL     1       0.020  20.270  10.969  1.00  0.00     0.196 C 
ENDROOT
BRANCH   1   2
HETATM    2  C5  UNL     1      -0.695  19.881   9.737  1.00  0.00     0.098 C 
BRANCH   2   3
HETATM    3  C4  UNL     1      -0.712  18.381   9.592  1.00  0.00     0.031 A 
HETATM    4  C3  UNL     1      -1.786  17.596   9.929  1.00  0.00     0.068 A 
HETATM    5  C2  UNL     1      -1.728  16.202   9.811  1.00  0.00     0.122 A 
HETATM    6  C18 UNL     1      -0.557  15.641   9.346  1.00  0.00     0.191 A 
HETATM    7  N10 UNL     1       0.467  16.449   9.030  1.00  0.00    -0.278 N 
HETATM    8  N9  UNL     1       0.399  17.787   9.147  1.00  0.00    -0.303 N 
ATOM      9  H10 UNL     1       1.332  16.032   8.686  1.00  0.00     0.189 HD
ATOM     10  H9  UNL     1       1.207  18.356   8.893  1.00  0.00     0.186 HD
BRANCH   5  11
HETATM   11  O1  UNL     1      -2.764  15.362  10.129  1.00  0.00    -0.352 OA
HETATM   12  C1  UNL     1      -3.703  15.525  11.148  1.00  0.00     0.210 C 
ENDBRANCH   5  11
BRANCH   6  13
HETATM   13  O8  UNL     1      -0.409  14.258   9.197  1.00  0.00    -0.338 OA
HETATM   14  C19 UNL     1       0.683  13.733   8.496  1.00  0.00     0.211 C 
ENDBRANCH   6  13
ENDBRANCH   2   3
ENDBRANCH   1   2
BRANCH   1  15
HETATM   15  O2  UNL     1       0.705  19.172  11.571  1.00  0.00    -0.267 OA
BRANCH  15  16
HETATM   16  N1  UNL     1       1.831  19.080  12.172  1.00  0.00    -0.237 N 
HETATM   17  C7  UNL     1       2.709  18.409  12.692  1.00  0.00     0.214 C 
HETATM   18  N2  UNL     1       2.837  17.010  12.879  1.00  0.00    -0.061 NA
HETATM   19  N3  UNL     1       3.851  19.147  13.224  1.00  0.00    -0.303 N 
HETATM   20  C8  UNL     1       4.928  19.421  12.349  1.00  0.00     0.188 C 
ATOM     21  H3  UNL     1       3.871  19.457  14.195  1.00  0.00     0.171 HD
HETATM   22  N4  UNL     1       5.578  18.446  11.816  1.00  0.00    -0.373 N 
HETATM   23  N5  UNL     1       5.308  20.741  12.045  1.00  0.00    -0.064 NA
ATOM     24  H42 UNL     1       5.302  17.490  12.037  1.00  0.00     0.158 HD
ATOM     25  H41 UNL     1       6.355  18.644  11.186  1.00  0.00     0.158 HD
ATOM     26  H1  UNL     1       2.156  20.043  12.260  1.00  0.00     0.197 HD
ENDBRANCH  15  16
ENDBRANCH   1  15
BRANCH   1  27
HETATM   27  C9  UNL     1      -0.703  21.067  11.963  1.00  0.00     0.035 A 
HETATM   28  C10 UNL     1      -0.546  22.473  11.946  1.00  0.00     0.077 A 
HETATM   29  C11 UNL     1      -1.145  23.303  12.850  1.00  0.00     0.039 A 
HETATM   30  C12 UNL     1      -1.934  22.738  13.812  1.00  0.00     0.035 A 
HETATM   31  C13 UNL     1      -2.126  21.357  13.874  1.00  0.00     0.060 A 
HETATM   32  N6  UNL     1      -2.905  20.831  14.834  1.00  0.00    -0.349 N 
HETATM   33  C17 UNL     1      -1.499  20.522  12.934  1.00  0.00     0.070 A 
HETATM   34  C14 UNL     1      -3.103  19.500  14.919  1.00  0.00     0.117 A 
ATOM     35  H6  UNL     1      -3.355  21.449  15.510  1.00  0.00     0.166 HD
HETATM   36  C16 UNL     1      -2.472  18.708  13.981  1.00  0.00     0.123 A 
HETATM   37  N8  UNL     1      -1.694  19.200  13.018  1.00  0.00    -0.361 N 
ATOM     38  H8  UNL     1      -1.249  18.573  12.347  1.00  0.00     0.165 HD
BRANCH  28  39
HETATM   39  O3  UNL     1       0.258  23.033  10.959  1.00  0.00    -0.360 OA
ATOM     40  H3  UNL     1       1.182  23.152  11.147  1.00  0.00     0.217 HD
ENDBRANCH  28  39
BRANCH  34  41
HETATM   41  C15 UNL     1      -3.941  18.929  15.967  1.00  0.00     0.284 C 
HETATM   42  O4  UNL     1      -3.985  17.708  16.162  1.00  0.00    -0.265 OA
HETATM   43  N7  UNL     1      -4.722  19.789  16.780  1.00  0.00    -0.230 N 
ATOM     44  H7  UNL     1      -4.683  20.795  16.614  1.00  0.00     0.184 HD
BRANCH  43  45
HETATM   45  S1  UNL     1      -5.740  19.189  18.043  1.00  0.00     0.211 S 
HETATM   46  O5  UNL     1      -6.899  18.414  17.486  1.00  0.00    -0.578 OA
HETATM   47  O6  UNL     1      -6.303  20.348  18.841  1.00  0.00    -0.578 OA
HETATM   48  O7  UNL     1      -4.867  18.250  19.126  1.00  0.00    -0.578 OA
ENDBRANCH  43  45
ENDBRANCH  34  41
ENDBRANCH   1  27
TORSDOF 10
ENDMDL
MODEL 5
REMARK VINA RESULT: -7.731256920      2.581      5.587
REMARK  10 active torsions:
REMARK  status: ('A' for Active; 'I' for Inactive)
REMARK    1  A    between atoms: O1_2  and  C2_3 
REMARK    2  A    between atoms: C4_5  and  C5_6 
REMARK    3  A    between atoms: C5_6  and  C6_7 
REMARK    4  A    between atoms: C6_7  and  O2_8 
REMARK    5  A    between atoms: C6_7  and  C9_20 
REMARK    6  A    between atoms: O2_8  and  N1_9 
REMARK       I    between atoms: C7_11  and  N3_13 
REMARK       I    between atoms: N3_13  and  C8_15 
REMARK    7  A    between atoms: C10_21  and  O3_22 
REMARK    8  A    between atoms: C14_29  and  C15_30 
REMARK       I    between atoms: C15_30  and  N7_32 
REMARK    9  A    between atoms: N7_32  and  S1_34 
REMARK   10  A    between atoms: C18_46  and  O8_47 
ROOT
HETATM    1  C6  UNL     1      -0.285  18.055  10.358  1.00  0.00     0.196 C 
ENDROOT
BRANCH   1   2
HETATM    2  C5  UNL     1      -0.786  19.405  10.029  1.00  0.00     0.098 C 
BRANCH   2   3
HETATM    3  C4  UNL     1       0.201  20.453  10.478  1.00  0.00     0.031 A 
HETATM    4  C3  UNL     1       0.201  21.009  11.733  1.00  0.00     0.068 A 
HETATM    5  C2  UNL     1       1.117  22.010  12.079  1.00  0.00     0.122 A 
HETATM    6  C18 UNL     1       2.019  22.420  11.120  1.00  0.00     0.191 A 
HETATM    7  N10 UNL     1       1.981  21.846   9.907  1.00  0.00    -0.278 N 
HETATM    8  N9  UNL     1       1.096  20.886   9.586  1.00  0.00    -0.303 N 
ATOM      9  H10 UNL     1       2.649  22.152   9.199  1.00  0.00     0.189 HD
ATOM     10  H9  UNL     1       1.109  20.483   8.649  1.00  0.00     0.186 HD
BRANCH   5  11
HETATM   11  O1  UNL     1       1.171  22.606  13.313  1.00  0.00    -0.352 OA
HETATM   12  C1  UNL     1       0.228  23.463  13.880  1.00  0.00     0.210 C 
ENDBRANCH   5  11
BRANCH   6  13
HETATM   13  O8  UNL     1       2.970  23.413  11.377  1.00  0.00    -0.338 OA
HETATM   14  C19 UNL     1       3.496  24.180  10.331  1.00  0.00     0.211 C 
ENDBRANCH   6  13
ENDBRANCH   2   3
ENDBRANCH   1   2
BRANCH   1  15
HETATM   15  O2  UNL     1      -1.041  17.024   9.725  1.00  0.00    -0.267 OA
BRANCH  15  16
HETATM   16  N1  UNL     1      -0.710  16.055   8.956  1.00  0.00    -0.237 N 
HETATM   17  C7  UNL     1      -0.126  15.629   7.972  1.00  0.00     0.214 C 
HETATM   18  N2  UNL     1       0.666  16.280   6.993  1.00  0.00    -0.061 NA
HETATM   19  N3  UNL     1      -0.237  14.193   7.732  1.00  0.00    -0.303 N 
HETATM   20  C8  UNL     1       0.710  13.343   8.350  1.00  0.00     0.188 C 
ATOM     21  H3  UNL     1      -0.974  13.814   7.138  1.00  0.00     0.171 HD
HETATM   22  N4  UNL     1       1.960  13.475   8.072  1.00  0.00    -0.373 N 
HETATM   23  N5  UNL     1       0.317  12.352   9.267  1.00  0.00    -0.064 NA
ATOM     24  H42 UNL     1       2.244  14.194   7.406  1.00  0.00     0.158 HD
ATOM     25  H41 UNL     1       2.643  12.862   8.517  1.00  0.00     0.158 HD
ATOM     26  H1  UNL     1      -1.150  15.234   9.371  1.00  0.00     0.197 HD
ENDBRANCH  15  16
ENDBRANCH   1  15
BRANCH   1  27
HETATM   27  C9  UNL     1      -0.014  17.744  11.763  1.00  0.00     0.035 A 
HETATM   28  C10 UNL     1       1.299  17.367  12.132  1.00  0.00     0.077 A 
HETATM   29  C11 UNL     1       1.647  17.021  13.406  1.00  0.00     0.039 A 
HETATM   30  C12 UNL     1       0.674  17.046  14.364  1.00  0.00     0.035 A 
HETATM   31  C13 UNL     1      -0.638  17.412  14.057  1.00  0.00     0.060 A 
HETATM   32  N6  UNL     1      -1.574  17.423  15.021  1.00  0.00    -0.349 N 
HETATM   33  C17 UNL     1      -0.974  17.763  12.739  1.00  0.00     0.070 A 
HETATM   34  C14 UNL     1      -2.849  17.769  14.749  1.00  0.00     0.117 A 
ATOM     35  H6  UNL     1      -1.316  17.167  15.974  1.00  0.00     0.166 HD
HETATM   36  C16 UNL     1      -3.146  18.107  13.445  1.00  0.00     0.123 A 
HETATM   37  N8  UNL     1      -2.239  18.105  12.468  1.00  0.00    -0.361 N 
ATOM     38  H8  UNL     1      -2.508  18.363  11.518  1.00  0.00     0.165 HD
BRANCH  28  39
HETATM   39  O3  UNL     1       2.280  17.349  11.145  1.00  0.00    -0.360 OA
ATOM     40  H3  UNL     1       2.001  17.347  10.237  1.00  0.00     0.217 HD
ENDBRANCH  28  39
BRANCH  34  41
HETATM   41  C15 UNL     1      -3.867  17.772  15.793  1.00  0.00     0.284 C 
HETATM   42  O4  UNL     1      -4.575  16.780  16.004  1.00  0.00    -0.265 OA
HETATM   43  N7  UNL     1      -4.049  18.934  16.584  1.00  0.00    -0.230 N 
ATOM     44  H7  UNL     1      -3.462  19.750  16.406  1.00  0.00     0.184 HD
BRANCH  43  45
HETATM   45  S1  UNL     1      -5.233  19.015  17.843  1.00  0.00     0.211 S 
HETATM   46  O5  UNL     1      -5.308  20.394  18.431  1.00  0.00    -0.578 OA
HETATM   47  O6  UNL     1      -4.861  18.059  18.959  1.00  0.00    -0.578 OA
HETATM   48  O7  UNL     1      -6.739  18.528  17.285  1.00  0.00    -0.578 OA
ENDBRANCH  43  45
ENDBRANCH  34  41
ENDBRANCH   1  27
TORSDOF 10
ENDMDL
