MODEL 1
REMARK VINA RESULT: -7.712595758      0.000      0.000
REMARK  9 active torsions:
REMARK  status: ('A' for Active; 'I' for Inactive)
REMARK    1  A    between atoms: C3_4  and  C4_5 
REMARK       I    between atoms: C4_5  and  N2_7 
REMARK    2  A    between atoms: N2_7  and  C5_9 
REMARK    3  A    between atoms: C5_9  and  C6_10 
REMARK    4  A    between atoms: C5_9  and  C7_13 
REMARK    5  A    between atoms: C7_13  and  N4_14 
REMARK    6  A    between atoms: C7_13  and  C8_18 
REMARK    7  A    between atoms: C13_28  and  N7_29 
REMARK    8  A    between atoms: N7_29  and  C14_31 
REMARK    9  A    between atoms: N10_45  and  N11_47 
REMARK       I    between atoms: N11_47  and  C23_49 
ROOT
HETATM    1  C1  UNL     1      -5.608  18.642  10.703  1.00  0.00     0.175 C 
HETATM    2  N1  UNL     1      -4.296  18.686  11.303  1.00  0.00    -0.196 N 
HETATM    3  C2  UNL     1      -3.182  18.973  10.541  1.00  0.00     0.144 A 
HETATM    4  C3  UNL     1      -2.106  18.949  11.376  1.00  0.00     0.132 A 
HETATM    5  N6  UNL     1      -2.568  18.655  12.588  1.00  0.00    -0.185 N 
ATOM      6  H6  UNL     1      -1.987  18.567  13.421  1.00  0.00     0.184 HD
HETATM    7  C13 UNL     1      -3.934  18.485  12.572  1.00  0.00     0.681 A 
ENDROOT
BRANCH   7   8
HETATM    8  N7  UNL     1      -4.653  18.156  13.741  1.00  0.00    -0.215 N 
ATOM      9  H7  UNL     1      -5.042  17.214  13.750  1.00  0.00     0.178 HD
BRANCH   8  10
HETATM   10  C14 UNL     1      -4.924  18.917  14.904  1.00  0.00     0.156 C 
HETATM   11  C15 UNL     1      -4.293  20.302  14.816  1.00  0.00     0.060 C 
HETATM   12  C16 UNL     1      -5.177  21.447  14.618  1.00  0.00    -0.008 C 
HETATM   13  C17 UNL     1      -6.152  21.901  15.602  1.00  0.00     0.079 C 
HETATM   14  N8  UNL     1      -5.835  22.452  16.826  1.00  0.00    -0.393 N 
HETATM   15  C18 UNL     1      -6.470  22.038  18.038  1.00  0.00     0.184 C 
ATOM     16  H8  UNL     1      -5.122  23.181  16.868  1.00  0.00     0.159 HD
HETATM   17  C19 UNL     1      -6.108  20.584  18.335  1.00  0.00     0.069 A 
HETATM   18  N9  UNL     1      -5.520  19.936  17.379  1.00  0.00    -0.350 N 
HETATM   19  S1  UNL     1      -6.173  19.379  19.522  1.00  0.00    -0.085 SA
HETATM   20  C20 UNL     1      -5.139  18.699  17.454  1.00  0.00     0.065 A 
ATOM     21  H9  UNL     1      -5.344  20.434  16.506  1.00  0.00     0.166 HD
HETATM   22  C21 UNL     1      -5.402  18.086  18.648  1.00  0.00     0.083 A 
HETATM   23  C22 UNL     1      -4.466  18.239  16.151  1.00  0.00     0.076 C 
HETATM   24  N10 UNL     1      -3.573  17.379  16.312  1.00  0.00    -0.296 N 
ATOM     25  H10 UNL     1      -3.439  17.055  17.270  1.00  0.00     0.187 HD
BRANCH  24  26
HETATM   26  N11 UNL     1      -2.749  16.813  15.372  1.00  0.00    -0.243 N 
HETATM   27  C23 UNL     1      -1.493  17.398  14.987  1.00  0.00     0.303 C 
HETATM   28  O3  UNL     1      -1.082  18.469  15.498  1.00  0.00    -0.628 OA
HETATM   29  O4  UNL     1      -0.714  16.773  14.034  1.00  0.00    -0.628 OA
ATOM     30  H11 UNL     1      -3.039  15.942  14.927  1.00  0.00     0.193 HD
ENDBRANCH  24  26
ENDBRANCH   8  10
ENDBRANCH   7   8
BRANCH   4  31
HETATM   31  C4  UNL     1      -0.700  19.182  11.067  1.00  0.00     0.270 C 
HETATM   32  O1  UNL     1      -0.336  19.130   9.866  1.00  0.00    -0.266 OA
HETATM   33  N2  UNL     1       0.243  19.463  12.102  1.00  0.00    -0.341 N 
ATOM     34  H2  UNL     1      -0.083  19.499  13.068  1.00  0.00     0.163 HD
BRANCH  33  35
HETATM   35  C5  UNL     1       1.645  19.699  11.828  1.00  0.00     0.204 C 
BRANCH  35  36
HETATM   36  C6  UNL     1       2.473  18.655  12.428  1.00  0.00     0.256 C 
HETATM   37  N3  UNL     1       3.635  18.129  11.812  1.00  0.00    -0.060 NA
HETATM   38  O2  UNL     1       2.170  18.167  13.555  1.00  0.00    -0.275 OA
ENDBRANCH  35  36
BRANCH  35  39
HETATM   39  C7  UNL     1       2.042  21.119  12.031  1.00  0.00     0.219 C 
BRANCH  39  40
HETATM   40  N4  UNL     1       3.031  21.211  13.140  1.00  0.00    -0.072 N 
ATOM     41  H43 UNL     1       2.813  21.967  13.788  1.00  0.00     0.274 HD
ATOM     42  H42 UNL     1       2.950  20.430  13.791  1.00  0.00     0.274 HD
ATOM     43  H41 UNL     1       3.972  21.295  12.755  1.00  0.00     0.274 HD
ENDBRANCH  39  40
BRANCH  39  44
HETATM   44  C8  UNL     1       2.641  21.829  10.845  1.00  0.00     0.022 C 
HETATM   45  C9  UNL     1       2.869  23.275  11.323  1.00  0.00     0.034 C 
HETATM   46  C10 UNL     1       3.360  24.138  10.195  1.00  0.00     0.232 C 
HETATM   47  N5  UNL     1       2.330  24.180   9.178  1.00  0.00    -0.075 N 
HETATM   48  C11 UNL     1       2.238  22.851   8.604  1.00  0.00     0.232 C 
ATOM     49  H52 UNL     1       1.437  24.525   9.528  1.00  0.00     0.277 HD
ATOM     50  H51 UNL     1       2.488  24.907   8.480  1.00  0.00     0.277 HD
HETATM   51  C12 UNL     1       1.732  21.848   9.643  1.00  0.00     0.034 C 
ENDBRANCH  39  44
ENDBRANCH  35  39
ENDBRANCH  33  35
ENDBRANCH   4  31
TORSDOF 9
ENDMDL
MODEL 2
REMARK VINA RESULT: -7.682368106      5.072      8.027
REMARK  9 active torsions:
REMARK  status: ('A' for Active; 'I' for Inactive)
REMARK    1  A    between atoms: C3_4  and  C4_5 
REMARK       I    between atoms: C4_5  and  N2_7 
REMARK    2  A    between atoms: N2_7  and  C5_9 
REMARK    3  A    between atoms: C5_9  and  C6_10 
REMARK    4  A    between atoms: C5_9  and  C7_13 
REMARK    5  A    between atoms: C7_13  and  N4_14 
REMARK    6  A    between atoms: C7_13  and  C8_18 
REMARK    7  A    between atoms: C13_28  and  N7_29 
REMARK    8  A    between atoms: N7_29  and  C14_31 
REMARK    9  A    between atoms: N10_45  and  N11_47 
REMARK       I    between atoms: N11_47  and  C23_49 
ROOT
HETATM    1  C1  UNL     1      -4.341  16.375  11.996  1.00  0.00     0.175 C 
HETATM    2  N1  UNL     1      -3.247  17.226  11.594  1.00  0.00    -0.196 N 
HETATM    3  C2  UNL     1      -2.824  18.259  12.406  1.00  0.00     0.144 A 
HETATM    4  C3  UNL     1      -1.785  18.870  11.769  1.00  0.00     0.132 A 
HETATM    5  N6  UNL     1      -1.603  18.222  10.623  1.00  0.00    -0.185 N 
ATOM      6  H6  UNL     1      -0.890  18.459   9.934  1.00  0.00     0.184 HD
HETATM    7  C13 UNL     1      -2.503  17.190  10.486  1.00  0.00     0.681 A 
ENDROOT
BRANCH   7   8
HETATM    8  N7  UNL     1      -2.513  16.361   9.343  1.00  0.00    -0.215 N 
ATOM      9  H7  UNL     1      -3.207  16.615   8.641  1.00  0.00     0.178 HD
BRANCH   8  10
HETATM   10  C14 UNL     1      -1.720  15.238   9.010  1.00  0.00     0.156 C 
HETATM   11  C15 UNL     1      -0.878  15.506   7.767  1.00  0.00     0.060 C 
HETATM   12  C16 UNL     1       0.561  15.686   7.939  1.00  0.00    -0.008 C 
HETATM   13  C17 UNL     1       1.465  14.633   8.383  1.00  0.00     0.079 C 
HETATM   14  N8  UNL     1       1.770  13.501   7.657  1.00  0.00    -0.393 N 
HETATM   15  C18 UNL     1       1.758  12.194   8.237  1.00  0.00     0.184 C 
ATOM     16  H8  UNL     1       2.012  13.599   6.671  1.00  0.00     0.159 HD
HETATM   17  C19 UNL     1       0.333  11.830   8.651  1.00  0.00     0.069 A 
HETATM   18  N9  UNL     1      -0.531  12.795   8.630  1.00  0.00    -0.350 N 
HETATM   19  S1  UNL     1      -0.651  10.554   9.169  1.00  0.00    -0.085 SA
HETATM   20  C20 UNL     1      -1.782  12.671   8.946  1.00  0.00     0.065 A 
ATOM     21  H9  UNL     1      -0.204  13.719   8.344  1.00  0.00     0.166 HD
HETATM   22  C21 UNL     1      -2.160  11.410   9.320  1.00  0.00     0.083 A 
HETATM   23  C22 UNL     1      -2.533  14.005   8.804  1.00  0.00     0.076 C 
HETATM   24  N10 UNL     1      -3.735  13.883   8.480  1.00  0.00    -0.296 N 
ATOM     25  H10 UNL     1      -4.077  12.925   8.402  1.00  0.00     0.187 HD
BRANCH  24  26
HETATM   26  N11 UNL     1      -4.654  14.867   8.215  1.00  0.00    -0.243 N 
HETATM   27  C23 UNL     1      -4.863  15.401   6.896  1.00  0.00     0.303 C 
HETATM   28  O3  UNL     1      -4.206  14.987   5.908  1.00  0.00    -0.628 OA
HETATM   29  O4  UNL     1      -5.805  16.390   6.702  1.00  0.00    -0.628 OA
ATOM     30  H11 UNL     1      -5.212  15.236   8.986  1.00  0.00     0.193 HD
ENDBRANCH  24  26
ENDBRANCH   8  10
ENDBRANCH   7   8
BRANCH   4  31
HETATM   31  C4  UNL     1      -0.992  20.015  12.201  1.00  0.00     0.270 C 
HETATM   32  O1  UNL     1       0.198  19.819  12.552  1.00  0.00    -0.266 OA
HETATM   33  N2  UNL     1      -1.551  21.329  12.227  1.00  0.00    -0.341 N 
ATOM     34  H2  UNL     1      -2.520  21.456  11.936  1.00  0.00     0.163 HD
BRANCH  33  35
HETATM   35  C5  UNL     1      -0.790  22.485  12.651  1.00  0.00     0.204 C 
BRANCH  35  36
HETATM   36  C6  UNL     1      -1.405  23.110  13.820  1.00  0.00     0.256 C 
HETATM   37  N3  UNL     1      -0.696  23.928  14.734  1.00  0.00    -0.060 NA
HETATM   38  O2  UNL     1      -2.634  22.936  14.067  1.00  0.00    -0.275 OA
ENDBRANCH  35  36
BRANCH  35  39
HETATM   39  C7  UNL     1      -0.384  23.358  11.516  1.00  0.00     0.219 C 
BRANCH  39  40
HETATM   40  N4  UNL     1      -0.223  24.759  11.991  1.00  0.00    -0.072 N 
ATOM     41  H43 UNL     1       0.671  24.905  12.461  1.00  0.00     0.274 HD
ATOM     42  H42 UNL     1      -0.092  25.414  11.220  1.00  0.00     0.274 HD
ATOM     43  H41 UNL     1      -1.013  25.015  12.583  1.00  0.00     0.274 HD
ENDBRANCH  39  40
BRANCH  39  44
HETATM   44  C8  UNL     1       0.887  22.985  10.798  1.00  0.00     0.022 C 
HETATM   45  C9  UNL     1       1.900  22.687  11.918  1.00  0.00     0.034 C 
HETATM   46  C10 UNL     1       3.262  22.411  11.346  1.00  0.00     0.232 C 
HETATM   47  N5  UNL     1       3.715  23.606  10.664  1.00  0.00    -0.075 N 
HETATM   48  C11 UNL     1       2.864  23.788   9.503  1.00  0.00     0.232 C 
ATOM     49  H52 UNL     1       3.743  24.425  11.270  1.00  0.00     0.277 HD
ATOM     50  H51 UNL     1       4.708  23.580  10.431  1.00  0.00     0.277 HD
HETATM   51  C12 UNL     1       1.427  24.093   9.931  1.00  0.00     0.034 C 
ENDBRANCH  39  44
ENDBRANCH  35  39
ENDBRANCH  33  35
ENDBRANCH   4  31
TORSDOF 9
ENDMDL
MODEL 3
REMARK VINA RESULT: -7.562180367      2.347      3.138
REMARK  9 active torsions:
REMARK  status: ('A' for Active; 'I' for Inactive)
REMARK    1  A    between atoms: C3_4  and  C4_5 
REMARK       I    between atoms: C4_5  and  N2_7 
REMARK    2  A    between atoms: N2_7  and  C5_9 
REMARK    3  A    between atoms: C5_9  and  C6_10 
REMARK    4  A    between atoms: C5_9  and  C7_13 
REMARK    5  A    between atoms: C7_13  and  N4_14 
REMARK    6  A    between atoms: C7_13  and  C8_18 
REMARK    7  A    between atoms: C13_28  and  N7_29 
REMARK    8  A    between atoms: N7_29  and  C14_31 
REMARK    9  A    between atoms: N10_45  and  N11_47 
REMARK       I    between atoms: N11_47  and  C23_49 
ROOT
HETATM    1  C1  UNL     1      -5.126  16.739  11.255  1.00  0.00     0.175 C 
HETATM    2  N1  UNL     1      -4.033  17.600  11.637  1.00  0.00    -0.196 N 
HETATM    3  C2  UNL     1      -2.860  17.615  10.908  1.00  0.00     0.144 A 
HETATM    4  C3  UNL     1      -2.030  18.519  11.500  1.00  0.00     0.132 A 
HETATM    5  N6  UNL     1      -2.688  19.018  12.542  1.00  0.00    -0.185 N 
ATOM      6  H6  UNL     1      -2.313  19.722  13.177  1.00  0.00     0.184 HD
HETATM    7  C13 UNL     1      -3.942  18.462  12.652  1.00  0.00     0.681 A 
ENDROOT
BRANCH   7   8
HETATM    8  N7  UNL     1      -4.826  18.827  13.690  1.00  0.00    -0.215 N 
ATOM      9  H7  UNL     1      -4.625  18.395  14.592  1.00  0.00     0.178 HD
BRANCH   8  10
HETATM   10  C14 UNL     1      -5.946  19.693  13.688  1.00  0.00     0.156 C 
HETATM   11  C15 UNL     1      -6.233  20.220  12.286  1.00  0.00     0.060 C 
HETATM   12  C16 UNL     1      -7.413  19.711  11.591  1.00  0.00    -0.008 C 
HETATM   13  C17 UNL     1      -8.782  19.966  12.020  1.00  0.00     0.079 C 
HETATM   14  N8  UNL     1      -9.395  21.201  11.999  1.00  0.00    -0.393 N 
HETATM   15  C18 UNL     1     -10.139  21.704  13.112  1.00  0.00     0.184 C 
ATOM     16  H8  UNL     1      -9.315  21.776  11.161  1.00  0.00     0.159 HD
HETATM   17  C19 UNL     1      -9.200  21.929  14.296  1.00  0.00     0.069 A 
HETATM   18  N9  UNL     1      -8.008  21.433  14.181  1.00  0.00    -0.350 N 
HETATM   19  S1  UNL     1      -9.087  22.633  15.831  1.00  0.00    -0.085 SA
HETATM   20  C20 UNL     1      -7.081  21.528  15.082  1.00  0.00     0.065 A 
ATOM     21  H9  UNL     1      -7.784  20.932  13.321  1.00  0.00     0.166 HD
HETATM   22  C21 UNL     1      -7.442  22.210  16.211  1.00  0.00     0.083 A 
HETATM   23  C22 UNL     1      -5.783  20.840  14.627  1.00  0.00     0.076 C 
HETATM   24  N10 UNL     1      -4.741  21.370  15.070  1.00  0.00    -0.296 N 
ATOM     25  H10 UNL     1      -4.881  22.151  15.712  1.00  0.00     0.187 HD
BRANCH  24  26
HETATM   26  N11 UNL     1      -3.435  21.041  14.808  1.00  0.00    -0.243 N 
HETATM   27  C23 UNL     1      -2.531  21.930  14.130  1.00  0.00     0.303 C 
HETATM   28  O3  UNL     1      -2.896  23.067  13.740  1.00  0.00    -0.628 OA
HETATM   29  O4  UNL     1      -1.229  21.534  13.900  1.00  0.00    -0.628 OA
ATOM     30  H11 UNL     1      -3.091  20.128  15.106  1.00  0.00     0.193 HD
ENDBRANCH  24  26
ENDBRANCH   8  10
ENDBRANCH   7   8
BRANCH   4  31
HETATM   31  C4  UNL     1      -0.677  18.905  11.121  1.00  0.00     0.270 C 
HETATM   32  O1  UNL     1      -0.331  18.770   9.921  1.00  0.00    -0.266 OA
HETATM   33  N2  UNL     1       0.237  19.424  12.087  1.00  0.00    -0.341 N 
ATOM     34  H2  UNL     1      -0.073  19.523  13.054  1.00  0.00     0.163 HD
BRANCH  33  35
HETATM   35  C5  UNL     1       1.588  19.816  11.743  1.00  0.00     0.204 C 
BRANCH  35  36
HETATM   36  C6  UNL     1       2.562  18.928  12.375  1.00  0.00     0.256 C 
HETATM   37  N3  UNL     1       3.851  18.677  11.843  1.00  0.00    -0.060 NA
HETATM   38  O2  UNL     1       2.278  18.330  13.453  1.00  0.00    -0.275 OA
ENDBRANCH  35  36
BRANCH  35  39
HETATM   39  C7  UNL     1       1.807  21.285  11.841  1.00  0.00     0.219 C 
BRANCH  39  40
HETATM   40  N4  UNL     1       2.569  21.599  13.079  1.00  0.00    -0.072 N 
ATOM     41  H43 UNL     1       2.645  20.792  13.699  1.00  0.00     0.274 HD
ATOM     42  H42 UNL     1       3.563  21.736  12.894  1.00  0.00     0.274 HD
ATOM     43  H41 UNL     1       2.151  22.403  13.547  1.00  0.00     0.274 HD
ENDBRANCH  39  40
BRANCH  39  44
HETATM   44  C8  UNL     1       2.536  21.937  10.694  1.00  0.00     0.022 C 
HETATM   45  C9  UNL     1       2.800  23.379  11.163  1.00  0.00     0.034 C 
HETATM   46  C10 UNL     1       3.426  24.191  10.064  1.00  0.00     0.232 C 
HETATM   47  N5  UNL     1       2.485  24.261   8.964  1.00  0.00    -0.075 N 
HETATM   48  C11 UNL     1       2.371  22.926   8.409  1.00  0.00     0.232 C 
ATOM     49  H52 UNL     1       1.587  24.660   9.233  1.00  0.00     0.277 HD
ATOM     50  H51 UNL     1       2.738  24.963   8.268  1.00  0.00     0.277 HD
HETATM   51  C12 UNL     1       1.731  21.974   9.421  1.00  0.00     0.034 C 
ENDBRANCH  39  44
ENDBRANCH  35  39
ENDBRANCH  33  35
ENDBRANCH   4  31
TORSDOF 9
ENDMDL
MODEL 4
REMARK VINA RESULT: -7.399469660      2.284      2.783
REMARK  9 active torsions:
REMARK  status: ('A' for Active; 'I' for Inactive)
REMARK    1  A    between atoms: C3_4  and  C4_5 
REMARK       I    between atoms: C4_5  and  N2_7 
REMARK    2  A    between atoms: N2_7  and  C5_9 
REMARK    3  A    between atoms: C5_9  and  C6_10 
REMARK    4  A    between atoms: C5_9  and  C7_13 
REMARK    5  A    between atoms: C7_13  and  N4_14 
REMARK    6  A    between atoms: C7_13  and  C8_18 
REMARK    7  A    between atoms: C13_28  and  N7_29 
REMARK    8  A    between atoms: N7_29  and  C14_31 
REMARK    9  A    between atoms: N10_45  and  N11_47 
REMARK       I    between atoms: N11_47  and  C23_49 
ROOT
HETATM    1  C1  UNL     1      -6.015  19.130   9.827  1.00  0.00     0.175 C 
HETATM    2  N1  UNL     1      -4.781  19.609  10.402  1.00  0.00    -0.196 N 
HETATM    3  C2  UNL     1      -3.563  19.217   9.882  1.00  0.00     0.144 A 
HETATM    4  C3  UNL     1      -2.595  19.830  10.619  1.00  0.00     0.132 A 
HETATM    5  N6  UNL     1      -3.218  20.556  11.542  1.00  0.00    -0.185 N 
ATOM      6  H6  UNL     1      -2.745  21.127  12.242  1.00  0.00     0.184 HD
HETATM    7  C13 UNL     1      -4.585  20.437  11.430  1.00  0.00     0.681 A 
ENDROOT
BRANCH   7   8
HETATM    8  N7  UNL     1      -5.462  21.109  12.309  1.00  0.00    -0.215 N 
ATOM      9  H7  UNL     1      -5.519  22.117  12.164  1.00  0.00     0.178 HD
BRANCH   8  10
HETATM   10  C14 UNL     1      -6.275  20.617  13.358  1.00  0.00     0.156 C 
HETATM   11  C15 UNL     1      -7.520  21.479  13.542  1.00  0.00     0.060 C 
HETATM   12  C16 UNL     1      -8.805  20.923  13.126  1.00  0.00    -0.008 C 
HETATM   13  C17 UNL     1      -9.441  19.780  13.767  1.00  0.00     0.079 C 
HETATM   14  N8  UNL     1      -9.942  19.777  15.052  1.00  0.00    -0.393 N 
HETATM   15  C18 UNL     1      -9.667  18.722  15.977  1.00  0.00     0.184 C 
ATOM     16  H8  UNL     1     -10.528  20.556  15.354  1.00  0.00     0.159 HD
HETATM   17  C19 UNL     1      -8.175  18.706  16.306  1.00  0.00     0.069 A 
HETATM   18  N9  UNL     1      -7.418  19.446  15.559  1.00  0.00    -0.350 N 
HETATM   19  S1  UNL     1      -7.017  18.049  17.352  1.00  0.00    -0.085 SA
HETATM   20  C20 UNL     1      -6.133  19.557  15.693  1.00  0.00     0.065 A 
ATOM     21  H9  UNL     1      -7.864  19.979  14.812  1.00  0.00     0.166 HD
HETATM   22  C21 UNL     1      -5.593  18.818  16.710  1.00  0.00     0.083 A 
HETATM   23  C22 UNL     1      -5.540  20.521  14.653  1.00  0.00     0.076 C 
HETATM   24  N10 UNL     1      -4.534  21.147  15.051  1.00  0.00    -0.296 N 
ATOM     25  H10 UNL     1      -4.203  20.905  15.985  1.00  0.00     0.187 HD
BRANCH  24  26
HETATM   26  N11 UNL     1      -3.814  22.116  14.397  1.00  0.00    -0.243 N 
HETATM   27  C23 UNL     1      -2.440  21.938  14.015  1.00  0.00     0.303 C 
HETATM   28  O3  UNL     1      -1.821  20.874  14.263  1.00  0.00    -0.628 OA
HETATM   29  O4  UNL     1      -1.777  22.956  13.358  1.00  0.00    -0.628 OA
ATOM     30  H11 UNL     1      -4.274  22.999  14.173  1.00  0.00     0.193 HD
ENDBRANCH  24  26
ENDBRANCH   8  10
ENDBRANCH   7   8
BRANCH   4  31
HETATM   31  C4  UNL     1      -1.146  19.744  10.480  1.00  0.00     0.270 C 
HETATM   32  O1  UNL     1      -0.671  19.413   9.366  1.00  0.00    -0.266 OA
HETATM   33  N2  UNL     1      -0.285  20.029  11.583  1.00  0.00    -0.341 N 
ATOM     34  H2  UNL     1      -0.700  20.295  12.476  1.00  0.00     0.163 HD
BRANCH  33  35
HETATM   35  C5  UNL     1       1.158  19.952  11.478  1.00  0.00     0.204 C 
BRANCH  35  36
HETATM   36  C6  UNL     1       1.656  18.718  12.081  1.00  0.00     0.256 C 
HETATM   37  N3  UNL     1       2.700  17.941  11.521  1.00  0.00    -0.060 NA
HETATM   38  O2  UNL     1       1.155  18.284  13.158  1.00  0.00    -0.275 OA
ENDBRANCH  35  36
BRANCH  35  39
HETATM   39  C7  UNL     1       1.831  21.232  11.831  1.00  0.00     0.219 C 
BRANCH  39  40
HETATM   40  N4  UNL     1       2.813  20.998  12.925  1.00  0.00    -0.072 N 
ATOM     41  H43 UNL     1       2.418  20.441  13.683  1.00  0.00     0.274 HD
ATOM     42  H42 UNL     1       3.556  20.358  12.644  1.00  0.00     0.274 HD
ATOM     43  H41 UNL     1       3.178  21.891  13.256  1.00  0.00     0.274 HD
ENDBRANCH  39  40
BRANCH  39  44
HETATM   44  C8  UNL     1       2.567  21.936  10.720  1.00  0.00     0.022 C 
HETATM   45  C9  UNL     1       2.799  23.365  11.244  1.00  0.00     0.034 C 
HETATM   46  C10 UNL     1       3.427  24.226  10.185  1.00  0.00     0.232 C 
HETATM   47  N5  UNL     1       2.502  24.321   9.074  1.00  0.00    -0.075 N 
HETATM   48  C11 UNL     1       2.418  23.005   8.470  1.00  0.00     0.232 C 
ATOM     49  H52 UNL     1       1.592  24.694   9.344  1.00  0.00     0.277 HD
ATOM     50  H51 UNL     1       2.752  25.051   8.408  1.00  0.00     0.277 HD
HETATM   51  C12 UNL     1       1.779  22.007   9.437  1.00  0.00     0.034 C 
ENDBRANCH  39  44
ENDBRANCH  35  39
ENDBRANCH  33  35
ENDBRANCH   4  31
TORSDOF 9
ENDMDL
MODEL 5
REMARK VINA RESULT: -7.390586714      2.445      3.821
REMARK  9 active torsions:
REMARK  status: ('A' for Active; 'I' for Inactive)
REMARK    1  A    between atoms: C3_4  and  C4_5 
REMARK       I    between atoms: C4_5  and  N2_7 
REMARK    2  A    between atoms: N2_7  and  C5_9 
REMARK    3  A    between atoms: C5_9  and  C6_10 
REMARK    4  A    between atoms: C5_9  and  C7_13 
REMARK    5  A    between atoms: C7_13  and  N4_14 
REMARK    6  A    between atoms: C7_13  and  C8_18 
REMARK    7  A    between atoms: C13_28  and  N7_29 
REMARK    8  A    between atoms: N7_29  and  C14_31 
REMARK    9  A    between atoms: N10_45  and  N11_47 
REMARK       I    between atoms: N11_47  and  C23_49 
ROOT
HETATM    1  C1  UNL     1      -5.160  21.933  14.533  1.00  0.00     0.175 C 
HETATM    2  N1  UNL     1      -3.838  21.505  14.144  1.00  0.00    -0.196 N 
HETATM    3  C2  UNL     1      -3.149  22.165  13.146  1.00  0.00     0.144 A 
HETATM    4  C3  UNL     1      -1.944  21.543  13.011  1.00  0.00     0.132 A 
HETATM    5  N6  UNL     1      -1.923  20.550  13.896  1.00  0.00    -0.185 N 
ATOM      6  H6  UNL     1      -1.142  19.908  14.023  1.00  0.00     0.184 HD
HETATM    7  C13 UNL     1      -3.094  20.503  14.617  1.00  0.00     0.681 A 
ENDROOT
BRANCH   7   8
HETATM    8  N7  UNL     1      -3.312  19.525  15.612  1.00  0.00    -0.215 N 
ATOM      9  H7  UNL     1      -2.483  19.272  16.149  1.00  0.00     0.178 HD
BRANCH   8  10
HETATM   10  C14 UNL     1      -4.490  18.836  15.988  1.00  0.00     0.156 C 
HETATM   11  C15 UNL     1      -4.825  19.075  17.456  1.00  0.00     0.060 C 
HETATM   12  C16 UNL     1      -5.971  19.925  17.768  1.00  0.00    -0.008 C 
HETATM   13  C17 UNL     1      -7.351  19.574  17.460  1.00  0.00     0.079 C 
HETATM   14  N8  UNL     1      -8.051  18.543  18.052  1.00  0.00    -0.393 N 
HETATM   15  C18 UNL     1      -8.820  17.606  17.293  1.00  0.00     0.184 C 
ATOM     16  H8  UNL     1      -8.018  18.445  19.067  1.00  0.00     0.159 HD
HETATM   17  C19 UNL     1      -7.889  16.780  16.406  1.00  0.00     0.069 A 
HETATM   18  N9  UNL     1      -6.666  17.199  16.315  1.00  0.00    -0.350 N 
HETATM   19  S1  UNL     1      -7.815  15.413  15.410  1.00  0.00    -0.085 SA
HETATM   20  C20 UNL     1      -5.741  16.624  15.612  1.00  0.00     0.065 A 
ATOM     21  H9  UNL     1      -6.414  18.041  16.834  1.00  0.00     0.166 HD
HETATM   22  C21 UNL     1      -6.141  15.501  14.941  1.00  0.00     0.083 A 
HETATM   23  C22 UNL     1      -4.401  17.369  15.730  1.00  0.00     0.076 C 
HETATM   24  N10 UNL     1      -3.396  16.631  15.643  1.00  0.00    -0.296 N 
ATOM     25  H10 UNL     1      -3.586  15.647  15.455  1.00  0.00     0.187 HD
BRANCH  24  26
HETATM   26  N11 UNL     1      -2.072  16.970  15.766  1.00  0.00    -0.243 N 
HETATM   27  C23 UNL     1      -1.152  16.924  14.662  1.00  0.00     0.303 C 
HETATM   28  O3  UNL     1      -1.519  16.567  13.515  1.00  0.00    -0.628 OA
HETATM   29  O4  UNL     1       0.167  17.280  14.858  1.00  0.00    -0.628 OA
ATOM     30  H11 UNL     1      -1.726  17.267  16.679  1.00  0.00     0.193 HD
ENDBRANCH  24  26
ENDBRANCH   8  10
ENDBRANCH   7   8
BRANCH   4  31
HETATM   31  C4  UNL     1      -0.852  21.850  12.095  1.00  0.00     0.270 C 
HETATM   32  O1  UNL     1      -0.538  23.053  11.922  1.00  0.00    -0.266 OA
HETATM   33  N2  UNL     1      -0.155  20.810  11.408  1.00  0.00    -0.341 N 
ATOM     34  H2  UNL     1      -0.433  19.842  11.569  1.00  0.00     0.163 HD
BRANCH  33  35
HETATM   35  C5  UNL     1       0.933  21.082  10.492  1.00  0.00     0.204 C 
BRANCH  35  36
HETATM   36  C6  UNL     1       0.725  20.390   9.221  1.00  0.00     0.256 C 
HETATM   37  N3  UNL     1      -0.011  19.186   9.098  1.00  0.00    -0.060 NA
HETATM   38  O2  UNL     1       1.214  20.856   8.151  1.00  0.00    -0.275 OA
ENDBRANCH  35  36
BRANCH  35  39
HETATM   39  C7  UNL     1       2.271  20.984  11.138  1.00  0.00     0.219 C 
BRANCH  39  40
HETATM   40  N4  UNL     1       2.645  22.302  11.720  1.00  0.00    -0.072 N 
ATOM     41  H43 UNL     1       2.108  23.068  11.313  1.00  0.00     0.274 HD
ATOM     42  H42 UNL     1       2.329  22.398  12.685  1.00  0.00     0.274 HD
ATOM     43  H41 UNL     1       3.650  22.447  11.627  1.00  0.00     0.274 HD
ENDBRANCH  39  40
BRANCH  39  44
HETATM   44  C8  UNL     1       2.419  19.959  12.232  1.00  0.00     0.022 C 
HETATM   45  C9  UNL     1       3.719  20.345  12.961  1.00  0.00     0.034 C 
HETATM   46  C10 UNL     1       4.060  19.330  14.016  1.00  0.00     0.232 C 
HETATM   47  N5  UNL     1       4.295  18.060  13.360  1.00  0.00    -0.075 N 
HETATM   48  C11 UNL     1       3.025  17.612  12.822  1.00  0.00     0.232 C 
ATOM     49  H52 UNL     1       5.033  18.105  12.658  1.00  0.00     0.277 HD
ATOM     50  H51 UNL     1       4.736  17.372  13.971  1.00  0.00     0.277 HD
HETATM   51  C12 UNL     1       2.548  18.550  11.712  1.00  0.00     0.034 C 
ENDBRANCH  39  44
ENDBRANCH  35  39
ENDBRANCH  33  35
ENDBRANCH   4  31
TORSDOF 9
ENDMDL
