MODEL 1
REMARK VINA RESULT: -7.249870123      0.000      0.000
REMARK  5 active torsions:
REMARK  status: ('A' for Active; 'I' for Inactive)
REMARK    1  A    between atoms: C3_3  and  C4_4 
REMARK    2  A    between atoms: C4_4  and  N1_5 
REMARK       I    between atoms: C5_7  and  N3_9 
REMARK    3  A    between atoms: N3_9  and  N4_11 
REMARK       I    between atoms: N4_11  and  C6_13 
REMARK       I    between atoms: C6_13  and  N6_19 
REMARK    4  A    between atoms: N5_14  and  C7_16 
REMARK    5  A    between atoms: N6_19  and  N7_21 
ROOT
HETATM    1  C1  UNL     1      28.824  13.715 -10.054  1.00  0.00     0.097 C 
HETATM    2  C2  UNL     1      29.482  14.711  -9.789  1.00  0.00    -0.186 C 
HETATM    3  C3  UNL     1      30.272  15.898  -9.466  1.00  0.00     0.099 C 
ENDROOT
BRANCH   3   4
HETATM    4  C4  UNL     1      31.093  15.634  -8.214  1.00  0.00     0.133 C 
BRANCH   4   5
HETATM    5  N1  UNL     1      32.156  14.701  -8.431  1.00  0.00    -0.363 N 
HETATM    6  C5  UNL     1      32.109  13.479  -8.034  1.00  0.00     0.203 C 
HETATM    7  N2  UNL     1      30.980  12.956  -7.335  1.00  0.00    -0.062 NA
HETATM    8  N3  UNL     1      33.214  12.620  -8.294  1.00  0.00    -0.259 N 
ATOM      9  H3  UNL     1      33.304  12.116  -9.176  1.00  0.00     0.190 HD
ATOM     10  H1  UNL     1      32.990  15.020  -8.925  1.00  0.00     0.162 HD
BRANCH   8  11
HETATM   11  N4  UNL     1      34.170  12.500  -7.281  1.00  0.00    -0.128 N 
HETATM   12  C6  UNL     1      33.983  11.636  -6.149  1.00  0.00     0.712 C 
HETATM   13  N5  UNL     1      32.817  11.142  -5.987  1.00  0.00    -0.220 N 
HETATM   14  N6  UNL     1      35.087  11.402  -5.314  1.00  0.00    -0.071 N 
ATOM     15  H5  UNL     1      32.093  11.388  -6.663  1.00  0.00     0.178 HD
ATOM     16  H6  UNL     1      35.396  10.450  -5.120  1.00  0.00     0.212 HD
ATOM     17  H4  UNL     1      35.029  13.045  -7.348  1.00  0.00     0.205 HD
BRANCH  13  18
HETATM   18  C7  UNL     1      32.465  10.254  -4.899  1.00  0.00     0.091 C 
HETATM   19  C8  UNL     1      33.082  10.673  -3.601  1.00  0.00     0.032 C 
HETATM   20  C9  UNL     1      30.969  10.167  -4.734  1.00  0.00     0.032 C 
ENDBRANCH  13  18
BRANCH  14  21
HETATM   21  N7  UNL     1      35.751  12.481  -4.757  1.00  0.00    -0.024 N 
HETATM   22  O1  UNL     1      35.196  13.618  -4.697  1.00  0.00    -0.516 OA
HETATM   23  O2  UNL     1      37.029  12.386  -4.249  1.00  0.00    -0.516 OA
ENDBRANCH  14  21
ENDBRANCH   8  11
ENDBRANCH   4   5
ENDBRANCH   3   4
TORSDOF 5
ENDMDL
MODEL 2
REMARK VINA RESULT: -7.117236843      4.781      7.707
REMARK  5 active torsions:
REMARK  status: ('A' for Active; 'I' for Inactive)
REMARK    1  A    between atoms: C3_3  and  C4_4 
REMARK    2  A    between atoms: C4_4  and  N1_5 
REMARK       I    between atoms: C5_7  and  N3_9 
REMARK    3  A    between atoms: N3_9  and  N4_11 
REMARK       I    between atoms: N4_11  and  C6_13 
REMARK       I    between atoms: C6_13  and  N6_19 
REMARK    4  A    between atoms: N5_14  and  C7_16 
REMARK    5  A    between atoms: N6_19  and  N7_21 
ROOT
HETATM    1  C1  UNL     1      33.653  10.472  -3.813  1.00  0.00     0.097 C 
HETATM    2  C2  UNL     1      32.715  10.713  -4.559  1.00  0.00    -0.186 C 
HETATM    3  C3  UNL     1      31.597  11.009  -5.455  1.00  0.00     0.099 C 
ENDROOT
BRANCH   3   4
HETATM    4  C4  UNL     1      31.870  12.311  -6.191  1.00  0.00     0.133 C 
BRANCH   4   5
HETATM    5  N1  UNL     1      31.468  12.269  -7.564  1.00  0.00    -0.363 N 
HETATM    6  C5  UNL     1      31.234  13.325  -8.258  1.00  0.00     0.203 C 
HETATM    7  N2  UNL     1      31.357  14.635  -7.705  1.00  0.00    -0.062 NA
HETATM    8  N3  UNL     1      30.839  13.189  -9.620  1.00  0.00    -0.259 N 
ATOM      9  H3  UNL     1      31.524  13.095 -10.369  1.00  0.00     0.190 HD
ATOM     10  H1  UNL     1      31.363  11.359  -8.012  1.00  0.00     0.162 HD
BRANCH   8  11
HETATM   11  N4  UNL     1      29.465  13.192  -9.879  1.00  0.00    -0.128 N 
HETATM   12  C6  UNL     1      28.866  12.322 -10.852  1.00  0.00     0.712 C 
HETATM   13  N5  UNL     1      29.660  11.696 -11.630  1.00  0.00    -0.220 N 
HETATM   14  N6  UNL     1      27.466  12.228 -10.873  1.00  0.00    -0.071 N 
ATOM     15  H5  UNL     1      30.663  11.848 -11.518  1.00  0.00     0.178 HD
ATOM     16  H6  UNL     1      27.008  11.321 -10.792  1.00  0.00     0.212 HD
ATOM     17  H4  UNL     1      28.867  13.835  -9.358  1.00  0.00     0.205 HD
BRANCH  13  18
HETATM   18  C7  UNL     1      29.219  10.783 -12.663  1.00  0.00     0.091 C 
HETATM   19  C8  UNL     1      30.008  10.929 -13.927  1.00  0.00     0.032 C 
HETATM   20  C9  UNL     1      29.295   9.353 -12.192  1.00  0.00     0.032 C 
ENDBRANCH  13  18
BRANCH  14  21
HETATM   21  N7  UNL     1      26.715  13.383 -11.006  1.00  0.00    -0.024 N 
HETATM   22  O1  UNL     1      27.251  14.521 -10.856  1.00  0.00    -0.516 OA
HETATM   23  O2  UNL     1      25.369  13.364 -11.299  1.00  0.00    -0.516 OA
ENDBRANCH  14  21
ENDBRANCH   8  11
ENDBRANCH   4   5
ENDBRANCH   3   4
TORSDOF 5
ENDMDL
MODEL 3
REMARK VINA RESULT: -7.088487912      1.214      1.799
REMARK  5 active torsions:
REMARK  status: ('A' for Active; 'I' for Inactive)
REMARK    1  A    between atoms: C3_3  and  C4_4 
REMARK    2  A    between atoms: C4_4  and  N1_5 
REMARK       I    between atoms: C5_7  and  N3_9 
REMARK    3  A    between atoms: N3_9  and  N4_11 
REMARK       I    between atoms: N4_11  and  C6_13 
REMARK       I    between atoms: C6_13  and  N6_19 
REMARK    4  A    between atoms: N5_14  and  C7_16 
REMARK    5  A    between atoms: N6_19  and  N7_21 
ROOT
HETATM    1  C1  UNL     1      27.185  11.950 -10.424  1.00  0.00     0.097 C 
HETATM    2  C2  UNL     1      28.028  12.830 -10.337  1.00  0.00    -0.186 C 
HETATM    3  C3  UNL     1      29.042  13.879 -10.233  1.00  0.00     0.099 C 
ENDROOT
BRANCH   3   4
HETATM    4  C4  UNL     1      30.411  13.241 -10.055  1.00  0.00     0.133 C 
BRANCH   4   5
HETATM    5  N1  UNL     1      30.897  13.332  -8.712  1.00  0.00    -0.363 N 
HETATM    6  C5  UNL     1      31.643  14.295  -8.300  1.00  0.00     0.203 C 
HETATM    7  N2  UNL     1      32.048  15.358  -9.163  1.00  0.00    -0.062 NA
HETATM    8  N3  UNL     1      32.081  14.305  -6.945  1.00  0.00    -0.259 N 
ATOM      9  H3  UNL     1      31.508  14.701  -6.200  1.00  0.00     0.190 HD
ATOM     10  H1  UNL     1      30.640  12.599  -8.051  1.00  0.00     0.162 HD
BRANCH   8  11
HETATM   11  N4  UNL     1      33.336  13.747  -6.686  1.00  0.00    -0.128 N 
HETATM   12  C6  UNL     1      33.490  12.453  -6.081  1.00  0.00     0.712 C 
HETATM   13  N5  UNL     1      32.441  11.920  -5.588  1.00  0.00    -0.220 N 
HETATM   14  N6  UNL     1      34.771  11.879  -6.079  1.00  0.00    -0.071 N 
ATOM     15  H5  UNL     1      31.564  12.438  -5.650  1.00  0.00     0.178 HD
ATOM     16  H6  UNL     1      34.922  10.951  -6.473  1.00  0.00     0.212 HD
ATOM     17  H4  UNL     1      34.172  14.277  -6.935  1.00  0.00     0.205 HD
BRANCH  13  18
HETATM   18  C7  UNL     1      32.425  10.623  -4.945  1.00  0.00     0.091 C 
HETATM   19  C8  UNL     1      33.116  10.639  -3.617  1.00  0.00     0.032 C 
HETATM   20  C9  UNL     1      31.015  10.123  -4.766  1.00  0.00     0.032 C 
ENDBRANCH  13  18
BRANCH  14  21
HETATM   21  N7  UNL     1      35.826  12.589  -5.533  1.00  0.00    -0.024 N 
HETATM   22  O1  UNL     1      35.664  13.281  -4.485  1.00  0.00    -0.516 OA
HETATM   23  O2  UNL     1      37.088  12.588  -6.088  1.00  0.00    -0.516 OA
ENDBRANCH  14  21
ENDBRANCH   8  11
ENDBRANCH   4   5
ENDBRANCH   3   4
TORSDOF 5
ENDMDL
MODEL 4
REMARK VINA RESULT: -7.030186921      4.665      7.667
REMARK  5 active torsions:
REMARK  status: ('A' for Active; 'I' for Inactive)
REMARK    1  A    between atoms: C3_3  and  C4_4 
REMARK    2  A    between atoms: C4_4  and  N1_5 
REMARK       I    between atoms: C5_7  and  N3_9 
REMARK    3  A    between atoms: N3_9  and  N4_11 
REMARK       I    between atoms: N4_11  and  C6_13 
REMARK       I    between atoms: C6_13  and  N6_19 
REMARK    4  A    between atoms: N5_14  and  C7_16 
REMARK    5  A    between atoms: N6_19  and  N7_21 
ROOT
HETATM    1  C1  UNL     1      31.465  10.492  -4.955  1.00  0.00     0.097 C 
HETATM    2  C2  UNL     1      32.374  10.909  -5.656  1.00  0.00    -0.186 C 
HETATM    3  C3  UNL     1      33.459  11.416  -6.497  1.00  0.00     0.099 C 
ENDROOT
BRANCH   3   4
HETATM    4  C4  UNL     1      33.102  12.806  -6.999  1.00  0.00     0.133 C 
BRANCH   4   5
HETATM    5  N1  UNL     1      32.469  12.789  -8.282  1.00  0.00    -0.363 N 
HETATM    6  C5  UNL     1      31.430  13.493  -8.561  1.00  0.00     0.203 C 
HETATM    7  N2  UNL     1      30.822  14.354  -7.599  1.00  0.00    -0.062 NA
HETATM    8  N3  UNL     1      30.866  13.414  -9.866  1.00  0.00    -0.259 N 
ATOM      9  H3  UNL     1      31.211  13.988 -10.634  1.00  0.00     0.190 HD
ATOM     10  H1  UNL     1      32.861  12.190  -9.010  1.00  0.00     0.162 HD
BRANCH   8  11
HETATM   11  N4  UNL     1      29.814  12.509 -10.042  1.00  0.00    -0.128 N 
HETATM   12  C6  UNL     1      29.409  12.047 -11.340  1.00  0.00     0.712 C 
HETATM   13  N5  UNL     1      29.901  12.657 -12.347  1.00  0.00    -0.220 N 
HETATM   14  N6  UNL     1      28.512  10.970 -11.401  1.00  0.00    -0.071 N 
ATOM     15  H5  UNL     1      30.545  13.429 -12.175  1.00  0.00     0.178 HD
ATOM     16  H6  UNL     1      28.745  10.133 -11.934  1.00  0.00     0.212 HD
ATOM     17  H4  UNL     1      29.317  12.166  -9.219  1.00  0.00     0.205 HD
BRANCH  13  18
HETATM   18  C7  UNL     1      29.597  12.315 -13.720  1.00  0.00     0.091 C 
HETATM   19  C8  UNL     1      28.471  13.132 -14.273  1.00  0.00     0.032 C 
HETATM   20  C9  UNL     1      30.809  12.477 -14.602  1.00  0.00     0.032 C 
ENDBRANCH  13  18
BRANCH  14  21
HETATM   21  N7  UNL     1      27.306  11.059 -10.728  1.00  0.00    -0.024 N 
HETATM   22  O1  UNL     1      26.839  12.186 -10.389  1.00  0.00    -0.516 OA
HETATM   23  O2  UNL     1      26.558   9.950 -10.393  1.00  0.00    -0.516 OA
ENDBRANCH  14  21
ENDBRANCH   8  11
ENDBRANCH   4   5
ENDBRANCH   3   4
TORSDOF 5
ENDMDL
MODEL 5
REMARK VINA RESULT: -6.831681898      5.312      8.004
REMARK  5 active torsions:
REMARK  status: ('A' for Active; 'I' for Inactive)
REMARK    1  A    between atoms: C3_3  and  C4_4 
REMARK    2  A    between atoms: C4_4  and  N1_5 
REMARK       I    between atoms: C5_7  and  N3_9 
REMARK    3  A    between atoms: N3_9  and  N4_11 
REMARK       I    between atoms: N4_11  and  C6_13 
REMARK       I    between atoms: C6_13  and  N6_19 
REMARK    4  A    between atoms: N5_14  and  C7_16 
REMARK    5  A    between atoms: N6_19  and  N7_21 
ROOT
HETATM    1  C1  UNL     1      31.670  10.470  -4.922  1.00  0.00     0.097 C 
HETATM    2  C2  UNL     1      32.042  11.249  -5.787  1.00  0.00    -0.186 C 
HETATM    3  C3  UNL     1      32.480  12.186  -6.821  1.00  0.00     0.099 C 
ENDROOT
BRANCH   3   4
HETATM    4  C4  UNL     1      31.347  13.146  -7.147  1.00  0.00     0.133 C 
BRANCH   4   5
HETATM    5  N1  UNL     1      30.884  13.023  -8.495  1.00  0.00    -0.363 N 
HETATM    6  C5  UNL     1      30.576  14.035  -9.226  1.00  0.00     0.203 C 
HETATM    7  N2  UNL     1      30.673  15.374  -8.740  1.00  0.00    -0.062 NA
HETATM    8  N3  UNL     1      30.123  13.820 -10.558  1.00  0.00    -0.259 N 
ATOM      9  H3  UNL     1      30.776  13.714 -11.335  1.00  0.00     0.190 HD
ATOM     10  H1  UNL     1      30.794  12.089  -8.896  1.00  0.00     0.162 HD
BRANCH   8  11
HETATM   11  N4  UNL     1      28.740  13.759 -10.750  1.00  0.00    -0.128 N 
HETATM   12  C6  UNL     1      28.090  12.596 -11.287  1.00  0.00     0.712 C 
HETATM   13  N5  UNL     1      28.843  11.695 -11.787  1.00  0.00    -0.220 N 
HETATM   14  N6  UNL     1      26.689  12.539 -11.221  1.00  0.00    -0.071 N 
ATOM     15  H5  UNL     1      29.851  11.851 -11.778  1.00  0.00     0.178 HD
ATOM     16  H6  UNL     1      26.225  11.747 -10.778  1.00  0.00     0.212 HD
ATOM     17  H4  UNL     1      28.172  14.569 -10.501  1.00  0.00     0.205 HD
BRANCH  13  18
HETATM   18  C7  UNL     1      28.348  10.464 -12.367  1.00  0.00     0.091 C 
HETATM   19  C8  UNL     1      28.205  10.554 -13.854  1.00  0.00     0.032 C 
HETATM   20  C9  UNL     1      29.244   9.302 -12.021  1.00  0.00     0.032 C 
ENDBRANCH  13  18
BRANCH  14  21
HETATM   21  N7  UNL     1      25.947  13.572 -11.767  1.00  0.00    -0.024 N 
HETATM   22  O1  UNL     1      24.689  13.604 -11.629  1.00  0.00    -0.516 OA
HETATM   23  O2  UNL     1      26.520  14.603 -12.480  1.00  0.00    -0.516 OA
ENDBRANCH  14  21
ENDBRANCH   8  11
ENDBRANCH   4   5
ENDBRANCH   3   4
TORSDOF 5
ENDMDL
