MODEL 1
REMARK VINA RESULT: -5.289224376      0.000      0.000
REMARK  5 active torsions:
REMARK  status: ('A' for Active; 'I' for Inactive)
REMARK    1  A    between atoms: C2_7  and  C3_8 
REMARK    2  A    between atoms: C3_8  and  C4_9 
REMARK    3  A    between atoms: C4_9  and  C5_10 
REMARK    4  A    between atoms: C5_10  and  N4_11 
REMARK    5  A    between atoms: C5_10  and  N5_15 
ROOT
HETATM    1  C3  UNL     1      13.523   7.284   6.784  1.00  0.00     0.082 C 
ENDROOT
BRANCH   1   2
HETATM    2  C2  UNL     1      13.103   7.479   5.374  1.00  0.00     0.098 A 
HETATM    3  N3  UNL     1      13.160   8.568   4.605  1.00  0.00    -0.286 N 
HETATM    4  N2  UNL     1      12.671   8.262   3.423  1.00  0.00    -0.272 N 
ATOM      5  H3  UNL     1      13.522   9.480   4.885  1.00  0.00     0.188 HD
HETATM    6  C1  UNL     1      12.285   6.960   3.402  1.00  0.00     0.208 A 
ATOM      7  H2  UNL     1      12.594   8.908   2.637  1.00  0.00     0.189 HD
HETATM    8  N1  UNL     1      11.715   6.292   2.291  1.00  0.00    -0.062 NA
HETATM    9  N6  UNL     1      12.567   6.500   4.630  1.00  0.00    -0.318 N 
ATOM     10  H6  UNL     1      12.399   5.546   4.951  1.00  0.00     0.170 HD
ENDBRANCH   1   2
BRANCH   1  11
HETATM   11  C4  UNL     1      14.935   6.806   6.903  1.00  0.00     0.069 C 
BRANCH  11  12
HETATM   12  C5  UNL     1      15.834   8.028   6.955  1.00  0.00     0.378 C 
BRANCH  12  13
HETATM   13  N4  UNL     1      17.175   7.581   6.609  1.00  0.00    -0.051 N 
ATOM     14  H43 UNL     1      17.407   6.668   7.001  1.00  0.00     0.276 HD
ATOM     15  H42 UNL     1      17.273   7.328   5.626  1.00  0.00     0.276 HD
ATOM     16  H41 UNL     1      17.817   8.318   6.901  1.00  0.00     0.276 HD
ENDBRANCH  12  13
BRANCH  12  17
HETATM   17  N5  UNL     1      15.890   8.615   8.261  1.00  0.00    -0.051 N 
ATOM     18  H53 UNL     1      14.991   8.538   8.737  1.00  0.00     0.276 HD
ATOM     19  H52 UNL     1      16.460   8.052   8.892  1.00  0.00     0.276 HD
ATOM     20  H51 UNL     1      16.213   9.583   8.242  1.00  0.00     0.276 HD
ENDBRANCH  12  17
ENDBRANCH  11  12
ENDBRANCH   1  11
TORSDOF 5
ENDMDL
MODEL 2
REMARK VINA RESULT: -5.281891345      0.490      1.077
REMARK  5 active torsions:
REMARK  status: ('A' for Active; 'I' for Inactive)
REMARK    1  A    between atoms: C2_7  and  C3_8 
REMARK    2  A    between atoms: C3_8  and  C4_9 
REMARK    3  A    between atoms: C4_9  and  C5_10 
REMARK    4  A    between atoms: C5_10  and  N4_11 
REMARK    5  A    between atoms: C5_10  and  N5_15 
ROOT
HETATM    1  C3  UNL     1      13.442   7.300   6.871  1.00  0.00     0.082 C 
ENDROOT
BRANCH   1   2
HETATM    2  C2  UNL     1      13.078   7.495   5.445  1.00  0.00     0.098 A 
HETATM    3  N3  UNL     1      13.182   8.579   4.675  1.00  0.00    -0.286 N 
HETATM    4  N2  UNL     1      12.733   8.275   3.476  1.00  0.00    -0.272 N 
ATOM      5  H3  UNL     1      13.547   9.487   4.964  1.00  0.00     0.188 HD
HETATM    6  C1  UNL     1      12.327   6.980   3.447  1.00  0.00     0.208 A 
ATOM      7  H2  UNL     1      12.695   8.919   2.685  1.00  0.00     0.189 HD
HETATM    8  N1  UNL     1      11.789   6.315   2.318  1.00  0.00    -0.062 NA
HETATM    9  N6  UNL     1      12.555   6.520   4.686  1.00  0.00    -0.318 N 
ATOM     10  H6  UNL     1      12.360   5.571   5.004  1.00  0.00     0.170 HD
ENDBRANCH   1   2
BRANCH   1  11
HETATM   11  C4  UNL     1      14.733   6.564   7.040  1.00  0.00     0.069 C 
BRANCH  11  12
HETATM   12  C5  UNL     1      15.764   7.552   7.554  1.00  0.00     0.378 C 
BRANCH  12  13
HETATM   13  N4  UNL     1      15.058   8.492   8.411  1.00  0.00    -0.051 N 
ATOM     14  H43 UNL     1      14.588   8.044   9.197  1.00  0.00     0.276 HD
ATOM     15  H42 UNL     1      15.684   9.086   8.956  1.00  0.00     0.276 HD
ATOM     16  H41 UNL     1      14.423   9.021   7.812  1.00  0.00     0.276 HD
ENDBRANCH  12  13
BRANCH  12  17
HETATM   17  N5  UNL     1      16.384   8.299   6.499  1.00  0.00    -0.051 N 
ATOM     18  H53 UNL     1      16.723   7.681   5.762  1.00  0.00     0.276 HD
ATOM     19  H52 UNL     1      15.691   8.826   5.967  1.00  0.00     0.276 HD
ATOM     20  H51 UNL     1      17.129   8.910   6.836  1.00  0.00     0.276 HD
ENDBRANCH  12  17
ENDBRANCH  11  12
ENDBRANCH   1  11
TORSDOF 5
ENDMDL
MODEL 3
REMARK VINA RESULT: -5.059926722      1.978      2.549
REMARK  5 active torsions:
REMARK  status: ('A' for Active; 'I' for Inactive)
REMARK    1  A    between atoms: C2_7  and  C3_8 
REMARK    2  A    between atoms: C3_8  and  C4_9 
REMARK    3  A    between atoms: C4_9  and  C5_10 
REMARK    4  A    between atoms: C5_10  and  N4_11 
REMARK    5  A    between atoms: C5_10  and  N5_15 
ROOT
HETATM    1  C3  UNL     1      13.941   6.070   6.373  1.00  0.00     0.082 C 
ENDROOT
BRANCH   1   2
HETATM    2  C2  UNL     1      12.712   5.733   5.611  1.00  0.00     0.098 A 
HETATM    3  N3  UNL     1      12.337   6.096   4.384  1.00  0.00    -0.286 N 
HETATM    4  N2  UNL     1      11.166   5.552   4.134  1.00  0.00    -0.272 N 
ATOM      5  H3  UNL     1      12.866   6.693   3.748  1.00  0.00     0.188 HD
HETATM    6  C1  UNL     1      10.757   4.820   5.202  1.00  0.00     0.208 A 
ATOM      7  H2  UNL     1      10.642   5.663   3.266  1.00  0.00     0.189 HD
HETATM    8  N1  UNL     1       9.542   4.095   5.283  1.00  0.00    -0.062 NA
HETATM    9  N6  UNL     1      11.740   4.951   6.105  1.00  0.00    -0.318 N 
ATOM     10  H6  UNL     1      11.748   4.520   7.030  1.00  0.00     0.170 HD
ENDBRANCH   1   2
BRANCH   1  11
HETATM   11  C4  UNL     1      13.828   7.371   7.101  1.00  0.00     0.069 C 
BRANCH  11  12
HETATM   12  C5  UNL     1      15.208   7.734   7.617  1.00  0.00     0.378 C 
BRANCH  12  13
HETATM   13  N4  UNL     1      15.023   8.748   8.643  1.00  0.00    -0.051 N 
ATOM     14  H43 UNL     1      14.287   9.418   8.418  1.00  0.00     0.276 HD
ATOM     15  H42 UNL     1      14.606   8.382   9.500  1.00  0.00     0.276 HD
ATOM     16  H41 UNL     1      15.931   9.187   8.795  1.00  0.00     0.276 HD
ENDBRANCH  12  13
BRANCH  12  17
HETATM   17  N5  UNL     1      16.049   8.289   6.598  1.00  0.00    -0.051 N 
ATOM     18  H53 UNL     1      16.125   7.657   5.801  1.00  0.00     0.276 HD
ATOM     19  H52 UNL     1      15.596   9.080   6.140  1.00  0.00     0.276 HD
ATOM     20  H51 UNL     1      16.972   8.549   6.949  1.00  0.00     0.276 HD
ENDBRANCH  12  17
ENDBRANCH  11  12
ENDBRANCH   1  11
TORSDOF 5
ENDMDL
MODEL 4
REMARK VINA RESULT: -4.955473767      2.360      4.984
REMARK  5 active torsions:
REMARK  status: ('A' for Active; 'I' for Inactive)
REMARK    1  A    between atoms: C2_7  and  C3_8 
REMARK    2  A    between atoms: C3_8  and  C4_9 
REMARK    3  A    between atoms: C4_9  and  C5_10 
REMARK    4  A    between atoms: C5_10  and  N4_11 
REMARK    5  A    between atoms: C5_10  and  N5_15 
ROOT
HETATM    1  C3  UNL     1      12.874   6.880   6.901  1.00  0.00     0.082 C 
ENDROOT
BRANCH   1   2
HETATM    2  C2  UNL     1      14.232   7.383   7.229  1.00  0.00     0.098 A 
HETATM    3  N3  UNL     1      14.617   8.280   8.138  1.00  0.00    -0.286 N 
HETATM    4  N2  UNL     1      15.925   8.404   8.065  1.00  0.00    -0.272 N 
ATOM      5  H3  UNL     1      14.004   8.784   8.780  1.00  0.00     0.188 HD
HETATM    6  C1  UNL     1      16.415   7.583   7.100  1.00  0.00     0.208 A 
ATOM      7  H2  UNL     1      16.487   9.025   8.647  1.00  0.00     0.189 HD
HETATM    8  N1  UNL     1      17.782   7.457   6.748  1.00  0.00    -0.062 NA
HETATM    9  N6  UNL     1      15.338   6.961   6.599  1.00  0.00    -0.318 N 
ATOM     10  H6  UNL     1      15.357   6.268   5.850  1.00  0.00     0.170 HD
ENDBRANCH   1   2
BRANCH   1  11
HETATM   11  C4  UNL     1      12.870   5.968   5.715  1.00  0.00     0.069 C 
BRANCH  11  12
HETATM   12  C5  UNL     1      11.932   4.816   6.022  1.00  0.00     0.378 C 
BRANCH  12  13
HETATM   13  N4  UNL     1      12.528   3.620   5.445  1.00  0.00    -0.051 N 
ATOM     14  H43 UNL     1      12.825   3.747   4.477  1.00  0.00     0.276 HD
ATOM     15  H42 UNL     1      13.446   3.402   5.834  1.00  0.00     0.276 HD
ATOM     16  H41 UNL     1      11.852   2.865   5.562  1.00  0.00     0.276 HD
ENDBRANCH  12  13
BRANCH  12  17
HETATM   17  N5  UNL     1      10.636   4.988   5.433  1.00  0.00    -0.051 N 
ATOM     18  H53 UNL     1      10.610   4.604   4.487  1.00  0.00     0.276 HD
ATOM     19  H52 UNL     1       9.948   4.380   5.877  1.00  0.00     0.276 HD
ATOM     20  H51 UNL     1      10.326   5.960   5.443  1.00  0.00     0.276 HD
ENDBRANCH  12  17
ENDBRANCH  11  12
ENDBRANCH   1  11
TORSDOF 5
ENDMDL
MODEL 5
REMARK VINA RESULT: -4.939486979      1.206      2.106
REMARK  5 active torsions:
REMARK  status: ('A' for Active; 'I' for Inactive)
REMARK    1  A    between atoms: C2_7  and  C3_8 
REMARK    2  A    between atoms: C3_8  and  C4_9 
REMARK    3  A    between atoms: C4_9  and  C5_10 
REMARK    4  A    between atoms: C5_10  and  N4_11 
REMARK    5  A    between atoms: C5_10  and  N5_15 
ROOT
HETATM    1  C3  UNL     1      13.370   6.546   6.881  1.00  0.00     0.082 C 
ENDROOT
BRANCH   1   2
HETATM    2  C2  UNL     1      12.529   6.041   5.766  1.00  0.00     0.098 A 
HETATM    3  N3  UNL     1      11.603   5.081   5.757  1.00  0.00    -0.286 N 
HETATM    4  N2  UNL     1      11.122   4.987   4.537  1.00  0.00    -0.272 N 
ATOM      5  H3  UNL     1      11.318   4.517   6.558  1.00  0.00     0.188 HD
HETATM    6  C1  UNL     1      11.729   5.891   3.726  1.00  0.00     0.208 A 
ATOM      7  H2  UNL     1      10.398   4.331   4.242  1.00  0.00     0.189 HD
HETATM    8  N1  UNL     1      11.458   6.069   2.347  1.00  0.00    -0.062 NA
HETATM    9  N6  UNL     1      12.599   6.533   4.520  1.00  0.00    -0.318 N 
ATOM     10  H6  UNL     1      13.222   7.284   4.221  1.00  0.00     0.170 HD
ENDBRANCH   1   2
BRANCH   1  11
HETATM   11  C4  UNL     1      14.141   7.772   6.511  1.00  0.00     0.069 C 
BRANCH  11  12
HETATM   12  C5  UNL     1      15.454   7.739   7.270  1.00  0.00     0.378 C 
BRANCH  12  13
HETATM   13  N4  UNL     1      15.337   8.699   8.358  1.00  0.00    -0.051 N 
ATOM     14  H43 UNL     1      15.776   9.597   8.151  1.00  0.00     0.276 HD
ATOM     15  H42 UNL     1      14.387   9.047   8.486  1.00  0.00     0.276 HD
ATOM     16  H41 UNL     1      15.717   8.250   9.192  1.00  0.00     0.276 HD
ENDBRANCH  12  13
BRANCH  12  17
HETATM   17  N5  UNL     1      16.570   8.129   6.459  1.00  0.00    -0.051 N 
ATOM     18  H53 UNL     1      16.277   8.320   5.501  1.00  0.00     0.276 HD
ATOM     19  H52 UNL     1      16.904   9.058   6.718  1.00  0.00     0.276 HD
ATOM     20  H51 UNL     1      17.329   7.448   6.482  1.00  0.00     0.276 HD
ENDBRANCH  12  17
ENDBRANCH  11  12
ENDBRANCH   1  11
TORSDOF 5
ENDMDL
