MODEL 1
REMARK VINA RESULT: -4.809042965      0.000      0.000
REMARK  4 active torsions:
REMARK  status: ('A' for Active; 'I' for Inactive)
REMARK    1  A    between atoms: C2_2  and  N1_4 
REMARK    2  A    between atoms: N1_4  and  N2_6 
REMARK    3  A    between atoms: N2_6  and  N3_8 
REMARK    4  A    between atoms: N3_8  and  C4_10 
ROOT
HETATM    1  N3  UNL     1      12.914   7.852   4.371  1.00  0.00    -0.257 N 
ATOM      2  H3  UNL     1      13.082   8.715   3.854  1.00  0.00     0.191 HD
ENDROOT
BRANCH   1   3
HETATM    3  N2  UNL     1      13.415   7.689   5.620  1.00  0.00    -0.244 N 
ATOM      4  H2  UNL     1      12.987   7.001   6.241  1.00  0.00     0.208 HD
BRANCH   3   5
HETATM    5  N1  UNL     1      14.442   8.397   6.056  1.00  0.00    -0.318 N 
ATOM      6  H1  UNL     1      14.655   9.297   5.624  1.00  0.00     0.182 HD
BRANCH   5   7
HETATM    7  C2  UNL     1      15.253   7.919   7.120  1.00  0.00     0.092 C 
HETATM    8  C1  UNL     1      16.689   7.679   6.705  1.00  0.00     0.033 C 
HETATM    9  C3  UNL     1      15.201   8.711   8.383  1.00  0.00     0.033 C 
ENDBRANCH   5   7
ENDBRANCH   3   5
ENDBRANCH   1   3
BRANCH   1  10
HETATM   10  C4  UNL     1      12.151   6.797   3.792  1.00  0.00     0.191 C 
HETATM   11  N4  UNL     1      11.740   5.717   4.378  1.00  0.00    -0.360 N 
HETATM   12  C5  UNL     1      10.996   4.881   3.481  1.00  0.00     0.142 C 
ATOM     13  H4  UNL     1      11.922   5.490   5.355  1.00  0.00     0.162 HD
HETATM   14  C6  UNL     1      10.617   5.841   2.366  1.00  0.00     0.142 C 
HETATM   15  N5  UNL     1      11.713   6.786   2.419  1.00  0.00    -0.360 N 
ATOM     16  H5  UNL     1      12.096   7.330   1.645  1.00  0.00     0.162 HD
ENDBRANCH   1  10
TORSDOF 4
ENDMDL
MODEL 2
REMARK VINA RESULT: -4.750064069      0.819      1.361
REMARK  4 active torsions:
REMARK  status: ('A' for Active; 'I' for Inactive)
REMARK    1  A    between atoms: C2_2  and  N1_4 
REMARK    2  A    between atoms: N1_4  and  N2_6 
REMARK    3  A    between atoms: N2_6  and  N3_8 
REMARK    4  A    between atoms: N3_8  and  C4_10 
ROOT
HETATM    1  N3  UNL     1      13.136   7.274   5.306  1.00  0.00    -0.257 N 
ATOM      2  H3  UNL     1      13.556   8.160   5.025  1.00  0.00     0.191 HD
ENDROOT
BRANCH   1   3
HETATM    3  N2  UNL     1      13.320   6.792   6.560  1.00  0.00    -0.244 N 
ATOM      4  H2  UNL     1      12.524   6.400   7.064  1.00  0.00     0.208 HD
BRANCH   3   5
HETATM    5  N1  UNL     1      14.504   6.817   7.148  1.00  0.00    -0.318 N 
ATOM      6  H1  UNL     1      14.792   6.035   7.735  1.00  0.00     0.182 HD
BRANCH   5   7
HETATM    7  C2  UNL     1      15.378   7.922   6.969  1.00  0.00     0.092 C 
HETATM    8  C1  UNL     1      15.346   8.894   8.129  1.00  0.00     0.033 C 
HETATM    9  C3  UNL     1      16.787   7.585   6.611  1.00  0.00     0.033 C 
ENDBRANCH   5   7
ENDBRANCH   3   5
ENDBRANCH   1   3
BRANCH   1  10
HETATM   10  C4  UNL     1      12.347   6.521   4.388  1.00  0.00     0.191 C 
HETATM   11  N4  UNL     1      11.710   5.419   4.627  1.00  0.00    -0.360 N 
HETATM   12  C5  UNL     1      11.020   4.946   3.461  1.00  0.00     0.142 C 
ATOM     13  H4  UNL     1      11.700   4.947   5.530  1.00  0.00     0.162 HD
HETATM   14  C6  UNL     1      10.955   6.187   2.586  1.00  0.00     0.142 C 
HETATM   15  N5  UNL     1      12.141   6.900   3.013  1.00  0.00    -0.360 N 
ATOM     16  H5  UNL     1      12.712   7.536   2.456  1.00  0.00     0.162 HD
ENDBRANCH   1  10
TORSDOF 4
ENDMDL
MODEL 3
REMARK VINA RESULT: -4.719563136      1.199      1.567
REMARK  4 active torsions:
REMARK  status: ('A' for Active; 'I' for Inactive)
REMARK    1  A    between atoms: C2_2  and  N1_4 
REMARK    2  A    between atoms: N1_4  and  N2_6 
REMARK    3  A    between atoms: N2_6  and  N3_8 
REMARK    4  A    between atoms: N3_8  and  C4_10 
ROOT
HETATM    1  N3  UNL     1      13.113   6.447   6.294  1.00  0.00    -0.257 N 
ATOM      2  H3  UNL     1      13.429   6.223   7.238  1.00  0.00     0.191 HD
ENDROOT
BRANCH   1   3
HETATM    3  N2  UNL     1      13.383   7.657   5.746  1.00  0.00    -0.244 N 
ATOM      4  H2  UNL     1      12.725   8.057   5.077  1.00  0.00     0.208 HD
BRANCH   3   5
HETATM    5  N1  UNL     1      14.476   8.333   6.056  1.00  0.00    -0.318 N 
ATOM      6  H1  UNL     1      14.721   9.168   5.523  1.00  0.00     0.182 HD
BRANCH   5   7
HETATM    7  C2  UNL     1      15.312   7.908   7.123  1.00  0.00     0.092 C 
HETATM    8  C1  UNL     1      16.743   7.668   6.691  1.00  0.00     0.033 C 
HETATM    9  C3  UNL     1      15.274   8.750   8.353  1.00  0.00     0.033 C 
ENDBRANCH   5   7
ENDBRANCH   3   5
ENDBRANCH   1   3
BRANCH   1  10
HETATM   10  C4  UNL     1      12.382   5.491   5.529  1.00  0.00     0.191 C 
HETATM   11  N4  UNL     1      12.150   4.256   5.839  1.00  0.00    -0.360 N 
HETATM   12  C5  UNL     1      11.378   3.594   4.827  1.00  0.00     0.142 C 
ATOM     13  H4  UNL     1      12.475   3.808   6.696  1.00  0.00     0.162 HD
HETATM   14  C6  UNL     1      10.774   4.756   4.056  1.00  0.00     0.142 C 
HETATM   15  N5  UNL     1      11.777   5.782   4.254  1.00  0.00    -0.360 N 
ATOM     16  H5  UNL     1      12.006   6.550   3.622  1.00  0.00     0.162 HD
ENDBRANCH   1  10
TORSDOF 4
ENDMDL
MODEL 4
REMARK VINA RESULT: -4.684391655      1.151      1.895
REMARK  4 active torsions:
REMARK  status: ('A' for Active; 'I' for Inactive)
REMARK    1  A    between atoms: C2_2  and  N1_4 
REMARK    2  A    between atoms: N1_4  and  N2_6 
REMARK    3  A    between atoms: N2_6  and  N3_8 
REMARK    4  A    between atoms: N3_8  and  C4_10 
ROOT
HETATM    1  N3  UNL     1      13.303   6.334   6.070  1.00  0.00    -0.257 N 
ATOM      2  H3  UNL     1      13.879   5.947   6.818  1.00  0.00     0.191 HD
ENDROOT
BRANCH   1   3
HETATM    3  N2  UNL     1      13.419   7.637   5.716  1.00  0.00    -0.244 N 
ATOM      4  H2  UNL     1      12.681   8.069   5.159  1.00  0.00     0.208 HD
BRANCH   3   5
HETATM    5  N1  UNL     1      14.464   8.364   6.073  1.00  0.00    -0.318 N 
ATOM      6  H1  UNL     1      14.660   9.239   5.587  1.00  0.00     0.182 HD
BRANCH   5   7
HETATM    7  C2  UNL     1      15.317   7.939   7.127  1.00  0.00     0.092 C 
HETATM    8  C1  UNL     1      16.736   7.676   6.669  1.00  0.00     0.033 C 
HETATM    9  C3  UNL     1      15.314   8.793   8.350  1.00  0.00     0.033 C 
ENDBRANCH   5   7
ENDBRANCH   3   5
ENDBRANCH   1   3
BRANCH   1  10
HETATM   10  C4  UNL     1      12.362   5.514   5.381  1.00  0.00     0.191 C 
HETATM   11  N4  UNL     1      11.767   5.780   4.262  1.00  0.00    -0.360 N 
HETATM   12  C5  UNL     1      10.885   4.719   3.869  1.00  0.00     0.142 C 
ATOM     13  H4  UNL     1      11.908   6.637   3.727  1.00  0.00     0.162 HD
HETATM   14  C6  UNL     1      11.385   3.546   4.695  1.00  0.00     0.142 C 
HETATM   15  N5  UNL     1      11.927   4.224   5.855  1.00  0.00    -0.360 N 
ATOM     16  H5  UNL     1      11.987   3.864   6.807  1.00  0.00     0.162 HD
ENDBRANCH   1  10
TORSDOF 4
ENDMDL
MODEL 5
REMARK VINA RESULT: -4.650346890      1.374      2.259
REMARK  4 active torsions:
REMARK  status: ('A' for Active; 'I' for Inactive)
REMARK    1  A    between atoms: C2_2  and  N1_4 
REMARK    2  A    between atoms: N1_4  and  N2_6 
REMARK    3  A    between atoms: N2_6  and  N3_8 
REMARK    4  A    between atoms: N3_8  and  C4_10 
ROOT
HETATM    1  N3  UNL     1      13.577   5.942   6.172  1.00  0.00    -0.257 N 
ATOM      2  H3  UNL     1      14.417   5.418   6.415  1.00  0.00     0.191 HD
ENDROOT
BRANCH   1   3
HETATM    3  N2  UNL     1      13.453   7.246   6.524  1.00  0.00    -0.244 N 
ATOM      4  H2  UNL     1      12.663   7.532   7.102  1.00  0.00     0.208 HD
BRANCH   3   5
HETATM    5  N1  UNL     1      14.330   8.157   6.137  1.00  0.00    -0.318 N 
ATOM      6  H1  UNL     1      14.212   8.622   5.237  1.00  0.00     0.182 HD
BRANCH   5   7
HETATM    7  C2  UNL     1      15.435   8.494   6.963  1.00  0.00     0.092 C 
HETATM    8  C1  UNL     1      15.069   8.594   8.429  1.00  0.00     0.033 C 
HETATM    9  C3  UNL     1      16.657   7.657   6.788  1.00  0.00     0.033 C 
ENDBRANCH   5   7
ENDBRANCH   3   5
ENDBRANCH   1   3
BRANCH   1  10
HETATM   10  C4  UNL     1      12.514   5.318   5.457  1.00  0.00     0.191 C 
HETATM   11  N4  UNL     1      11.881   5.789   4.430  1.00  0.00    -0.360 N 
HETATM   12  C5  UNL     1      10.868   4.880   3.973  1.00  0.00     0.142 C 
ATOM     13  H4  UNL     1      12.077   6.692   4.000  1.00  0.00     0.162 HD
HETATM   14  C6  UNL     1      11.294   3.564   4.601  1.00  0.00     0.142 C 
HETATM   15  N5  UNL     1      11.976   4.024   5.793  1.00  0.00    -0.360 N 
ATOM     16  H5  UNL     1      12.058   3.533   6.684  1.00  0.00     0.162 HD
ENDBRANCH   1  10
TORSDOF 4
ENDMDL
