MODEL 1
REMARK VINA RESULT: -5.258993770      0.000      0.000
REMARK  6 active torsions:
REMARK  status: ('A' for Active; 'I' for Inactive)
REMARK    1  A    between atoms: N1_1  and  C1_4 
REMARK    2  A    between atoms: C2_10  and  C3_11 
REMARK    3  A    between atoms: C3_11  and  C4_12 
REMARK    4  A    between atoms: C4_12  and  C5_13 
REMARK    5  A    between atoms: C5_13  and  N4_14 
REMARK    6  A    between atoms: C5_13  and  N5_18 
ROOT
HETATM    1  C3  UNL     1      13.367   7.244   6.782  1.00  0.00     0.067 C 
ENDROOT
BRANCH   1   2
HETATM    2  C2  UNL     1      13.054   7.535   5.387  1.00  0.00     0.079 A 
HETATM    3  C1  UNL     1      12.467   6.708   4.456  1.00  0.00     0.146 A 
HETATM    4  N2  UNL     1      12.377   7.415   3.290  1.00  0.00    -0.224 N 
HETATM    5  O1  UNL     1      12.884   8.598   3.517  1.00  0.00    -0.155 OA
ATOM      6  H2  UNL     1      11.988   7.082   2.408  1.00  0.00     0.198 HD
HETATM    7  N3  UNL     1      13.292   8.692   4.754  1.00  0.00    -0.242 N 
ATOM      8  H3  UNL     1      13.724   9.516   5.172  1.00  0.00     0.196 HD
BRANCH   3   9
HETATM    9  N1  UNL     1      12.064   5.501   4.607  1.00  0.00    -0.382 N 
ATOM     10  H12 UNL     1      11.170   5.093   4.333  1.00  0.00     0.157 HD
ATOM     11  H11 UNL     1      12.612   4.758   5.041  1.00  0.00     0.157 HD
ENDBRANCH   3   9
ENDBRANCH   1   2
BRANCH   1  12
HETATM   12  C4  UNL     1      14.729   6.630   6.990  1.00  0.00     0.068 C 
BRANCH  12  13
HETATM   13  C5  UNL     1      15.720   7.555   7.620  1.00  0.00     0.378 C 
BRANCH  13  14
HETATM   14  N4  UNL     1      15.052   8.516   8.439  1.00  0.00    -0.051 N 
ATOM     15  H43 UNL     1      14.038   8.410   8.399  1.00  0.00     0.276 HD
ATOM     16  H42 UNL     1      15.184   8.326   9.432  1.00  0.00     0.276 HD
ATOM     17  H41 UNL     1      15.346   9.460   8.189  1.00  0.00     0.276 HD
ENDBRANCH  13  14
BRANCH  13  18
HETATM   18  N5  UNL     1      16.392   8.276   6.556  1.00  0.00    -0.051 N 
ATOM     19  H53 UNL     1      17.378   8.449   6.756  1.00  0.00     0.276 HD
ATOM     20  H52 UNL     1      16.522   7.712   5.716  1.00  0.00     0.276 HD
ATOM     21  H51 UNL     1      15.868   9.133   6.381  1.00  0.00     0.276 HD
ENDBRANCH  13  18
ENDBRANCH  12  13
ENDBRANCH   1  12
TORSDOF 6
ENDMDL
MODEL 2
REMARK VINA RESULT: -5.170111118      0.475      1.082
REMARK  6 active torsions:
REMARK  status: ('A' for Active; 'I' for Inactive)
REMARK    1  A    between atoms: N1_1  and  C1_4 
REMARK    2  A    between atoms: C2_10  and  C3_11 
REMARK    3  A    between atoms: C3_11  and  C4_12 
REMARK    4  A    between atoms: C4_12  and  C5_13 
REMARK    5  A    between atoms: C5_13  and  N4_14 
REMARK    6  A    between atoms: C5_13  and  N5_18 
ROOT
HETATM    1  C3  UNL     1      13.444   7.212   6.716  1.00  0.00     0.067 C 
ENDROOT
BRANCH   1   2
HETATM    2  C2  UNL     1      13.080   7.510   5.336  1.00  0.00     0.079 A 
HETATM    3  C1  UNL     1      12.467   6.686   4.419  1.00  0.00     0.146 A 
HETATM    4  N2  UNL     1      12.331   7.401   3.263  1.00  0.00    -0.224 N 
HETATM    5  O1  UNL     1      12.837   8.586   3.480  1.00  0.00    -0.155 OA
ATOM      6  H2  UNL     1      11.914   7.071   2.393  1.00  0.00     0.198 HD
HETATM    7  N3  UNL     1      13.288   8.674   4.703  1.00  0.00    -0.242 N 
ATOM      8  H3  UNL     1      13.728   9.498   5.112  1.00  0.00     0.196 HD
BRANCH   3   9
HETATM    9  N1  UNL     1      12.078   5.474   4.576  1.00  0.00    -0.382 N 
ATOM     10  H12 UNL     1      12.595   4.691   4.975  1.00  0.00     0.157 HD
ATOM     11  H11 UNL     1      11.159   5.123   4.310  1.00  0.00     0.157 HD
ENDBRANCH   3   9
ENDBRANCH   1   2
BRANCH   1  12
HETATM   12  C4  UNL     1      14.890   6.824   6.899  1.00  0.00     0.068 C 
BRANCH  12  13
HETATM   13  C5  UNL     1      15.827   7.987   6.957  1.00  0.00     0.378 C 
BRANCH  13  14
HETATM   14  N4  UNL     1      17.145   7.582   6.587  1.00  0.00    -0.051 N 
ATOM     15  H43 UNL     1      17.655   8.331   6.117  1.00  0.00     0.276 HD
ATOM     16  H42 UNL     1      17.752   7.474   7.399  1.00  0.00     0.276 HD
ATOM     17  H41 UNL     1      17.111   6.733   6.022  1.00  0.00     0.276 HD
ENDBRANCH  13  14
BRANCH  13  18
HETATM   18  N5  UNL     1      15.878   8.446   8.333  1.00  0.00    -0.051 N 
ATOM     19  H53 UNL     1      15.450   9.363   8.461  1.00  0.00     0.276 HD
ATOM     20  H52 UNL     1      15.259   7.920   8.949  1.00  0.00     0.276 HD
ATOM     21  H51 UNL     1      16.853   8.419   8.633  1.00  0.00     0.276 HD
ENDBRANCH  13  18
ENDBRANCH  12  13
ENDBRANCH   1  12
TORSDOF 6
ENDMDL
MODEL 3
REMARK VINA RESULT: -5.059405551      0.987      2.012
REMARK  6 active torsions:
REMARK  status: ('A' for Active; 'I' for Inactive)
REMARK    1  A    between atoms: N1_1  and  C1_4 
REMARK    2  A    between atoms: C2_10  and  C3_11 
REMARK    3  A    between atoms: C3_11  and  C4_12 
REMARK    4  A    between atoms: C4_12  and  C5_13 
REMARK    5  A    between atoms: C5_13  and  N4_14 
REMARK    6  A    between atoms: C5_13  and  N5_18 
ROOT
HETATM    1  C3  UNL     1      13.324   7.088   6.692  1.00  0.00     0.067 C 
ENDROOT
BRANCH   1   2
HETATM    2  C2  UNL     1      12.896   6.994   5.300  1.00  0.00     0.079 A 
HETATM    3  C1  UNL     1      12.871   7.987   4.348  1.00  0.00     0.146 A 
HETATM    4  N2  UNL     1      12.394   7.429   3.196  1.00  0.00    -0.224 N 
HETATM    5  O1  UNL     1      12.148   6.171   3.451  1.00  0.00    -0.155 OA
ATOM      6  H2  UNL     1      12.256   7.904   2.304  1.00  0.00     0.198 HD
HETATM    7  N3  UNL     1      12.438   5.890   4.693  1.00  0.00    -0.242 N 
ATOM      8  H3  UNL     1      12.332   4.975   5.132  1.00  0.00     0.196 HD
BRANCH   3   9
HETATM    9  N1  UNL     1      13.221   9.215   4.471  1.00  0.00    -0.382 N 
ATOM     10  H12 UNL     1      14.162   9.600   4.546  1.00  0.00     0.157 HD
ATOM     11  H11 UNL     1      12.571  10.000   4.511  1.00  0.00     0.157 HD
ENDBRANCH   3   9
ENDBRANCH   1   2
BRANCH   1  12
HETATM   12  C4  UNL     1      14.785   6.777   6.906  1.00  0.00     0.068 C 
BRANCH  12  13
HETATM   13  C5  UNL     1      15.666   7.984   6.912  1.00  0.00     0.378 C 
BRANCH  13  14
HETATM   14  N4  UNL     1      17.015   7.617   6.621  1.00  0.00    -0.051 N 
ATOM     15  H43 UNL     1      17.528   8.379   6.176  1.00  0.00     0.276 HD
ATOM     16  H42 UNL     1      17.576   7.531   7.468  1.00  0.00     0.276 HD
ATOM     17  H41 UNL     1      17.038   6.765   6.061  1.00  0.00     0.276 HD
ENDBRANCH  13  14
BRANCH  13  18
HETATM   18  N5  UNL     1      15.642   8.544   8.251  1.00  0.00    -0.051 N 
ATOM     19  H53 UNL     1      15.610   9.563   8.254  1.00  0.00     0.276 HD
ATOM     20  H52 UNL     1      14.758   8.380   8.732  1.00  0.00     0.276 HD
ATOM     21  H51 UNL     1      16.445   8.171   8.758  1.00  0.00     0.276 HD
ENDBRANCH  13  18
ENDBRANCH  12  13
ENDBRANCH   1  12
TORSDOF 6
ENDMDL
MODEL 4
REMARK VINA RESULT: -4.752385581      1.448      1.946
REMARK  6 active torsions:
REMARK  status: ('A' for Active; 'I' for Inactive)
REMARK    1  A    between atoms: N1_1  and  C1_4 
REMARK    2  A    between atoms: C2_10  and  C3_11 
REMARK    3  A    between atoms: C3_11  and  C4_12 
REMARK    4  A    between atoms: C4_12  and  C5_13 
REMARK    5  A    between atoms: C5_13  and  N4_14 
REMARK    6  A    between atoms: C5_13  and  N5_18 
ROOT
HETATM    1  C3  UNL     1      13.604   7.577   5.927  1.00  0.00     0.067 C 
ENDROOT
BRANCH   1   2
HETATM    2  C2  UNL     1      12.820   6.687   5.077  1.00  0.00     0.079 A 
HETATM    3  C1  UNL     1      12.361   6.914   3.800  1.00  0.00     0.146 A 
HETATM    4  N2  UNL     1      11.676   5.797   3.414  1.00  0.00    -0.224 N 
HETATM    5  O1  UNL     1      11.724   4.952   4.409  1.00  0.00    -0.155 OA
ATOM      6  H2  UNL     1      11.213   5.650   2.517  1.00  0.00     0.198 HD
HETATM    7  N3  UNL     1      12.397   5.458   5.407  1.00  0.00    -0.242 N 
ATOM      8  H3  UNL     1      12.574   4.992   6.297  1.00  0.00     0.196 HD
BRANCH   3   9
HETATM    9  N1  UNL     1      12.522   7.957   3.071  1.00  0.00    -0.382 N 
ATOM     10  H12 UNL     1      11.973   8.257   2.267  1.00  0.00     0.157 HD
ATOM     11  H11 UNL     1      13.255   8.652   3.211  1.00  0.00     0.157 HD
ENDBRANCH   3   9
ENDBRANCH   1   2
BRANCH   1  12
HETATM   12  C4  UNL     1      14.227   6.895   7.120  1.00  0.00     0.068 C 
BRANCH  12  13
HETATM   13  C5  UNL     1      15.420   7.608   7.669  1.00  0.00     0.378 C 
BRANCH  13  14
HETATM   14  N4  UNL     1      15.013   8.624   8.587  1.00  0.00    -0.051 N 
ATOM     15  H43 UNL     1      15.757   8.864   9.243  1.00  0.00     0.276 HD
ATOM     16  H42 UNL     1      14.916   9.531   8.131  1.00  0.00     0.276 HD
ATOM     17  H41 UNL     1      14.157   8.346   9.067  1.00  0.00     0.276 HD
ENDBRANCH  13  14
BRANCH  13  18
HETATM   18  N5  UNL     1      16.095   8.260   6.563  1.00  0.00    -0.051 N 
ATOM     19  H53 UNL     1      16.613   7.607   5.975  1.00  0.00     0.276 HD
ATOM     20  H52 UNL     1      15.449   8.600   5.850  1.00  0.00     0.276 HD
ATOM     21  H51 UNL     1      16.683   8.998   6.949  1.00  0.00     0.276 HD
ENDBRANCH  13  18
ENDBRANCH  12  13
ENDBRANCH   1  12
TORSDOF 6
ENDMDL
MODEL 5
REMARK VINA RESULT: -4.673738674      2.518      2.977
REMARK  6 active torsions:
REMARK  status: ('A' for Active; 'I' for Inactive)
REMARK    1  A    between atoms: N1_1  and  C1_4 
REMARK    2  A    between atoms: C2_10  and  C3_11 
REMARK    3  A    between atoms: C3_11  and  C4_12 
REMARK    4  A    between atoms: C4_12  and  C5_13 
REMARK    5  A    between atoms: C5_13  and  N4_14 
REMARK    6  A    between atoms: C5_13  and  N5_18 
ROOT
HETATM    1  C3  UNL     1      13.017   6.672   6.494  1.00  0.00     0.067 C 
ENDROOT
BRANCH   1   2
HETATM    2  C2  UNL     1      12.839   5.328   5.957  1.00  0.00     0.079 A 
HETATM    3  C1  UNL     1      11.662   4.677   5.662  1.00  0.00     0.146 A 
HETATM    4  N2  UNL     1      11.994   3.441   5.184  1.00  0.00    -0.224 N 
HETATM    5  O1  UNL     1      13.298   3.362   5.193  1.00  0.00    -0.155 OA
ATOM      6  H2  UNL     1      11.346   2.716   4.876  1.00  0.00     0.198 HD
HETATM    7  N3  UNL     1      13.821   4.469   5.648  1.00  0.00    -0.242 N 
ATOM      8  H3  UNL     1      14.819   4.652   5.752  1.00  0.00     0.196 HD
BRANCH   3   9
HETATM    9  N1  UNL     1      10.462   5.108   5.794  1.00  0.00    -0.382 N 
ATOM     10  H12 UNL     1       9.928   5.698   5.156  1.00  0.00     0.157 HD
ATOM     11  H11 UNL     1       9.858   4.905   6.591  1.00  0.00     0.157 HD
ENDBRANCH   3   9
ENDBRANCH   1   2
BRANCH   1  12
HETATM   12  C4  UNL     1      14.297   6.858   7.271  1.00  0.00     0.068 C 
BRANCH  12  13
HETATM   13  C5  UNL     1      14.835   8.251   7.226  1.00  0.00     0.378 C 
BRANCH  13  14
HETATM   14  N4  UNL     1      16.093   8.278   6.551  1.00  0.00    -0.051 N 
ATOM     15  H43 UNL     1      15.981   8.411   5.545  1.00  0.00     0.276 HD
ATOM     16  H42 UNL     1      16.618   9.127   6.759  1.00  0.00     0.276 HD
ATOM     17  H41 UNL     1      16.629   7.437   6.766  1.00  0.00     0.276 HD
ENDBRANCH  13  14
BRANCH  13  18
HETATM   18  N5  UNL     1      15.061   8.682   8.593  1.00  0.00    -0.051 N 
ATOM     19  H53 UNL     1      15.039   7.910   9.261  1.00  0.00     0.276 HD
ATOM     20  H52 UNL     1      16.023   8.977   8.761  1.00  0.00     0.276 HD
ATOM     21  H51 UNL     1      14.379   9.410   8.807  1.00  0.00     0.276 HD
ENDBRANCH  13  18
ENDBRANCH  12  13
ENDBRANCH   1  12
TORSDOF 6
ENDMDL
