MODEL 1
REMARK VINA RESULT: -4.816525989      0.000      0.000
REMARK  6 active torsions:
REMARK  status: ('A' for Active; 'I' for Inactive)
REMARK    1  A    between atoms: N1_1  and  C1_4 
REMARK    2  A    between atoms: N3_8  and  C3_9 
REMARK    3  A    between atoms: C3_9  and  C4_10 
REMARK    4  A    between atoms: C4_10  and  C5_11 
REMARK    5  A    between atoms: C5_11  and  N4_12 
REMARK    6  A    between atoms: C5_11  and  N5_16 
ROOT
HETATM    1  C3  UNL     1      13.731   7.722   5.792  1.00  0.00     0.173 C 
ENDROOT
BRANCH   1   2
HETATM    2  N3  UNL     1      12.842   6.928   4.990  1.00  0.00    -0.233 N 
HETATM    3  N2  UNL     1      12.279   5.747   5.281  1.00  0.00    -0.292 N 
HETATM    4  C2  UNL     1      11.510   5.342   4.254  1.00  0.00     0.158 A 
ATOM      5  H2  UNL     1      12.414   5.232   6.151  1.00  0.00     0.188 HD
HETATM    6  C1  UNL     1      11.623   6.341   3.299  1.00  0.00     0.132 A 
HETATM    7  N6  UNL     1      12.442   7.296   3.777  1.00  0.00    -0.268 N 
ATOM      8  H6  UNL     1      12.709   8.153   3.293  1.00  0.00     0.190 HD
BRANCH   6   9
HETATM    9  N1  UNL     1      11.014   6.311   2.148  1.00  0.00    -0.383 N 
ATOM     10  H12 UNL     1      10.735   7.100   1.566  1.00  0.00     0.157 HD
ATOM     11  H11 UNL     1      10.735   5.449   1.681  1.00  0.00     0.157 HD
ENDBRANCH   6   9
ENDBRANCH   1   2
BRANCH   1  12
HETATM   12  C4  UNL     1      13.966   7.145   7.166  1.00  0.00     0.085 C 
BRANCH  12  13
HETATM   13  C5  UNL     1      15.275   7.767   7.672  1.00  0.00     0.379 C 
BRANCH  13  14
HETATM   14  N4  UNL     1      15.041   8.750   8.682  1.00  0.00    -0.050 N 
ATOM     15  H43 UNL     1      15.745   8.699   9.419  1.00  0.00     0.276 HD
ATOM     16  H42 UNL     1      15.237   9.690   8.338  1.00  0.00     0.276 HD
ATOM     17  H41 UNL     1      14.097   8.685   9.065  1.00  0.00     0.276 HD
ENDBRANCH  13  14
BRANCH  13  18
HETATM   18  N5  UNL     1      15.958   8.290   6.523  1.00  0.00    -0.050 N 
ATOM     19  H53 UNL     1      16.727   7.699   6.210  1.00  0.00     0.276 HD
ATOM     20  H52 UNL     1      15.402   8.244   5.669  1.00  0.00     0.276 HD
ATOM     21  H51 UNL     1      16.252   9.238   6.761  1.00  0.00     0.276 HD
ENDBRANCH  13  18
ENDBRANCH  12  13
ENDBRANCH   1  12
TORSDOF 6
ENDMDL
MODEL 2
REMARK VINA RESULT: -4.740737635      1.174      1.686
REMARK  6 active torsions:
REMARK  status: ('A' for Active; 'I' for Inactive)
REMARK    1  A    between atoms: N1_1  and  C1_4 
REMARK    2  A    between atoms: N3_8  and  C3_9 
REMARK    3  A    between atoms: C3_9  and  C4_10 
REMARK    4  A    between atoms: C4_10  and  C5_11 
REMARK    5  A    between atoms: C5_11  and  N4_12 
REMARK    6  A    between atoms: C5_11  and  N5_16 
ROOT
HETATM    1  C3  UNL     1      13.497   7.235   6.954  1.00  0.00     0.173 C 
ENDROOT
BRANCH   1   2
HETATM    2  N3  UNL     1      13.167   7.559   5.594  1.00  0.00    -0.233 N 
HETATM    3  N2  UNL     1      13.353   8.712   4.937  1.00  0.00    -0.292 N 
HETATM    4  C2  UNL     1      12.902   8.596   3.675  1.00  0.00     0.158 A 
ATOM      5  H2  UNL     1      13.773   9.552   5.335  1.00  0.00     0.188 HD
HETATM    6  C1  UNL     1      12.422   7.299   3.578  1.00  0.00     0.132 A 
HETATM    7  N6  UNL     1      12.598   6.690   4.764  1.00  0.00    -0.268 N 
ATOM      8  H6  UNL     1      12.339   5.729   4.988  1.00  0.00     0.190 HD
BRANCH   6   9
HETATM    9  N1  UNL     1      11.898   6.804   2.493  1.00  0.00    -0.383 N 
ATOM     10  H12 UNL     1      12.311   6.760   1.561  1.00  0.00     0.157 HD
ATOM     11  H11 UNL     1      10.969   6.386   2.455  1.00  0.00     0.157 HD
ENDBRANCH   6   9
ENDBRANCH   1   2
BRANCH   1  12
HETATM   12  C4  UNL     1      14.853   6.587   7.097  1.00  0.00     0.085 C 
BRANCH  12  13
HETATM   13  C5  UNL     1      15.784   7.667   7.664  1.00  0.00     0.379 C 
BRANCH  13  14
HETATM   14  N4  UNL     1      15.076   8.614   8.466  1.00  0.00    -0.050 N 
ATOM     15  H43 UNL     1      14.277   8.182   8.931  1.00  0.00     0.276 HD
ATOM     16  H42 UNL     1      15.615   8.881   9.289  1.00  0.00     0.276 HD
ATOM     17  H41 UNL     1      14.793   9.433   7.927  1.00  0.00     0.276 HD
ENDBRANCH  13  14
BRANCH  13  18
HETATM   18  N5  UNL     1      16.456   8.266   6.546  1.00  0.00    -0.050 N 
ATOM     19  H53 UNL     1      17.090   7.626   6.069  1.00  0.00     0.276 HD
ATOM     20  H52 UNL     1      15.836   8.447   5.756  1.00  0.00     0.276 HD
ATOM     21  H51 UNL     1      16.919   9.106   6.894  1.00  0.00     0.276 HD
ENDBRANCH  13  18
ENDBRANCH  12  13
ENDBRANCH   1  12
TORSDOF 6
ENDMDL
MODEL 3
REMARK VINA RESULT: -4.588611341      1.182      1.834
REMARK  6 active torsions:
REMARK  status: ('A' for Active; 'I' for Inactive)
REMARK    1  A    between atoms: N1_1  and  C1_4 
REMARK    2  A    between atoms: N3_8  and  C3_9 
REMARK    3  A    between atoms: C3_9  and  C4_10 
REMARK    4  A    between atoms: C4_10  and  C5_11 
REMARK    5  A    between atoms: C5_11  and  N4_12 
REMARK    6  A    between atoms: C5_11  and  N5_16 
ROOT
HETATM    1  C3  UNL     1      13.766   6.148   6.509  1.00  0.00     0.173 C 
ENDROOT
BRANCH   1   2
HETATM    2  N3  UNL     1      12.661   5.815   5.653  1.00  0.00    -0.233 N 
HETATM    3  N2  UNL     1      12.443   6.182   4.383  1.00  0.00    -0.292 N 
HETATM    4  C2  UNL     1      11.287   5.652   3.945  1.00  0.00     0.158 A 
ATOM      5  H2  UNL     1      13.062   6.776   3.830  1.00  0.00     0.188 HD
HETATM    6  C1  UNL     1      10.791   4.928   5.018  1.00  0.00     0.132 A 
HETATM    7  N6  UNL     1      11.651   5.044   6.046  1.00  0.00    -0.268 N 
ATOM      8  H6  UNL     1      11.547   4.617   6.966  1.00  0.00     0.190 HD
BRANCH   6   9
HETATM    9  N1  UNL     1       9.672   4.261   4.982  1.00  0.00    -0.383 N 
ATOM     10  H12 UNL     1       8.823   4.488   4.465  1.00  0.00     0.157 HD
ATOM     11  H11 UNL     1       9.515   3.395   5.497  1.00  0.00     0.157 HD
ENDBRANCH   6   9
ENDBRANCH   1   2
BRANCH   1  12
HETATM   12  C4  UNL     1      13.903   7.631   6.749  1.00  0.00     0.085 C 
BRANCH  12  13
HETATM   13  C5  UNL     1      15.210   7.818   7.531  1.00  0.00     0.379 C 
BRANCH  13  14
HETATM   14  N4  UNL     1      15.053   8.732   8.619  1.00  0.00    -0.050 N 
ATOM     15  H43 UNL     1      15.094   9.700   8.298  1.00  0.00     0.276 HD
ATOM     16  H42 UNL     1      14.099   8.722   8.979  1.00  0.00     0.276 HD
ATOM     17  H41 UNL     1      15.731   8.559   9.362  1.00  0.00     0.276 HD
ENDBRANCH  13  14
BRANCH  13  18
HETATM   18  N5  UNL     1      16.205   8.235   6.584  1.00  0.00    -0.050 N 
ATOM     19  H53 UNL     1      16.152   9.227   6.357  1.00  0.00     0.276 HD
ATOM     20  H52 UNL     1      17.149   8.241   6.970  1.00  0.00     0.276 HD
ATOM     21  H51 UNL     1      16.108   7.630   5.768  1.00  0.00     0.276 HD
ENDBRANCH  13  18
ENDBRANCH  12  13
ENDBRANCH   1  12
TORSDOF 6
ENDMDL
MODEL 4
REMARK VINA RESULT: -4.506492639      1.786      1.965
REMARK  6 active torsions:
REMARK  status: ('A' for Active; 'I' for Inactive)
REMARK    1  A    between atoms: N1_1  and  C1_4 
REMARK    2  A    between atoms: N3_8  and  C3_9 
REMARK    3  A    between atoms: C3_9  and  C4_10 
REMARK    4  A    between atoms: C4_10  and  C5_11 
REMARK    5  A    between atoms: C5_11  and  N4_12 
REMARK    6  A    between atoms: C5_11  and  N5_16 
ROOT
HETATM    1  C3  UNL     1      14.171   6.253   6.168  1.00  0.00     0.173 C 
ENDROOT
BRANCH   1   2
HETATM    2  N3  UNL     1      13.110   5.331   5.868  1.00  0.00    -0.233 N 
HETATM    3  N2  UNL     1      13.167   3.998   5.749  1.00  0.00    -0.292 N 
HETATM    4  C2  UNL     1      11.946   3.513   5.459  1.00  0.00     0.158 A 
ATOM      5  H2  UNL     1      14.010   3.434   5.862  1.00  0.00     0.188 HD
HETATM    6  C1  UNL     1      11.118   4.623   5.403  1.00  0.00     0.132 A 
HETATM    7  N6  UNL     1      11.856   5.719   5.658  1.00  0.00    -0.268 N 
ATOM      8  H6  UNL     1      11.513   6.679   5.685  1.00  0.00     0.190 HD
BRANCH   6   9
HETATM    9  N1  UNL     1       9.843   4.559   5.145  1.00  0.00    -0.383 N 
ATOM     10  H12 UNL     1       9.240   3.737   5.162  1.00  0.00     0.157 HD
ATOM     11  H11 UNL     1       9.279   5.367   4.882  1.00  0.00     0.157 HD
ENDBRANCH   6   9
ENDBRANCH   1   2
BRANCH   1  12
HETATM   12  C4  UNL     1      13.815   7.231   7.261  1.00  0.00     0.085 C 
BRANCH  12  13
HETATM   13  C5  UNL     1      15.142   7.818   7.758  1.00  0.00     0.379 C 
BRANCH  13  14
HETATM   14  N4  UNL     1      14.941   8.801   8.776  1.00  0.00    -0.050 N 
ATOM     15  H43 UNL     1      14.796   9.727   8.374  1.00  0.00     0.276 HD
ATOM     16  H42 UNL     1      14.038   8.681   9.235  1.00  0.00     0.276 HD
ATOM     17  H41 UNL     1      15.704   8.806   9.455  1.00  0.00     0.276 HD
ENDBRANCH  13  14
BRANCH  13  18
HETATM   18  N5  UNL     1      15.826   8.333   6.605  1.00  0.00    -0.050 N 
ATOM     19  H53 UNL     1      15.906   7.654   5.849  1.00  0.00     0.276 HD
ATOM     20  H52 UNL     1      15.284   9.031   6.096  1.00  0.00     0.276 HD
ATOM     21  H51 UNL     1      16.729   8.682   6.929  1.00  0.00     0.276 HD
ENDBRANCH  13  18
ENDBRANCH  12  13
ENDBRANCH   1  12
TORSDOF 6
ENDMDL
MODEL 5
REMARK VINA RESULT: -4.435738837      1.796      2.215
REMARK  6 active torsions:
REMARK  status: ('A' for Active; 'I' for Inactive)
REMARK    1  A    between atoms: N1_1  and  C1_4 
REMARK    2  A    between atoms: N3_8  and  C3_9 
REMARK    3  A    between atoms: C3_9  and  C4_10 
REMARK    4  A    between atoms: C4_10  and  C5_11 
REMARK    5  A    between atoms: C5_11  and  N4_12 
REMARK    6  A    between atoms: C5_11  and  N5_16 
ROOT
HETATM    1  C3  UNL     1      14.229   6.332   6.244  1.00  0.00     0.173 C 
ENDROOT
BRANCH   1   2
HETATM    2  N3  UNL     1      13.188   5.400   5.911  1.00  0.00    -0.233 N 
HETATM    3  N2  UNL     1      13.274   4.074   5.737  1.00  0.00    -0.292 N 
HETATM    4  C2  UNL     1      12.062   3.573   5.434  1.00  0.00     0.158 A 
ATOM      5  H2  UNL     1      14.130   3.526   5.821  1.00  0.00     0.188 HD
HETATM    6  C1  UNL     1      11.208   4.666   5.429  1.00  0.00     0.132 A 
HETATM    7  N6  UNL     1      11.924   5.767   5.725  1.00  0.00    -0.268 N 
ATOM      8  H6  UNL     1      11.559   6.717   5.794  1.00  0.00     0.190 HD
BRANCH   6   9
HETATM    9  N1  UNL     1       9.934   4.584   5.176  1.00  0.00    -0.383 N 
ATOM     10  H12 UNL     1       9.366   3.742   5.083  1.00  0.00     0.157 HD
ATOM     11  H11 UNL     1       9.333   5.395   5.033  1.00  0.00     0.157 HD
ENDBRANCH   6   9
ENDBRANCH   1   2
BRANCH   1  12
HETATM   12  C4  UNL     1      13.849   7.271   7.362  1.00  0.00     0.085 C 
BRANCH  12  13
HETATM   13  C5  UNL     1      14.859   8.425   7.313  1.00  0.00     0.379 C 
BRANCH  13  14
HETATM   14  N4  UNL     1      16.022   8.083   6.556  1.00  0.00    -0.050 N 
ATOM     15  H43 UNL     1      16.004   7.104   6.271  1.00  0.00     0.276 HD
ATOM     16  H42 UNL     1      16.006   8.519   5.634  1.00  0.00     0.276 HD
ATOM     17  H41 UNL     1      16.882   8.308   7.057  1.00  0.00     0.276 HD
ENDBRANCH  13  14
BRANCH  13  18
HETATM   18  N5  UNL     1      15.156   8.776   8.674  1.00  0.00    -0.050 N 
ATOM     19  H53 UNL     1      15.485   7.987   9.229  1.00  0.00     0.276 HD
ATOM     20  H52 UNL     1      15.990   9.356   8.766  1.00  0.00     0.276 HD
ATOM     21  H51 UNL     1      14.317   9.213   9.056  1.00  0.00     0.276 HD
ENDBRANCH  13  18
ENDBRANCH  12  13
ENDBRANCH   1  12
TORSDOF 6
ENDMDL
