MODEL 1
REMARK VINA RESULT: -4.949706668      0.000      0.000
REMARK  3 active torsions:
REMARK  status: ('A' for Active; 'I' for Inactive)
REMARK       I    between atoms: C1_4  and  N3_6 
REMARK    1  A    between atoms: N3_6  and  N4_8 
REMARK    2  A    between atoms: N5_10  and  N6_12 
REMARK    3  A    between atoms: N6_12  and  C2_14 
ROOT
HETATM    1  N4  UNL     1      12.945   6.574   4.854  1.00  0.00    -0.226 N 
ATOM      2  H4  UNL     1      12.761   6.785   3.873  1.00  0.00     0.210 HD
HETATM    3  N5  UNL     1      13.214   7.518   5.682  1.00  0.00    -0.232 N 
ATOM      4  H5  UNL     1      13.245   8.483   5.354  1.00  0.00     0.209 HD
ENDROOT
BRANCH   3   5
HETATM    5  N6  UNL     1      13.468   7.233   7.036  1.00  0.00    -0.313 N 
ATOM      6  H6  UNL     1      12.675   7.045   7.650  1.00  0.00     0.182 HD
BRANCH   5   7
HETATM    7  C2  UNL     1      14.787   7.195   7.593  1.00  0.00     0.152 C 
HETATM    8  C3  UNL     1      15.886   7.718   6.688  1.00  0.00     0.260 C 
HETATM    9  N7  UNL     1      15.508   9.057   7.132  1.00  0.00    -0.071 N 
HETATM   10  C4  UNL     1      15.126   8.444   8.398  1.00  0.00     0.260 C 
ATOM     11  H72 UNL     1      16.169   9.834   7.097  1.00  0.00     0.277 HD
ATOM     12  H71 UNL     1      14.852   9.628   6.599  1.00  0.00     0.277 HD
ENDBRANCH   5   7
ENDBRANCH   3   5
BRANCH   1  13
HETATM   13  N3  UNL     1      12.906   5.246   5.314  1.00  0.00    -0.258 N 
HETATM   14  C1  UNL     1      11.702   4.593   5.673  1.00  0.00     0.201 C 
HETATM   15  N1  UNL     1      11.493   3.347   5.482  1.00  0.00    -0.372 N 
HETATM   16  N2  UNL     1      10.656   5.347   6.280  1.00  0.00    -0.062 NA
ATOM     17  H12 UNL     1      10.626   2.877   5.739  1.00  0.00     0.158 HD
ATOM     18  H11 UNL     1      12.242   2.808   5.047  1.00  0.00     0.158 HD
ATOM     19  H3  UNL     1      13.783   4.731   5.394  1.00  0.00     0.191 HD
ENDBRANCH   1  13
TORSDOF 3
ENDMDL
MODEL 2
REMARK VINA RESULT: -4.944225636      0.854      1.194
REMARK  3 active torsions:
REMARK  status: ('A' for Active; 'I' for Inactive)
REMARK       I    between atoms: C1_4  and  N3_6 
REMARK    1  A    between atoms: N3_6  and  N4_8 
REMARK    2  A    between atoms: N5_10  and  N6_12 
REMARK    3  A    between atoms: N6_12  and  C2_14 
ROOT
HETATM    1  N4  UNL     1      12.683   6.556   4.700  1.00  0.00    -0.226 N 
ATOM      2  H4  UNL     1      12.201   6.604   3.802  1.00  0.00     0.210 HD
HETATM    3  N5  UNL     1      13.169   7.618   5.233  1.00  0.00    -0.232 N 
ATOM      4  H5  UNL     1      13.073   8.513   4.753  1.00  0.00     0.209 HD
ENDROOT
BRANCH   3   5
HETATM    5  N6  UNL     1      13.834   7.559   6.471  1.00  0.00    -0.313 N 
ATOM      6  H6  UNL     1      13.501   6.896   7.170  1.00  0.00     0.182 HD
BRANCH   5   7
HETATM    7  C2  UNL     1      14.957   8.387   6.796  1.00  0.00     0.152 C 
HETATM    8  C3  UNL     1      15.146   8.669   8.274  1.00  0.00     0.260 C 
HETATM    9  N7  UNL     1      15.811   7.370   8.358  1.00  0.00    -0.071 N 
HETATM   10  C4  UNL     1      16.244   7.591   6.984  1.00  0.00     0.260 C 
ATOM     11  H72 UNL     1      16.480   7.164   9.099  1.00  0.00     0.277 HD
ATOM     12  H71 UNL     1      15.299   6.529   8.624  1.00  0.00     0.277 HD
ENDBRANCH   5   7
ENDBRANCH   3   5
BRANCH   1  13
HETATM   13  N3  UNL     1      12.822   5.326   5.368  1.00  0.00    -0.258 N 
HETATM   14  C1  UNL     1      11.720   4.492   5.674  1.00  0.00     0.201 C 
HETATM   15  N1  UNL     1      11.781   3.215   5.670  1.00  0.00    -0.372 N 
HETATM   16  N2  UNL     1      10.469   5.086   6.009  1.00  0.00    -0.062 NA
ATOM     17  H12 UNL     1      10.987   2.614   5.891  1.00  0.00     0.158 HD
ATOM     18  H11 UNL     1      12.677   2.790   5.431  1.00  0.00     0.158 HD
ATOM     19  H3  UNL     1      13.755   5.023   5.643  1.00  0.00     0.191 HD
ENDBRANCH   1  13
TORSDOF 3
ENDMDL
MODEL 3
REMARK VINA RESULT: -4.844576344      1.364      1.863
REMARK  3 active torsions:
REMARK  status: ('A' for Active; 'I' for Inactive)
REMARK       I    between atoms: C1_4  and  N3_6 
REMARK    1  A    between atoms: N3_6  and  N4_8 
REMARK    2  A    between atoms: N5_10  and  N6_12 
REMARK    3  A    between atoms: N6_12  and  C2_14 
ROOT
HETATM    1  N4  UNL     1      13.201   4.783   5.786  1.00  0.00    -0.226 N 
ATOM      2  H4  UNL     1      13.502   3.887   5.402  1.00  0.00     0.210 HD
HETATM    3  N5  UNL     1      14.068   5.656   6.153  1.00  0.00    -0.232 N 
ATOM      4  H5  UNL     1      15.063   5.450   6.061  1.00  0.00     0.209 HD
ENDROOT
BRANCH   3   5
HETATM    5  N6  UNL     1      13.659   6.894   6.683  1.00  0.00    -0.313 N 
ATOM      6  H6  UNL     1      12.695   6.993   6.997  1.00  0.00     0.182 HD
BRANCH   5   7
HETATM    7  C2  UNL     1      14.536   8.021   6.801  1.00  0.00     0.152 C 
HETATM    8  C3  UNL     1      14.801   8.486   8.220  1.00  0.00     0.260 C 
HETATM    9  N7  UNL     1      15.806   7.429   8.297  1.00  0.00    -0.071 N 
HETATM   10  C4  UNL     1      16.006   7.622   6.867  1.00  0.00     0.260 C 
ATOM     11  H72 UNL     1      16.585   7.483   8.954  1.00  0.00     0.277 HD
ATOM     12  H71 UNL     1      15.582   6.511   8.682  1.00  0.00     0.277 HD
ENDBRANCH   5   7
ENDBRANCH   3   5
BRANCH   1  13
HETATM   13  N3  UNL     1      11.832   5.076   5.919  1.00  0.00    -0.258 N 
HETATM   14  C1  UNL     1      10.909   4.922   4.857  1.00  0.00     0.201 C 
HETATM   15  N1  UNL     1       9.696   4.555   5.026  1.00  0.00    -0.372 N 
HETATM   16  N2  UNL     1      11.333   5.185   3.522  1.00  0.00    -0.062 NA
ATOM     17  H12 UNL     1       9.031   4.444   4.261  1.00  0.00     0.158 HD
ATOM     18  H11 UNL     1       9.393   4.367   5.982  1.00  0.00     0.158 HD
ATOM     19  H3  UNL     1      11.490   5.413   6.818  1.00  0.00     0.191 HD
ENDBRANCH   1  13
TORSDOF 3
ENDMDL
MODEL 4
REMARK VINA RESULT: -4.819339078      1.550      2.062
REMARK  3 active torsions:
REMARK  status: ('A' for Active; 'I' for Inactive)
REMARK       I    between atoms: C1_4  and  N3_6 
REMARK    1  A    between atoms: N3_6  and  N4_8 
REMARK    2  A    between atoms: N5_10  and  N6_12 
REMARK    3  A    between atoms: N6_12  and  C2_14 
ROOT
HETATM    1  N4  UNL     1      12.050   5.721   5.787  1.00  0.00    -0.226 N 
ATOM      2  H4  UNL     1      11.334   4.999   5.867  1.00  0.00     0.210 HD
HETATM    3  N5  UNL     1      12.633   6.176   6.836  1.00  0.00    -0.232 N 
ATOM      4  H5  UNL     1      12.377   5.813   7.754  1.00  0.00     0.209 HD
ENDROOT
BRANCH   3   5
HETATM    5  N6  UNL     1      13.622   7.172   6.732  1.00  0.00    -0.313 N 
ATOM      6  H6  UNL     1      13.492   7.916   6.048  1.00  0.00     0.182 HD
BRANCH   5   7
HETATM    7  C2  UNL     1      14.803   7.188   7.543  1.00  0.00     0.152 C 
HETATM    8  C3  UNL     1      16.070   7.621   6.830  1.00  0.00     0.260 C 
HETATM    9  N7  UNL     1      15.637   8.997   7.060  1.00  0.00    -0.071 N 
HETATM   10  C4  UNL     1      14.998   8.511   8.276  1.00  0.00     0.260 C 
ATOM     11  H72 UNL     1      16.306   9.767   7.084  1.00  0.00     0.277 HD
ATOM     12  H71 UNL     1      15.112   9.512   6.354  1.00  0.00     0.277 HD
ENDBRANCH   5   7
ENDBRANCH   3   5
BRANCH   1  13
HETATM   13  N3  UNL     1      12.409   6.229   4.526  1.00  0.00    -0.258 N 
HETATM   14  C1  UNL     1      11.661   5.968   3.353  1.00  0.00     0.201 C 
HETATM   15  N1  UNL     1      11.522   6.814   2.404  1.00  0.00    -0.372 N 
HETATM   16  N2  UNL     1      11.024   4.703   3.200  1.00  0.00    -0.062 NA
ATOM     17  H12 UNL     1      10.982   6.626   1.559  1.00  0.00     0.158 HD
ATOM     18  H11 UNL     1      11.978   7.719   2.513  1.00  0.00     0.158 HD
ATOM     19  H3  UNL     1      13.244   6.810   4.453  1.00  0.00     0.191 HD
ENDBRANCH   1  13
TORSDOF 3
ENDMDL
MODEL 5
REMARK VINA RESULT: -4.690019662      1.112      5.145
REMARK  3 active torsions:
REMARK  status: ('A' for Active; 'I' for Inactive)
REMARK       I    between atoms: C1_4  and  N3_6 
REMARK    1  A    between atoms: N3_6  and  N4_8 
REMARK    2  A    between atoms: N5_10  and  N6_12 
REMARK    3  A    between atoms: N6_12  and  C2_14 
ROOT
HETATM    1  N4  UNL     1      13.367   7.661   5.671  1.00  0.00    -0.226 N 
ATOM      2  H4  UNL     1      13.337   8.589   5.249  1.00  0.00     0.210 HD
HETATM    3  N5  UNL     1      12.937   6.639   5.023  1.00  0.00    -0.232 N 
ATOM      4  H5  UNL     1      12.562   6.759   4.082  1.00  0.00     0.209 HD
ENDROOT
BRANCH   3   5
HETATM    5  N6  UNL     1      12.977   5.356   5.598  1.00  0.00    -0.313 N 
ATOM      6  H6  UNL     1      13.887   4.931   5.775  1.00  0.00     0.182 HD
BRANCH   5   7
HETATM    7  C2  UNL     1      11.800   4.619   5.948  1.00  0.00     0.152 C 
HETATM    8  C3  UNL     1      10.665   4.700   4.945  1.00  0.00     0.260 C 
HETATM    9  N7  UNL     1      11.355   3.652   4.196  1.00  0.00    -0.071 N 
HETATM   10  C4  UNL     1      11.849   3.169   5.479  1.00  0.00     0.260 C 
ATOM     11  H72 UNL     1      10.852   3.038   3.556  1.00  0.00     0.277 HD
ATOM     12  H71 UNL     1      11.993   3.878   3.433  1.00  0.00     0.277 HD
ENDBRANCH   5   7
ENDBRANCH   3   5
BRANCH   1  13
HETATM   13  N3  UNL     1      13.881   7.485   6.968  1.00  0.00    -0.258 N 
HETATM   14  C1  UNL     1      15.174   7.921   7.345  1.00  0.00     0.201 C 
HETATM   15  N1  UNL     1      15.454   8.368   8.510  1.00  0.00    -0.372 N 
HETATM   16  N2  UNL     1      16.233   7.865   6.394  1.00  0.00    -0.062 NA
ATOM     17  H12 UNL     1      16.386   8.683   8.781  1.00  0.00     0.158 HD
ATOM     18  H11 UNL     1      14.696   8.408   9.191  1.00  0.00     0.158 HD
ATOM     19  H3  UNL     1      13.298   7.025   7.666  1.00  0.00     0.191 HD
ENDBRANCH   1  13
TORSDOF 3
ENDMDL
