MODEL 1
REMARK VINA RESULT: -7.355536668      0.000      0.000
REMARK  7 active torsions:
REMARK  status: ('A' for Active; 'I' for Inactive)
REMARK    1  A    between atoms: C3_3  and  C4_4 
REMARK    2  A    between atoms: C4_4  and  N1_5 
REMARK    3  A    between atoms: C4_4  and  C7_10 
REMARK       I    between atoms: N1_5  and  C5_7 
REMARK       I    between atoms: C7_10  and  N2_12 
REMARK    4  A    between atoms: C11_17  and  N3_18 
REMARK    5  A    between atoms: N3_18  and  N4_19 
REMARK    6  A    between atoms: N3_18  and  C16_25 
REMARK    7  A    between atoms: N4_19  and  C12_21 
ROOT
HETATM    1  C1  UNL     1       8.123  13.252  21.041  1.00  0.00     0.012 C 
HETATM    2  C2  UNL     1       7.798  12.216  21.558  1.00  0.00    -0.115 C 
HETATM    3  C3  UNL     1       7.398  10.968  22.196  1.00  0.00     0.128 C 
ENDROOT
BRANCH   3   4
HETATM    4  C4  UNL     1       8.606  10.081  22.304  1.00  0.00     0.188 C 
BRANCH   4   5
HETATM    5  N1  UNL     1       8.729   9.586  23.650  1.00  0.00    -0.347 N 
HETATM    6  C5  UNL     1       9.974   9.362  24.293  1.00  0.00     0.214 C 
HETATM    7  C6  UNL     1      10.029   8.851  25.683  1.00  0.00     0.117 C 
HETATM    8  O1  UNL     1      11.011   9.617  23.638  1.00  0.00    -0.274 OA
ATOM      9  H1  UNL     1       7.875   9.384  24.170  1.00  0.00     0.163 HD
ENDBRANCH   4   5
BRANCH   4  10
HETATM   10  C7  UNL     1       8.608   9.013  21.299  1.00  0.00     0.245 C 
HETATM   11  O2  UNL     1       8.995   9.236  20.124  1.00  0.00    -0.271 OA
HETATM   12  N2  UNL     1       8.176   7.709  21.621  1.00  0.00    -0.330 N 
HETATM   13  C8  UNL     1       6.966   7.358  21.882  1.00  0.00     0.021 A 
ATOM     14  H2  UNL     1       8.888   6.978  21.650  1.00  0.00     0.168 HD
HETATM   15  C9  UNL     1       5.523   7.723  22.038  1.00  0.00     0.060 A 
HETATM   16  C11 UNL     1       6.039   6.292  22.232  1.00  0.00     0.164 A 
HETATM   17  C10 UNL     1       5.045   8.457  23.242  1.00  0.00     0.018 C 
BRANCH  16  18
HETATM   18  N3  UNL     1       5.474   5.397  21.237  1.00  0.00    -0.272 N 
BRANCH  18  19
HETATM   19  N4  UNL     1       5.984   5.435  19.967  1.00  0.00    -0.323 N 
ATOM     20  H4  UNL     1       5.750   6.199  19.334  1.00  0.00     0.181 HD
BRANCH  19  21
HETATM   21  C12 UNL     1       6.842   4.390  19.554  1.00  0.00     0.035 C 
HETATM   22  C13 UNL     1       6.188   3.218  18.886  1.00  0.00     0.039 C 
HETATM   23  C14 UNL     1       7.733   3.839  20.646  1.00  0.00     0.039 C 
HETATM   24  C15 UNL     1       7.801   4.987  18.512  1.00  0.00     0.039 C 
ENDBRANCH  19  21
ENDBRANCH  18  19
BRANCH  18  25
HETATM   25  C16 UNL     1       4.424   4.553  21.674  1.00  0.00     0.108 C 
HETATM   26  N5  UNL     1       4.521   3.853  22.746  1.00  0.00    -0.271 N 
HETATM   27  S1  UNL     1       3.285   2.807  23.334  1.00  0.00     0.249 S 
ATOM     28  H5  UNL     1       5.386   3.920  23.284  1.00  0.00     0.180 HD
HETATM   29  O3  UNL     1       3.821   1.404  23.274  1.00  0.00    -0.204 OA
HETATM   30  O4  UNL     1       2.803   3.186  24.686  1.00  0.00    -0.204 OA
HETATM   31  C17 UNL     1       1.939   2.883  22.146  1.00  0.00     0.225 C 
HETATM   32 CL1  UNL     1       0.411   2.465  22.920  1.00  0.00    -0.107 Cl
HETATM   33  C18 UNL     1       1.940   4.335  21.647  1.00  0.00     0.045 C 
HETATM   34  C19 UNL     1       3.199   4.502  20.840  1.00  0.00     0.081 C 
ENDBRANCH  18  25
ENDBRANCH  16  18
ENDBRANCH   4  10
ENDBRANCH   3   4
TORSDOF 7
ENDMDL
MODEL 2
REMARK VINA RESULT: -7.322312935      3.022      4.086
REMARK  7 active torsions:
REMARK  status: ('A' for Active; 'I' for Inactive)
REMARK    1  A    between atoms: C3_3  and  C4_4 
REMARK    2  A    between atoms: C4_4  and  N1_5 
REMARK    3  A    between atoms: C4_4  and  C7_10 
REMARK       I    between atoms: N1_5  and  C5_7 
REMARK       I    between atoms: C7_10  and  N2_12 
REMARK    4  A    between atoms: C11_17  and  N3_18 
REMARK    5  A    between atoms: N3_18  and  N4_19 
REMARK    6  A    between atoms: N3_18  and  C16_25 
REMARK    7  A    between atoms: N4_19  and  C12_21 
ROOT
HETATM    1  C1  UNL     1       8.036  12.806  21.060  1.00  0.00     0.012 C 
HETATM    2  C2  UNL     1       7.708  11.815  21.658  1.00  0.00    -0.115 C 
HETATM    3  C3  UNL     1       7.306  10.623  22.395  1.00  0.00     0.128 C 
ENDROOT
BRANCH   3   4
HETATM    4  C4  UNL     1       8.474   9.679  22.442  1.00  0.00     0.188 C 
BRANCH   4   5
HETATM    5  N1  UNL     1       8.648   9.185  23.784  1.00  0.00    -0.347 N 
HETATM    6  C5  UNL     1       9.907   9.105  24.433  1.00  0.00     0.214 C 
HETATM    7  C6  UNL     1      10.016   8.586  25.817  1.00  0.00     0.117 C 
HETATM    8  O1  UNL     1      10.910   9.489  23.787  1.00  0.00    -0.274 OA
ATOM      9  H1  UNL     1       7.821   8.877  24.295  1.00  0.00     0.163 HD
ENDBRANCH   4   5
BRANCH   4  10
HETATM   10  C7  UNL     1       8.367   8.607  21.448  1.00  0.00     0.245 C 
HETATM   11  O2  UNL     1       8.822   8.758  20.286  1.00  0.00    -0.271 OA
HETATM   12  N2  UNL     1       7.751   7.377  21.766  1.00  0.00    -0.330 N 
HETATM   13  C8  UNL     1       6.496   7.197  21.984  1.00  0.00     0.021 A 
ATOM     14  H2  UNL     1       8.356   6.557  21.828  1.00  0.00     0.168 HD
HETATM   15  C9  UNL     1       5.111   7.755  22.083  1.00  0.00     0.060 A 
HETATM   16  C11 UNL     1       5.421   6.270  22.309  1.00  0.00     0.164 A 
HETATM   17  C10 UNL     1       4.695   8.563  23.262  1.00  0.00     0.018 C 
BRANCH  16  18
HETATM   18  N3  UNL     1       4.776   5.446  21.302  1.00  0.00    -0.272 N 
BRANCH  18  19
HETATM   19  N4  UNL     1       3.419   5.549  21.153  1.00  0.00    -0.323 N 
ATOM     20  H4  UNL     1       3.015   6.221  20.502  1.00  0.00     0.181 HD
BRANCH  19  21
HETATM   21  C12 UNL     1       2.591   4.700  21.923  1.00  0.00     0.035 C 
HETATM   22  C13 UNL     1       3.116   4.302  23.270  1.00  0.00     0.039 C 
HETATM   23  C14 UNL     1       2.164   3.431  21.220  1.00  0.00     0.039 C 
HETATM   24  C15 UNL     1       1.289   5.472  22.191  1.00  0.00     0.039 C 
ENDBRANCH  19  21
ENDBRANCH  18  19
BRANCH  18  25
HETATM   25  C16 UNL     1       5.620   4.591  20.553  1.00  0.00     0.108 C 
HETATM   26  N5  UNL     1       6.097   4.939  19.413  1.00  0.00    -0.271 N 
HETATM   27  S1  UNL     1       7.128   3.950  18.452  1.00  0.00     0.249 S 
ATOM     28  H5  UNL     1       5.850   5.862  19.054  1.00  0.00     0.180 HD
HETATM   29  O3  UNL     1       6.382   3.622  17.189  1.00  0.00    -0.204 OA
HETATM   30  O4  UNL     1       8.453   4.571  18.198  1.00  0.00    -0.204 OA
HETATM   31  C17 UNL     1       7.324   2.398  19.337  1.00  0.00     0.225 C 
HETATM   32 CL1  UNL     1       8.831   1.610  18.872  1.00  0.00    -0.107 Cl
HETATM   33  C18 UNL     1       7.328   2.793  20.821  1.00  0.00     0.045 C 
HETATM   34  C19 UNL     1       5.935   3.263  21.136  1.00  0.00     0.081 C 
ENDBRANCH  18  25
ENDBRANCH  16  18
ENDBRANCH   4  10
ENDBRANCH   3   4
TORSDOF 7
ENDMDL
MODEL 3
REMARK VINA RESULT: -7.206648232      3.928      7.842
REMARK  7 active torsions:
REMARK  status: ('A' for Active; 'I' for Inactive)
REMARK    1  A    between atoms: C3_3  and  C4_4 
REMARK    2  A    between atoms: C4_4  and  N1_5 
REMARK    3  A    between atoms: C4_4  and  C7_10 
REMARK       I    between atoms: N1_5  and  C5_7 
REMARK       I    between atoms: C7_10  and  N2_12 
REMARK    4  A    between atoms: C11_17  and  N3_18 
REMARK    5  A    between atoms: N3_18  and  N4_19 
REMARK    6  A    between atoms: N3_18  and  C16_25 
REMARK    7  A    between atoms: N4_19  and  C12_21 
ROOT
HETATM    1  C1  UNL     1      10.038   2.339  17.660  1.00  0.00     0.012 C 
HETATM    2  C2  UNL     1       9.140   2.166  18.443  1.00  0.00    -0.115 C 
HETATM    3  C3  UNL     1       8.051   1.943  19.385  1.00  0.00     0.128 C 
ENDROOT
BRANCH   3   4
HETATM    4  C4  UNL     1       7.034   3.033  19.202  1.00  0.00     0.188 C 
BRANCH   4   5
HETATM    5  N1  UNL     1       5.791   2.468  18.744  1.00  0.00    -0.347 N 
HETATM    6  C5  UNL     1       5.391   2.454  17.383  1.00  0.00     0.214 C 
HETATM    7  C6  UNL     1       4.097   1.855  16.978  1.00  0.00     0.117 C 
HETATM    8  O1  UNL     1       6.175   2.965  16.549  1.00  0.00    -0.274 OA
ATOM      9  H1  UNL     1       5.165   2.056  19.435  1.00  0.00     0.163 HD
ENDBRANCH   4   5
BRANCH   4  10
HETATM   10  C7  UNL     1       6.878   3.860  20.403  1.00  0.00     0.245 C 
HETATM   11  O2  UNL     1       6.283   3.415  21.418  1.00  0.00    -0.271 OA
HETATM   12  N2  UNL     1       7.389   5.174  20.455  1.00  0.00    -0.330 N 
HETATM   13  C8  UNL     1       6.941   6.183  19.794  1.00  0.00     0.021 A 
ATOM     14  H2  UNL     1       8.185   5.339  21.072  1.00  0.00     0.168 HD
HETATM   15  C9  UNL     1       5.960   6.753  18.818  1.00  0.00     0.060 A 
HETATM   16  C11 UNL     1       7.049   7.602  19.486  1.00  0.00     0.164 A 
HETATM   17  C10 UNL     1       6.090   6.484  17.359  1.00  0.00     0.018 C 
BRANCH  16  18
HETATM   18  N3  UNL     1       6.462   8.627  20.332  1.00  0.00    -0.272 N 
BRANCH  18  19
HETATM   19  N4  UNL     1       5.380   9.317  19.856  1.00  0.00    -0.323 N 
ATOM     20  H4  UNL     1       4.445   8.912  19.894  1.00  0.00     0.181 HD
BRANCH  19  21
HETATM   21  C12 UNL     1       5.588  10.605  19.311  1.00  0.00     0.035 C 
HETATM   22  C13 UNL     1       6.870  10.809  18.560  1.00  0.00     0.039 C 
HETATM   23  C14 UNL     1       5.473  11.736  20.309  1.00  0.00     0.039 C 
HETATM   24  C15 UNL     1       4.462  10.846  18.294  1.00  0.00     0.039 C 
ENDBRANCH  19  21
ENDBRANCH  18  19
BRANCH  18  25
HETATM   25  C16 UNL     1       7.073   8.829  21.593  1.00  0.00     0.108 C 
HETATM   26  N5  UNL     1       6.492   8.494  22.688  1.00  0.00    -0.271 N 
HETATM   27  S1  UNL     1       7.177   8.711  24.253  1.00  0.00     0.249 S 
ATOM     28  H5  UNL     1       5.564   8.073  22.627  1.00  0.00     0.180 HD
HETATM   29  O3  UNL     1       6.316   9.703  24.984  1.00  0.00    -0.204 OA
HETATM   30  O4  UNL     1       7.347   7.435  24.991  1.00  0.00    -0.204 OA
HETATM   31  C17 UNL     1       8.769   9.510  24.011  1.00  0.00     0.225 C 
HETATM   32 CL1  UNL     1       9.843   9.163  25.365  1.00  0.00    -0.107 Cl
HETATM   33  C18 UNL     1       9.306   8.920  22.699  1.00  0.00     0.045 C 
HETATM   34  C19 UNL     1       8.420   9.449  21.605  1.00  0.00     0.081 C 
ENDBRANCH  18  25
ENDBRANCH  16  18
ENDBRANCH   4  10
ENDBRANCH   3   4
TORSDOF 7
ENDMDL
MODEL 4
REMARK VINA RESULT: -7.135131411      4.064      8.081
REMARK  7 active torsions:
REMARK  status: ('A' for Active; 'I' for Inactive)
REMARK    1  A    between atoms: C3_3  and  C4_4 
REMARK    2  A    between atoms: C4_4  and  N1_5 
REMARK    3  A    between atoms: C4_4  and  C7_10 
REMARK       I    between atoms: N1_5  and  C5_7 
REMARK       I    between atoms: C7_10  and  N2_12 
REMARK    4  A    between atoms: C11_17  and  N3_18 
REMARK    5  A    between atoms: N3_18  and  N4_19 
REMARK    6  A    between atoms: N3_18  and  C16_25 
REMARK    7  A    between atoms: N4_19  and  C12_21 
ROOT
HETATM    1  C1  UNL     1      10.355   0.847  18.038  1.00  0.00     0.012 C 
HETATM    2  C2  UNL     1       9.841   1.890  17.727  1.00  0.00    -0.115 C 
HETATM    3  C3  UNL     1       9.230   3.160  17.357  1.00  0.00     0.128 C 
ENDROOT
BRANCH   3   4
HETATM    4  C4  UNL     1       7.792   3.139  17.793  1.00  0.00     0.188 C 
BRANCH   4   5
HETATM    5  N1  UNL     1       7.130   1.989  17.233  1.00  0.00    -0.347 N 
HETATM    6  C5  UNL     1       6.469   1.997  15.978  1.00  0.00     0.214 C 
HETATM    7  C6  UNL     1       5.807   0.777  15.461  1.00  0.00     0.117 C 
HETATM    8  O1  UNL     1       6.472   3.074  15.336  1.00  0.00    -0.274 OA
ATOM      9  H1  UNL     1       7.137   1.121  17.769  1.00  0.00     0.163 HD
ENDBRANCH   4   5
BRANCH   4  10
HETATM   10  C7  UNL     1       7.647   3.231  19.249  1.00  0.00     0.245 C 
HETATM   11  O2  UNL     1       7.237   2.248  19.917  1.00  0.00    -0.271 OA
HETATM   12  N2  UNL     1       7.963   4.420  19.940  1.00  0.00    -0.330 N 
HETATM   13  C8  UNL     1       7.303   5.523  19.881  1.00  0.00     0.021 A 
ATOM     14  H2  UNL     1       8.788   4.403  20.540  1.00  0.00     0.168 HD
HETATM   15  C9  UNL     1       6.151   6.309  19.340  1.00  0.00     0.060 A 
HETATM   16  C11 UNL     1       7.169   6.904  20.321  1.00  0.00     0.164 A 
HETATM   17  C10 UNL     1       6.160   6.815  17.940  1.00  0.00     0.018 C 
BRANCH  16  18
HETATM   18  N3  UNL     1       6.533   7.260  21.577  1.00  0.00    -0.272 N 
BRANCH  18  19
HETATM   19  N4  UNL     1       5.205   6.969  21.736  1.00  0.00    -0.323 N 
ATOM     20  H4  UNL     1       4.889   6.003  21.817  1.00  0.00     0.181 HD
BRANCH  19  21
HETATM   21  C12 UNL     1       4.282   8.039  21.785  1.00  0.00     0.035 C 
HETATM   22  C13 UNL     1       4.696   9.306  21.098  1.00  0.00     0.039 C 
HETATM   23  C14 UNL     1       3.829   8.416  23.179  1.00  0.00     0.039 C 
HETATM   24  C15 UNL     1       3.011   7.564  21.062  1.00  0.00     0.039 C 
ENDBRANCH  19  21
ENDBRANCH  18  19
BRANCH  18  25
HETATM   25  C16 UNL     1       7.355   7.893  22.541  1.00  0.00     0.108 C 
HETATM   26  N5  UNL     1       7.279   7.602  23.790  1.00  0.00    -0.271 N 
HETATM   27  S1  UNL     1       8.247   8.331  25.014  1.00  0.00     0.249 S 
ATOM     28  H5  UNL     1       6.603   6.893  24.075  1.00  0.00     0.180 HD
HETATM   29  O3  UNL     1       7.322   9.102  25.914  1.00  0.00    -0.204 OA
HETATM   30  O4  UNL     1       9.087   7.351  25.747  1.00  0.00    -0.204 OA
HETATM   31  C17 UNL     1       9.281   9.551  24.193  1.00  0.00     0.225 C 
HETATM   32 CL1  UNL     1      10.744   9.848  25.131  1.00  0.00    -0.107 Cl
HETATM   33  C18 UNL     1       9.604   8.932  22.825  1.00  0.00     0.045 C 
HETATM   34  C19 UNL     1       8.312   8.916  22.055  1.00  0.00     0.081 C 
ENDBRANCH  18  25
ENDBRANCH  16  18
ENDBRANCH   4  10
ENDBRANCH   3   4
TORSDOF 7
ENDMDL
MODEL 5
REMARK VINA RESULT: -7.090691797      3.174      4.765
REMARK  7 active torsions:
REMARK  status: ('A' for Active; 'I' for Inactive)
REMARK    1  A    between atoms: C3_3  and  C4_4 
REMARK    2  A    between atoms: C4_4  and  N1_5 
REMARK    3  A    between atoms: C4_4  and  C7_10 
REMARK       I    between atoms: N1_5  and  C5_7 
REMARK       I    between atoms: C7_10  and  N2_12 
REMARK    4  A    between atoms: C11_17  and  N3_18 
REMARK    5  A    between atoms: N3_18  and  N4_19 
REMARK    6  A    between atoms: N3_18  and  C16_25 
REMARK    7  A    between atoms: N4_19  and  C12_21 
ROOT
HETATM    1  C1  UNL     1       8.522   8.332  25.909  1.00  0.00     0.012 C 
HETATM    2  C2  UNL     1       8.999   8.685  24.862  1.00  0.00    -0.115 C 
HETATM    3  C3  UNL     1       9.584   9.123  23.601  1.00  0.00     0.128 C 
ENDROOT
BRANCH   3   4
HETATM    4  C4  UNL     1       8.474   9.336  22.611  1.00  0.00     0.188 C 
BRANCH   4   5
HETATM    5  N1  UNL     1       8.601  10.639  22.009  1.00  0.00    -0.347 N 
HETATM    6  C5  UNL     1       7.493  11.420  21.589  1.00  0.00     0.214 C 
HETATM    7  C6  UNL     1       7.694  12.754  20.976  1.00  0.00     0.117 C 
HETATM    8  O1  UNL     1       6.351  10.933  21.759  1.00  0.00    -0.274 OA
ATOM      9  H1  UNL     1       9.537  11.020  21.878  1.00  0.00     0.163 HD
ENDBRANCH   4   5
BRANCH   4  10
HETATM   10  C7  UNL     1       8.389   8.256  21.624  1.00  0.00     0.245 C 
HETATM   11  O2  UNL     1       8.925   8.375  20.492  1.00  0.00    -0.271 OA
HETATM   12  N2  UNL     1       7.707   7.055  21.913  1.00  0.00    -0.330 N 
HETATM   13  C8  UNL     1       6.434   6.926  22.051  1.00  0.00     0.021 A 
ATOM     14  H2  UNL     1       8.274   6.214  22.023  1.00  0.00     0.168 HD
HETATM   15  C9  UNL     1       5.069   7.538  22.053  1.00  0.00     0.060 A 
HETATM   16  C11 UNL     1       5.305   6.046  22.315  1.00  0.00     0.164 A 
HETATM   17  C10 UNL     1       4.609   8.378  23.194  1.00  0.00     0.018 C 
BRANCH  16  18
HETATM   18  N3  UNL     1       4.695   5.234  21.276  1.00  0.00    -0.272 N 
BRANCH  18  19
HETATM   19  N4  UNL     1       3.337   5.302  21.115  1.00  0.00    -0.323 N 
ATOM     20  H4  UNL     1       2.921   5.988  20.486  1.00  0.00     0.181 HD
BRANCH  19  21
HETATM   21  C12 UNL     1       2.526   4.400  21.841  1.00  0.00     0.035 C 
HETATM   22  C13 UNL     1       3.044   3.972  23.182  1.00  0.00     0.039 C 
HETATM   23  C14 UNL     1       2.153   3.143  21.087  1.00  0.00     0.039 C 
HETATM   24  C15 UNL     1       1.195   5.118  22.114  1.00  0.00     0.039 C 
ENDBRANCH  19  21
ENDBRANCH  18  19
BRANCH  18  25
HETATM   25  C16 UNL     1       5.572   4.426  20.513  1.00  0.00     0.108 C 
HETATM   26  N5  UNL     1       6.034   4.813  19.379  1.00  0.00    -0.271 N 
HETATM   27  S1  UNL     1       7.102   3.882  18.401  1.00  0.00     0.249 S 
ATOM     28  H5  UNL     1       5.750   5.731  19.036  1.00  0.00     0.180 HD
HETATM   29  O3  UNL     1       6.369   3.547  17.132  1.00  0.00    -0.204 OA
HETATM   30  O4  UNL     1       8.401   4.558  18.158  1.00  0.00    -0.204 OA
HETATM   31  C17 UNL     1       7.359   2.323  19.258  1.00  0.00     0.225 C 
HETATM   32 CL1  UNL     1       8.895   1.603  18.779  1.00  0.00    -0.107 Cl
HETATM   33  C18 UNL     1       7.348   2.692  20.749  1.00  0.00     0.045 C 
HETATM   34  C19 UNL     1       5.938   3.102  21.072  1.00  0.00     0.081 C 
ENDBRANCH  18  25
ENDBRANCH  16  18
ENDBRANCH   4  10
ENDBRANCH   3   4
TORSDOF 7
ENDMDL
