MODEL 1
REMARK VINA RESULT: -8.440232478      0.000      0.000
REMARK  5 active torsions:
REMARK  status: ('A' for Active; 'I' for Inactive)
REMARK    1  A    between atoms: N2_5  and  C4_6 
REMARK    2  A    between atoms: C4_6  and  C5_7 
REMARK       I    between atoms: C5_7  and  N3_9 
REMARK    3  A    between atoms: N3_9  and  C6_11 
REMARK    4  A    between atoms: C11_16  and  C12_17 
REMARK    5  A    between atoms: C17_25  and  C18_26 
ROOT
HETATM    1  C18 UNL     1       8.305  10.065  23.292  1.00  0.00     0.150 C 
HETATM    2  C19 UNL     1       9.099   9.153  24.113  1.00  0.00     0.061 C 
HETATM    3  N5  UNL     1       9.748   8.435  24.784  1.00  0.00    -0.197 NA
ENDROOT
BRANCH   1   4
HETATM    4  C17 UNL     1       7.307   9.272  22.440  1.00  0.00     0.125 C 
HETATM    5  N2  UNL     1       7.949   8.336  21.604  1.00  0.00    -0.376 N 
HETATM    6  C3  UNL     1       8.151   8.693  20.256  1.00  0.00     0.089 C 
HETATM    7  C2  UNL     1       8.014  10.156  19.962  1.00  0.00     0.316 C 
HETATM    8  N1  UNL     1       6.822  10.716  20.501  1.00  0.00     0.090 N 
HETATM    9  C1  UNL     1       6.903  12.172  20.452  1.00  0.00     0.310 C 
HETATM   10  C20 UNL     1       6.384  10.231  21.754  1.00  0.00     0.298 C 
BRANCH   5  11
HETATM   11  C4  UNL     1       7.814   6.962  21.914  1.00  0.00     0.225 C 
BRANCH  11  12
HETATM   12  C5  UNL     1       7.010   6.247  20.903  1.00  0.00     0.235 C 
HETATM   13  O1  UNL     1       5.826   6.593  20.655  1.00  0.00    -0.272 OA
HETATM   14  N3  UNL     1       7.544   5.153  20.180  1.00  0.00    -0.353 N 
ATOM     15  H3  UNL     1       8.501   4.845  20.352  1.00  0.00     0.163 HD
BRANCH  14  16
HETATM   16  C6  UNL     1       6.740   4.485  19.211  1.00  0.00     0.107 C 
HETATM   17  C7  UNL     1       7.326   4.709  17.814  1.00  0.00     0.011 C 
HETATM   18  C8  UNL     1       6.308   4.170  16.839  1.00  0.00     0.011 C 
HETATM   19  C13 UNL     1       8.636   3.981  17.716  1.00  0.00     0.025 C 
HETATM   20  C9  UNL     1       6.054   2.719  17.127  1.00  0.00    -0.011 C 
HETATM   21  C10 UNL     1       7.358   1.975  16.943  1.00  0.00     0.023 C 
HETATM   22  C16 UNL     1       5.565   2.462  18.523  1.00  0.00     0.027 C 
HETATM   23  C11 UNL     1       8.405   2.496  17.887  1.00  0.00     0.041 C 
HETATM   24  C14 UNL     1       7.900   2.268  19.301  1.00  0.00     0.042 C 
HETATM   25  C15 UNL     1       6.604   3.001  19.480  1.00  0.00     0.040 C 
HETATM   26 BR1  UNL     1       5.959   2.754  21.273  1.00  0.00    -0.083 Br
BRANCH  23  27
HETATM   27  C12 UNL     1       9.674   1.801  17.639  1.00  0.00     0.239 C 
HETATM   28  N4  UNL     1       9.708   0.531  17.021  1.00  0.00    -0.061 NA
HETATM   29  O2  UNL     1      10.768   2.358  17.987  1.00  0.00    -0.276 OA
ENDBRANCH  23  27
ENDBRANCH  14  16
ENDBRANCH  11  12
ENDBRANCH   5  11
ENDBRANCH   1   4
TORSDOF 5
ENDMDL
MODEL 2
REMARK VINA RESULT: -8.252999376      1.149      2.401
REMARK  5 active torsions:
REMARK  status: ('A' for Active; 'I' for Inactive)
REMARK    1  A    between atoms: N2_5  and  C4_6 
REMARK    2  A    between atoms: C4_6  and  C5_7 
REMARK       I    between atoms: C5_7  and  N3_9 
REMARK    3  A    between atoms: N3_9  and  C6_11 
REMARK    4  A    between atoms: C11_16  and  C12_17 
REMARK    5  A    between atoms: C17_25  and  C18_26 
ROOT
HETATM    1  C18 UNL     1       7.274  10.577  22.123  1.00  0.00     0.150 C 
HETATM    2  C19 UNL     1       7.886  11.891  21.938  1.00  0.00     0.061 C 
HETATM    3  N5  UNL     1       8.361  12.959  21.794  1.00  0.00    -0.197 NA
ENDROOT
BRANCH   1   4
HETATM    4  C17 UNL     1       8.326   9.476  21.943  1.00  0.00     0.125 C 
HETATM    5  N2  UNL     1       7.793   8.330  21.318  1.00  0.00    -0.376 N 
HETATM    6  C3  UNL     1       7.432   7.245  22.140  1.00  0.00     0.089 C 
HETATM    7  C2  UNL     1       7.290   7.575  23.596  1.00  0.00     0.316 C 
HETATM    8  N1  UNL     1       8.405   8.297  24.107  1.00  0.00     0.090 N 
HETATM    9  C1  UNL     1       8.070   8.847  25.416  1.00  0.00     0.310 C 
HETATM   10  C20 UNL     1       9.015   9.243  23.253  1.00  0.00     0.298 C 
BRANCH   5  11
HETATM   11  C4  UNL     1       8.188   8.053  19.987  1.00  0.00     0.225 C 
BRANCH  11  12
HETATM   12  C5  UNL     1       7.301   7.059  19.349  1.00  0.00     0.235 C 
HETATM   13  O1  UNL     1       6.153   7.380  18.948  1.00  0.00    -0.272 OA
HETATM   14  N3  UNL     1       7.713   5.717  19.167  1.00  0.00    -0.353 N 
ATOM     15  H3  UNL     1       8.638   5.420  19.479  1.00  0.00     0.163 HD
BRANCH  14  16
HETATM   16  C6  UNL     1       6.833   4.783  18.548  1.00  0.00     0.107 C 
HETATM   17  C7  UNL     1       7.260   4.558  17.096  1.00  0.00     0.011 C 
HETATM   18  C8  UNL     1       6.162   3.745  16.454  1.00  0.00     0.011 C 
HETATM   19  C13 UNL     1       8.574   3.830  17.085  1.00  0.00     0.025 C 
HETATM   20  C9  UNL     1       5.984   2.458  17.204  1.00  0.00    -0.011 C 
HETATM   21  C10 UNL     1       7.283   1.688  17.119  1.00  0.00     0.023 C 
HETATM   22  C16 UNL     1       5.653   2.651  18.656  1.00  0.00     0.027 C 
HETATM   23  C11 UNL     1       8.407   2.474  17.733  1.00  0.00     0.041 C 
HETATM   24  C14 UNL     1       8.062   2.700  19.195  1.00  0.00     0.042 C 
HETATM   25  C15 UNL     1       6.771   3.458  19.278  1.00  0.00     0.040 C 
HETATM   26 BR1  UNL     1       6.326   3.785  21.118  1.00  0.00    -0.083 Br
BRANCH  23  27
HETATM   27  C12 UNL     1       9.664   1.731  17.575  1.00  0.00     0.239 C 
HETATM   28  N4  UNL     1       9.692   0.454  16.970  1.00  0.00    -0.061 NA
HETATM   29  O2  UNL     1      10.752   2.250  17.992  1.00  0.00    -0.276 OA
ENDBRANCH  23  27
ENDBRANCH  14  16
ENDBRANCH  11  12
ENDBRANCH   5  11
ENDBRANCH   1   4
TORSDOF 5
ENDMDL
MODEL 3
REMARK VINA RESULT: -8.084544435      1.437      2.386
REMARK  5 active torsions:
REMARK  status: ('A' for Active; 'I' for Inactive)
REMARK    1  A    between atoms: N2_5  and  C4_6 
REMARK    2  A    between atoms: C4_6  and  C5_7 
REMARK       I    between atoms: C5_7  and  N3_9 
REMARK    3  A    between atoms: N3_9  and  C6_11 
REMARK    4  A    between atoms: C11_16  and  C12_17 
REMARK    5  A    between atoms: C17_25  and  C18_26 
ROOT
HETATM    1  C18 UNL     1       6.675  10.413  22.108  1.00  0.00     0.150 C 
HETATM    2  C19 UNL     1       7.695  11.085  21.305  1.00  0.00     0.061 C 
HETATM    3  N5  UNL     1       8.503  11.643  20.656  1.00  0.00    -0.197 NA
ENDROOT
BRANCH   1   4
HETATM    4  C17 UNL     1       7.236   9.109  22.687  1.00  0.00     0.125 C 
HETATM    5  N2  UNL     1       6.774   7.976  21.989  1.00  0.00    -0.376 N 
HETATM    6  C3  UNL     1       5.703   7.253  22.549  1.00  0.00     0.089 C 
HETATM    7  C2  UNL     1       4.931   7.984  23.606  1.00  0.00     0.316 C 
HETATM    8  N1  UNL     1       5.772   8.567  24.596  1.00  0.00     0.090 N 
HETATM    9  C1  UNL     1       4.998   9.507  25.401  1.00  0.00     0.310 C 
HETATM   10  C20 UNL     1       7.010   9.098  24.168  1.00  0.00     0.298 C 
BRANCH   5  11
HETATM   11  C4  UNL     1       7.694   7.273  21.174  1.00  0.00     0.225 C 
BRANCH  11  12
HETATM   12  C5  UNL     1       7.013   6.510  20.109  1.00  0.00     0.235 C 
HETATM   13  O1  UNL     1       6.151   7.056  19.373  1.00  0.00    -0.272 OA
HETATM   14  N3  UNL     1       7.307   5.145  19.882  1.00  0.00    -0.353 N 
ATOM     15  H3  UNL     1       8.001   4.668  20.458  1.00  0.00     0.163 HD
BRANCH  14  16
HETATM   16  C6  UNL     1       6.630   4.437  18.846  1.00  0.00     0.107 C 
HETATM   17  C7  UNL     1       7.370   4.634  17.520  1.00  0.00     0.011 C 
HETATM   18  C8  UNL     1       6.479   4.052  16.450  1.00  0.00     0.011 C 
HETATM   19  C13 UNL     1       8.692   3.926  17.594  1.00  0.00     0.025 C 
HETATM   20  C9  UNL     1       6.214   2.606  16.747  1.00  0.00    -0.011 C 
HETATM   21  C10 UNL     1       7.541   1.879  16.736  1.00  0.00     0.023 C 
HETATM   22  C16 UNL     1       5.571   2.377  18.085  1.00  0.00     0.027 C 
HETATM   23  C11 UNL     1       8.464   2.443  17.780  1.00  0.00     0.041 C 
HETATM   24  C14 UNL     1       7.802   2.243  19.132  1.00  0.00     0.042 C 
HETATM   25  C15 UNL     1       6.484   2.959  19.140  1.00  0.00     0.040 C 
HETATM   26 BR1  UNL     1       5.640   2.748  20.852  1.00  0.00    -0.083 Br
BRANCH  23  27
HETATM   27  C12 UNL     1       9.763   1.764  17.699  1.00  0.00     0.239 C 
HETATM   28  N4  UNL     1       9.870   0.435  17.229  1.00  0.00    -0.061 NA
HETATM   29  O2  UNL     1      10.816   2.387  18.059  1.00  0.00    -0.276 OA
ENDBRANCH  23  27
ENDBRANCH  14  16
ENDBRANCH  11  12
ENDBRANCH   5  11
ENDBRANCH   1   4
TORSDOF 5
ENDMDL
MODEL 4
REMARK VINA RESULT: -7.957765479      2.509      7.444
REMARK  5 active torsions:
REMARK  status: ('A' for Active; 'I' for Inactive)
REMARK    1  A    between atoms: N2_5  and  C4_6 
REMARK    2  A    between atoms: C4_6  and  C5_7 
REMARK       I    between atoms: C5_7  and  N3_9 
REMARK    3  A    between atoms: N3_9  and  C6_11 
REMARK    4  A    between atoms: C11_16  and  C12_17 
REMARK    5  A    between atoms: C17_25  and  C18_26 
ROOT
HETATM    1  C18 UNL     1       7.857   1.969  19.180  1.00  0.00     0.150 C 
HETATM    2  C19 UNL     1       9.163   1.916  18.526  1.00  0.00     0.061 C 
HETATM    3  N5  UNL     1      10.213   1.853  17.997  1.00  0.00    -0.197 NA
ENDROOT
BRANCH   1   4
HETATM    4  C17 UNL     1       7.493   3.420  19.513  1.00  0.00     0.125 C 
HETATM    5  N2  UNL     1       6.142   3.556  19.888  1.00  0.00    -0.376 N 
HETATM    6  C3  UNL     1       5.234   4.012  18.912  1.00  0.00     0.089 C 
HETATM    7  C2  UNL     1       5.729   3.927  17.500  1.00  0.00     0.316 C 
HETATM    8  N1  UNL     1       7.028   4.486  17.339  1.00  0.00     0.090 N 
HETATM    9  C1  UNL     1       7.568   4.097  16.040  1.00  0.00     0.310 C 
HETATM   10  C20 UNL     1       7.951   4.305  18.394  1.00  0.00     0.298 C 
BRANCH   5  11
HETATM   11  C4  UNL     1       5.851   3.833  21.246  1.00  0.00     0.225 C 
BRANCH  11  12
HETATM   12  C5  UNL     1       5.528   5.258  21.458  1.00  0.00     0.235 C 
HETATM   13  O1  UNL     1       4.343   5.672  21.376  1.00  0.00    -0.272 OA
HETATM   14  N3  UNL     1       6.538   6.203  21.761  1.00  0.00    -0.353 N 
ATOM     15  H3  UNL     1       7.510   5.905  21.837  1.00  0.00     0.163 HD
BRANCH  14  16
HETATM   16  C6  UNL     1       6.192   7.572  21.959  1.00  0.00     0.107 C 
HETATM   17  C7  UNL     1       6.146   7.879  23.458  1.00  0.00     0.011 C 
HETATM   18  C8  UNL     1       5.560   9.264  23.587  1.00  0.00     0.011 C 
HETATM   19  C13 UNL     1       7.541   7.808  24.009  1.00  0.00     0.025 C 
HETATM   20  C9  UNL     1       6.407  10.241  22.828  1.00  0.00    -0.011 C 
HETATM   21  C10 UNL     1       7.790  10.231  23.441  1.00  0.00     0.023 C 
HETATM   22  C16 UNL     1       6.544   9.911  21.369  1.00  0.00     0.027 C 
HETATM   23  C11 UNL     1       8.402   8.861  23.347  1.00  0.00     0.041 C 
HETATM   24  C14 UNL     1       8.512   8.509  21.874  1.00  0.00     0.042 C 
HETATM   25  C15 UNL     1       7.141   8.526  21.266  1.00  0.00     0.040 C 
HETATM   26 BR1  UNL     1       7.248   8.053  19.407  1.00  0.00    -0.083 Br
BRANCH  23  27
HETATM   27  C12 UNL     1       9.712   8.867  24.009  1.00  0.00     0.239 C 
HETATM   28  N4  UNL     1       9.947   8.114  25.182  1.00  0.00    -0.061 NA
HETATM   29  O2  UNL     1      10.658   9.565  23.514  1.00  0.00    -0.276 OA
ENDBRANCH  23  27
ENDBRANCH  14  16
ENDBRANCH  11  12
ENDBRANCH   5  11
ENDBRANCH   1   4
TORSDOF 5
ENDMDL
MODEL 5
REMARK VINA RESULT: -7.813385766      2.217      2.964
REMARK  5 active torsions:
REMARK  status: ('A' for Active; 'I' for Inactive)
REMARK    1  A    between atoms: N2_5  and  C4_6 
REMARK    2  A    between atoms: C4_6  and  C5_7 
REMARK       I    between atoms: C5_7  and  N3_9 
REMARK    3  A    between atoms: N3_9  and  C6_11 
REMARK    4  A    between atoms: C11_16  and  C12_17 
REMARK    5  A    between atoms: C17_25  and  C18_26 
ROOT
HETATM    1  C18 UNL     1       9.042   9.418  24.090  1.00  0.00     0.150 C 
HETATM    2  C19 UNL     1       9.506   8.477  25.109  1.00  0.00     0.061 C 
HETATM    3  N5  UNL     1       9.886   7.737  25.940  1.00  0.00    -0.197 NA
ENDROOT
BRANCH   1   4
HETATM    4  C17 UNL     1       8.271   8.670  22.996  1.00  0.00     0.125 C 
HETATM    5  N2  UNL     1       7.957   9.504  21.904  1.00  0.00    -0.376 N 
HETATM    6  C3  UNL     1       6.657  10.043  21.844  1.00  0.00     0.089 C 
HETATM    7  C2  UNL     1       5.889   9.987  23.130  1.00  0.00     0.316 C 
HETATM    8  N1  UNL     1       5.917   8.697  23.731  1.00  0.00     0.090 N 
HETATM    9  C1  UNL     1       5.430   8.788  25.103  1.00  0.00     0.310 C 
HETATM   10  C20 UNL     1       7.114   7.953  23.621  1.00  0.00     0.298 C 
BRANCH   5  11
HETATM   11  C4  UNL     1       8.645   9.294  20.685  1.00  0.00     0.225 C 
BRANCH  11  12
HETATM   12  C5  UNL     1       7.817   8.562  19.706  1.00  0.00     0.235 C 
HETATM   13  O1  UNL     1       7.331   9.147  18.704  1.00  0.00    -0.272 OA
HETATM   14  N3  UNL     1       7.542   7.182  19.863  1.00  0.00    -0.353 N 
ATOM     15  H3  UNL     1       7.919   6.673  20.662  1.00  0.00     0.163 HD
BRANCH  14  16
HETATM   16  C6  UNL     1       6.738   6.506  18.899  1.00  0.00     0.107 C 
HETATM   17  C7  UNL     1       7.607   5.542  18.088  1.00  0.00     0.011 C 
HETATM   18  C8  UNL     1       6.740   5.042  16.958  1.00  0.00     0.011 C 
HETATM   19  C13 UNL     1       8.057   4.424  18.985  1.00  0.00     0.025 C 
HETATM   20  C9  UNL     1       5.518   4.376  17.518  1.00  0.00    -0.011 C 
HETATM   21  C10 UNL     1       5.971   3.199  18.353  1.00  0.00     0.023 C 
HETATM   22  C16 UNL     1       4.694   5.276  18.394  1.00  0.00     0.027 C 
HETATM   23  C11 UNL     1       6.853   3.656  19.481  1.00  0.00     0.041 C 
HETATM   24  C14 UNL     1       6.033   4.591  20.351  1.00  0.00     0.042 C 
HETATM   25  C15 UNL     1       5.579   5.756  19.522  1.00  0.00     0.040 C 
HETATM   26 BR1  UNL     1       4.565   6.972  20.608  1.00  0.00    -0.083 Br
BRANCH  23  27
HETATM   27  C12 UNL     1       7.330   2.486  20.230  1.00  0.00     0.239 C 
HETATM   28  N4  UNL     1       6.969   2.282  21.580  1.00  0.00    -0.061 NA
HETATM   29  O2  UNL     1       8.085   1.638  19.648  1.00  0.00    -0.276 OA
ENDBRANCH  23  27
ENDBRANCH  14  16
ENDBRANCH  11  12
ENDBRANCH   5  11
ENDBRANCH   1   4
TORSDOF 5
ENDMDL
