MODEL 1
REMARK VINA RESULT: -7.422979764      0.000      0.000
REMARK  8 active torsions:
REMARK  status: ('A' for Active; 'I' for Inactive)
REMARK    1  A    between atoms: C2_2  and  C3_3 
REMARK    2  A    between atoms: C3_3  and  C4_4 
REMARK    3  A    between atoms: C4_4  and  O1_5 
REMARK    4  A    between atoms: C4_4  and  N1_7 
REMARK    5  A    between atoms: C5_8  and  C6_9 
REMARK    6  A    between atoms: C9_15  and  C10_16 
REMARK       I    between atoms: C10_16  and  N2_18 
REMARK    7  A    between atoms: N2_18  and  C11_20 
REMARK    8  A    between atoms: C15_24  and  C16_25 
ROOT
HETATM    1  N1  UNL     1       6.161   7.388  21.904  1.00  0.00    -0.312 N 
HETATM    2  C5  UNL     1       5.790   8.681  21.173  1.00  0.00     0.253 C 
HETATM    3  C7  UNL     1       6.585   9.512  22.020  1.00  0.00     0.208 C 
HETATM    4  O4  UNL     1       6.875  10.773  22.244  1.00  0.00    -0.345 OA
HETATM    5  C8  UNL     1       8.124  10.316  22.741  1.00  0.00     0.152 C 
HETATM    6  C9  UNL     1       8.131   9.453  23.940  1.00  0.00     0.112 C 
HETATM    7  C14 UNL     1       7.804   7.986  23.676  1.00  0.00     0.079 C 
HETATM    8  C15 UNL     1       6.359   7.778  23.243  1.00  0.00     0.152 C 
HETATM    9  O6  UNL     1       5.969   9.157  23.168  1.00  0.00    -0.320 OA
HETATM   10  C17 UNL     1       7.944   9.371  21.614  1.00  0.00     0.046 A 
HETATM   11  C18 UNL     1       8.803   8.844  20.679  1.00  0.00     0.019 A 
HETATM   12  C19 UNL     1       8.199  10.112  20.252  1.00  0.00     0.019 A 
ENDROOT
BRANCH   6  13
HETATM   13  C10 UNL     1       9.442   9.547  24.584  1.00  0.00     0.224 C 
HETATM   14  O5  UNL     1      10.280  10.393  24.146  1.00  0.00    -0.273 OA
HETATM   15  N2  UNL     1       9.771   8.715  25.670  1.00  0.00    -0.356 N 
ATOM     16  H2  UNL     1       9.093   8.036  26.018  1.00  0.00     0.162 HD
BRANCH  15  17
HETATM   17  C11 UNL     1      11.073   8.826  26.291  1.00  0.00     0.084 A 
HETATM   18  C12 UNL     1      12.204   8.009  25.769  1.00  0.00     0.027 A 
HETATM   19  C13 UNL     1      11.511   7.575  27.019  1.00  0.00     0.027 A 
ENDBRANCH  15  17
ENDBRANCH   6  13
BRANCH   8  20
HETATM   20  C16 UNL     1       5.577   7.251  24.369  1.00  0.00     0.146 C 
HETATM   21 BR1  UNL     1       4.348   8.456  25.173  1.00  0.00    -0.091 Br
ENDBRANCH   8  20
BRANCH   1  22
HETATM   22  C4  UNL     1       6.238   6.228  21.111  1.00  0.00     0.116 C 
BRANCH  22  23
HETATM   23  C3  UNL     1       7.344   5.419  20.652  1.00  0.00     0.083 C 
BRANCH  23  24
HETATM   24  C2  UNL     1       7.630   5.644  19.147  1.00  0.00     0.003 C 
HETATM   25  C1  UNL     1       8.449   4.477  18.626  1.00  0.00     0.005 C 
ENDBRANCH  23  24
ENDBRANCH  22  23
BRANCH  22  26
HETATM   26  O1  UNL     1       5.088   5.761  20.687  1.00  0.00    -0.349 OA
ATOM     27  H1  UNL     1       4.718   5.134  21.298  1.00  0.00     0.219 HD
ENDBRANCH  22  26
ENDBRANCH   1  22
BRANCH   2  28
HETATM   28  C6  UNL     1       4.359   8.919  21.258  1.00  0.00     0.202 C 
HETATM   29  O2  UNL     1       3.485   8.061  21.473  1.00  0.00    -0.646 OA
HETATM   30  O3  UNL     1       3.877  10.232  21.084  1.00  0.00    -0.646 OA
ENDBRANCH   2  28
TORSDOF 8
ENDMDL
MODEL 2
REMARK VINA RESULT: -6.709926899      2.910      5.516
REMARK  8 active torsions:
REMARK  status: ('A' for Active; 'I' for Inactive)
REMARK    1  A    between atoms: C2_2  and  C3_3 
REMARK    2  A    between atoms: C3_3  and  C4_4 
REMARK    3  A    between atoms: C4_4  and  O1_5 
REMARK    4  A    between atoms: C4_4  and  N1_7 
REMARK    5  A    between atoms: C5_8  and  C6_9 
REMARK    6  A    between atoms: C9_15  and  C10_16 
REMARK       I    between atoms: C10_16  and  N2_18 
REMARK    7  A    between atoms: N2_18  and  C11_20 
REMARK    8  A    between atoms: C15_24  and  C16_25 
ROOT
HETATM    1  N1  UNL     1       5.302   9.303  21.464  1.00  0.00    -0.312 N 
HETATM    2  C5  UNL     1       6.531   9.448  22.364  1.00  0.00     0.253 C 
HETATM    3  C7  UNL     1       7.041   8.150  22.056  1.00  0.00     0.208 C 
HETATM    4  O4  UNL     1       8.008   7.322  22.378  1.00  0.00    -0.345 OA
HETATM    5  C8  UNL     1       7.876   6.784  21.071  1.00  0.00     0.152 C 
HETATM    6  C9  UNL     1       6.600   6.137  20.701  1.00  0.00     0.112 C 
HETATM    7  C14 UNL     1       5.481   7.100  20.318  1.00  0.00     0.079 C 
HETATM    8  C15 UNL     1       4.993   7.929  21.498  1.00  0.00     0.152 C 
HETATM    9  O6  UNL     1       5.946   7.477  22.472  1.00  0.00    -0.320 OA
HETATM   10  C17 UNL     1       7.656   8.218  20.772  1.00  0.00     0.046 A 
HETATM   11  C18 UNL     1       8.055   9.039  19.745  1.00  0.00     0.019 A 
HETATM   12  C19 UNL     1       9.021   8.993  20.849  1.00  0.00     0.019 A 
ENDROOT
BRANCH   6  13
HETATM   13  C10 UNL     1       6.842   5.212  19.594  1.00  0.00     0.224 C 
HETATM   14  O5  UNL     1       6.220   5.387  18.502  1.00  0.00    -0.273 OA
HETATM   15  N2  UNL     1       7.747   4.144  19.734  1.00  0.00    -0.356 N 
ATOM     16  H2  UNL     1       8.244   4.006  20.615  1.00  0.00     0.162 HD
BRANCH  15  17
HETATM   17  C11 UNL     1       7.970   3.241  18.626  1.00  0.00     0.084 A 
HETATM   18  C12 UNL     1       8.666   1.946  18.865  1.00  0.00     0.027 A 
HETATM   19  C13 UNL     1       9.427   3.077  18.255  1.00  0.00     0.027 A 
ENDBRANCH  15  17
ENDBRANCH   6  13
BRANCH   8  20
HETATM   20  C16 UNL     1       3.714   7.394  21.983  1.00  0.00     0.146 C 
HETATM   21 BR1  UNL     1       3.758   6.506  23.662  1.00  0.00    -0.091 Br
ENDBRANCH   8  20
BRANCH   1  22
HETATM   22  C4  UNL     1       4.843  10.482  20.847  1.00  0.00     0.116 C 
BRANCH  22  23
HETATM   23  C3  UNL     1       5.297  11.237  19.702  1.00  0.00     0.083 C 
BRANCH  23  24
HETATM   24  C2  UNL     1       5.759  12.659  20.102  1.00  0.00     0.003 C 
HETATM   25  C1  UNL     1       7.185  12.583  20.618  1.00  0.00     0.005 C 
ENDBRANCH  23  24
ENDBRANCH  22  23
BRANCH  22  26
HETATM   26  O1  UNL     1       3.788  11.031  21.403  1.00  0.00    -0.349 OA
ATOM     27  H1  UNL     1       3.098  11.183  20.769  1.00  0.00     0.219 HD
ENDBRANCH  22  26
ENDBRANCH   1  22
BRANCH   2  28
HETATM   28  C6  UNL     1       6.128   9.630  23.749  1.00  0.00     0.202 C 
HETATM   29  O2  UNL     1       4.986   9.921  24.147  1.00  0.00    -0.646 OA
HETATM   30  O3  UNL     1       7.093   9.471  24.764  1.00  0.00    -0.646 OA
ENDBRANCH   2  28
TORSDOF 8
ENDMDL
MODEL 3
REMARK VINA RESULT: -6.673667561      2.490      5.647
REMARK  8 active torsions:
REMARK  status: ('A' for Active; 'I' for Inactive)
REMARK    1  A    between atoms: C2_2  and  C3_3 
REMARK    2  A    between atoms: C3_3  and  C4_4 
REMARK    3  A    between atoms: C4_4  and  O1_5 
REMARK    4  A    between atoms: C4_4  and  N1_7 
REMARK    5  A    between atoms: C5_8  and  C6_9 
REMARK    6  A    between atoms: C9_15  and  C10_16 
REMARK       I    between atoms: C10_16  and  N2_18 
REMARK    7  A    between atoms: N2_18  and  C11_20 
REMARK    8  A    between atoms: C15_24  and  C16_25 
ROOT
HETATM    1  N1  UNL     1       6.593   9.266  22.276  1.00  0.00    -0.312 N 
HETATM    2  C5  UNL     1       6.759  10.185  21.064  1.00  0.00     0.253 C 
HETATM    3  C7  UNL     1       7.147   9.130  20.184  1.00  0.00     0.208 C 
HETATM    4  O4  UNL     1       7.562   8.914  18.957  1.00  0.00    -0.345 OA
HETATM    5  C8  UNL     1       6.975   7.626  19.068  1.00  0.00     0.152 C 
HETATM    6  C9  UNL     1       7.514   6.693  20.079  1.00  0.00     0.112 C 
HETATM    7  C14 UNL     1       7.023   6.939  21.503  1.00  0.00     0.079 C 
HETATM    8  C15 UNL     1       7.546   8.245  22.085  1.00  0.00     0.152 C 
HETATM    9  O6  UNL     1       8.214   8.737  20.913  1.00  0.00    -0.320 OA
HETATM   10  C17 UNL     1       5.968   8.422  19.807  1.00  0.00     0.046 A 
HETATM   11  C18 UNL     1       4.596   8.392  19.858  1.00  0.00     0.019 A 
HETATM   12  C19 UNL     1       5.111   9.266  18.797  1.00  0.00     0.019 A 
ENDROOT
BRANCH   6  13
HETATM   13  C10 UNL     1       7.184   5.324  19.683  1.00  0.00     0.224 C 
HETATM   14  O5  UNL     1       6.032   4.868  19.956  1.00  0.00    -0.273 OA
HETATM   15  N2  UNL     1       8.126   4.523  19.012  1.00  0.00    -0.356 N 
ATOM     16  H2  UNL     1       9.051   4.894  18.795  1.00  0.00     0.162 HD
BRANCH  15  17
HETATM   17  C11 UNL     1       7.777   3.171  18.630  1.00  0.00     0.084 A 
HETATM   18  C12 UNL     1       7.964   2.063  19.608  1.00  0.00     0.027 A 
HETATM   19  C13 UNL     1       8.965   2.244  18.515  1.00  0.00     0.027 A 
ENDBRANCH  15  17
ENDBRANCH   6  13
BRANCH   8  20
HETATM   20  C16 UNL     1       8.640   7.966  23.023  1.00  0.00     0.146 C 
HETATM   21 BR1  UNL     1       9.038   9.336  24.278  1.00  0.00    -0.091 Br
ENDBRANCH   8  20
BRANCH   1  22
HETATM   22  C4  UNL     1       5.587   9.622  23.192  1.00  0.00     0.116 C 
BRANCH  22  23
HETATM   23  C3  UNL     1       5.407   9.376  24.605  1.00  0.00     0.083 C 
BRANCH  23  24
HETATM   24  C2  UNL     1       5.414   7.862  24.927  1.00  0.00     0.003 C 
HETATM   25  C1  UNL     1       4.327   7.183  24.114  1.00  0.00     0.005 C 
ENDBRANCH  23  24
ENDBRANCH  22  23
BRANCH  22  26
HETATM   26  O1  UNL     1       4.595  10.321  22.692  1.00  0.00    -0.349 OA
ATOM     27  H1  UNL     1       4.906  11.093  22.234  1.00  0.00     0.219 HD
ENDBRANCH  22  26
ENDBRANCH   1  22
BRANCH   2  28
HETATM   28  C6  UNL     1       7.791  11.177  21.316  1.00  0.00     0.202 C 
HETATM   29  O2  UNL     1       8.084  11.664  22.423  1.00  0.00    -0.646 OA
HETATM   30  O3  UNL     1       8.552  11.657  20.231  1.00  0.00    -0.646 OA
ENDBRANCH   2  28
TORSDOF 8
ENDMDL
MODEL 4
REMARK VINA RESULT: -6.650729765      1.134      1.183
REMARK  8 active torsions:
REMARK  status: ('A' for Active; 'I' for Inactive)
REMARK    1  A    between atoms: C2_2  and  C3_3 
REMARK    2  A    between atoms: C3_3  and  C4_4 
REMARK    3  A    between atoms: C4_4  and  O1_5 
REMARK    4  A    between atoms: C4_4  and  N1_7 
REMARK    5  A    between atoms: C5_8  and  C6_9 
REMARK    6  A    between atoms: C9_15  and  C10_16 
REMARK       I    between atoms: C10_16  and  N2_18 
REMARK    7  A    between atoms: N2_18  and  C11_20 
REMARK    8  A    between atoms: C15_24  and  C16_25 
ROOT
HETATM    1  N1  UNL     1       6.343   7.507  20.693  1.00  0.00    -0.312 N 
HETATM    2  C5  UNL     1       5.693   8.827  20.272  1.00  0.00     0.253 C 
HETATM    3  C7  UNL     1       6.200   9.555  21.390  1.00  0.00     0.208 C 
HETATM    4  O4  UNL     1       6.143  10.738  21.959  1.00  0.00    -0.345 OA
HETATM    5  C8  UNL     1       7.439  10.466  22.473  1.00  0.00     0.152 C 
HETATM    6  C9  UNL     1       7.600   9.334  23.409  1.00  0.00     0.112 C 
HETATM    7  C14 UNL     1       7.676   7.961  22.746  1.00  0.00     0.079 C 
HETATM    8  C15 UNL     1       6.359   7.549  22.102  1.00  0.00     0.152 C 
HETATM    9  O6  UNL     1       5.632   8.766  22.328  1.00  0.00    -0.320 OA
HETATM   10  C17 UNL     1       7.570   9.851  21.132  1.00  0.00     0.046 A 
HETATM   11  C18 UNL     1       8.586   9.816  20.207  1.00  0.00     0.019 A 
HETATM   12  C19 UNL     1       7.701  10.975  20.042  1.00  0.00     0.019 A 
ENDROOT
BRANCH   6  13
HETATM   13  C10 UNL     1       8.805   9.550  24.211  1.00  0.00     0.224 C 
HETATM   14  O5  UNL     1       9.552  10.538  23.939  1.00  0.00    -0.273 OA
HETATM   15  N2  UNL     1       9.131   8.678  25.266  1.00  0.00    -0.356 N 
ATOM     16  H2  UNL     1       8.527   7.884  25.480  1.00  0.00     0.162 HD
BRANCH  15  17
HETATM   17  C11 UNL     1      10.328   8.911  26.046  1.00  0.00     0.084 A 
HETATM   18  C12 UNL     1      11.617   8.310  25.605  1.00  0.00     0.027 A 
HETATM   19  C13 UNL     1      10.864   7.673  26.727  1.00  0.00     0.027 A 
ENDBRANCH  15  17
ENDBRANCH   6  13
BRANCH   8  20
HETATM   20  C16 UNL     1       5.677   6.567  22.954  1.00  0.00     0.146 C 
HETATM   21 BR1  UNL     1       4.189   7.209  23.947  1.00  0.00    -0.091 Br
ENDBRANCH   8  20
BRANCH   1  22
HETATM   22  C4  UNL     1       6.759   6.659  19.650  1.00  0.00     0.116 C 
BRANCH  22  23
HETATM   23  C3  UNL     1       7.181   5.278  19.611  1.00  0.00     0.083 C 
BRANCH  23  24
HETATM   24  C2  UNL     1       7.758   4.895  18.227  1.00  0.00     0.003 C 
HETATM   25  C1  UNL     1       8.923   3.943  18.428  1.00  0.00     0.005 C 
ENDBRANCH  23  24
ENDBRANCH  22  23
BRANCH  22  26
HETATM   26  O1  UNL     1       6.779   7.206  18.457  1.00  0.00    -0.349 OA
ATOM     27  H1  UNL     1       6.725   6.551  17.771  1.00  0.00     0.219 HD
ENDBRANCH  22  26
ENDBRANCH   1  22
BRANCH   2  28
HETATM   28  C6  UNL     1       4.247   8.694  20.238  1.00  0.00     0.202 C 
HETATM   29  O2  UNL     1       3.611   7.628  20.144  1.00  0.00    -0.646 OA
HETATM   30  O3  UNL     1       3.455   9.857  20.315  1.00  0.00    -0.646 OA
ENDBRANCH   2  28
TORSDOF 8
ENDMDL
MODEL 5
REMARK VINA RESULT: -6.609035288      5.525      7.635
REMARK  8 active torsions:
REMARK  status: ('A' for Active; 'I' for Inactive)
REMARK    1  A    between atoms: C2_2  and  C3_3 
REMARK    2  A    between atoms: C3_3  and  C4_4 
REMARK    3  A    between atoms: C4_4  and  O1_5 
REMARK    4  A    between atoms: C4_4  and  N1_7 
REMARK    5  A    between atoms: C5_8  and  C6_9 
REMARK    6  A    between atoms: C9_15  and  C10_16 
REMARK       I    between atoms: C10_16  and  N2_18 
REMARK    7  A    between atoms: N2_18  and  C11_20 
REMARK    8  A    between atoms: C15_24  and  C16_25 
ROOT
HETATM    1  N1  UNL     1       7.283   3.525  17.157  1.00  0.00    -0.312 N 
HETATM    2  C5  UNL     1       7.020   5.030  17.232  1.00  0.00     0.253 C 
HETATM    3  C7  UNL     1       6.139   4.929  18.351  1.00  0.00     0.208 C 
HETATM    4  O4  UNL     1       5.350   5.655  19.109  1.00  0.00    -0.345 OA
HETATM    5  C8  UNL     1       5.592   4.706  20.136  1.00  0.00     0.152 C 
HETATM    6  C9  UNL     1       5.144   3.314  19.927  1.00  0.00     0.112 C 
HETATM    7  C14 UNL     1       6.066   2.468  19.055  1.00  0.00     0.079 C 
HETATM    8  C15 UNL     1       6.086   2.930  17.604  1.00  0.00     0.152 C 
HETATM    9  O6  UNL     1       5.261   4.096  17.751  1.00  0.00    -0.320 OA
HETATM   10  C17 UNL     1       6.938   4.751  19.518  1.00  0.00     0.046 A 
HETATM   11  C18 UNL     1       8.212   4.737  20.032  1.00  0.00     0.019 A 
HETATM   12  C19 UNL     1       7.658   6.091  19.909  1.00  0.00     0.019 A 
ENDROOT
BRANCH   6  13
HETATM   13  C10 UNL     1       4.983   2.667  21.230  1.00  0.00     0.224 C 
HETATM   14  O5  UNL     1       6.016   2.431  21.928  1.00  0.00    -0.273 OA
HETATM   15  N2  UNL     1       3.707   2.311  21.703  1.00  0.00    -0.356 N 
ATOM     16  H2  UNL     1       2.880   2.502  21.137  1.00  0.00     0.162 HD
BRANCH  15  17
HETATM   17  C11 UNL     1       3.572   1.672  22.995  1.00  0.00     0.084 A 
HETATM   18  C12 UNL     1       3.575   0.185  23.079  1.00  0.00     0.027 A 
HETATM   19  C13 UNL     1       2.275   0.916  23.169  1.00  0.00     0.027 A 
ENDBRANCH  15  17
ENDBRANCH   6  13
BRANCH   8  20
HETATM   20  C16 UNL     1       5.272   2.023  16.784  1.00  0.00     0.146 C 
HETATM   21 BR1  UNL     1       3.560   2.667  16.269  1.00  0.00    -0.091 Br
ENDBRANCH   8  20
BRANCH   1  22
HETATM   22  C4  UNL     1       8.565   3.139  16.726  1.00  0.00     0.116 C 
BRANCH  22  23
HETATM   23  C3  UNL     1       9.789   2.828  17.427  1.00  0.00     0.083 C 
BRANCH  23  24
HETATM   24  C2  UNL     1       9.631   1.578  18.327  1.00  0.00     0.003 C 
HETATM   25  C1  UNL     1      10.434   0.439  17.729  1.00  0.00     0.005 C 
ENDBRANCH  23  24
ENDBRANCH  22  23
BRANCH  22  26
HETATM   26  O1  UNL     1       8.711   3.033  15.426  1.00  0.00    -0.349 OA
ATOM     27  H1  UNL     1       8.686   2.126  15.143  1.00  0.00     0.219 HD
ENDBRANCH  22  26
ENDBRANCH   1  22
BRANCH   2  28
HETATM   28  C6  UNL     1       6.394   5.499  16.007  1.00  0.00     0.202 C 
HETATM   29  O2  UNL     1       6.293   4.858  14.945  1.00  0.00    -0.646 OA
HETATM   30  O3  UNL     1       5.839   6.794  15.978  1.00  0.00    -0.646 OA
ENDBRANCH   2  28
TORSDOF 8
ENDMDL
