MODEL 1
REMARK VINA RESULT: -7.781156556      0.000      0.000
REMARK  5 active torsions:
REMARK  status: ('A' for Active; 'I' for Inactive)
REMARK    1  A    between atoms: C2_2  and  N2_6 
REMARK       I    between atoms: N2_6  and  C5_8 
REMARK    2  A    between atoms: C5_8  and  C6_10 
REMARK       I    between atoms: N3_16  and  C12_17 
REMARK    3  A    between atoms: C12_17  and  C13_19 
REMARK       I    between atoms: N4_23  and  C17_24 
REMARK    4  A    between atoms: C17_24  and  C18_26 
REMARK    5  A    between atoms: C22_31  and  C23_32 
ROOT
HETATM    1  C1  UNL     1       6.378  10.823  12.418  1.00  0.00     0.055 C 
HETATM    2  C2  UNL     1       7.376  10.177  13.355  1.00  0.00     0.114 C 
HETATM    3  C3  UNL     1       8.739  10.273  12.736  1.00  0.00     0.055 C 
HETATM    4  C4  UNL     1       7.404  10.927  14.605  1.00  0.00     0.090 C 
HETATM    5  N1  UNL     1       7.437  11.506  15.594  1.00  0.00    -0.195 NA
ENDROOT
BRANCH   2   6
HETATM    6  N2  UNL     1       7.048   8.802  13.652  1.00  0.00    -0.339 N 
HETATM    7  C5  UNL     1       5.829   8.421  14.280  1.00  0.00     0.225 C 
HETATM    8  O1  UNL     1       5.023   9.338  14.574  1.00  0.00    -0.273 OA
ATOM      9  H2  UNL     1       7.718   8.075  13.402  1.00  0.00     0.164 HD
BRANCH   7  10
HETATM   10  C6  UNL     1       5.577   7.014  14.546  1.00  0.00     0.103 C 
HETATM   11  C7  UNL     1       6.282   6.076  13.590  1.00  0.00     0.041 C 
HETATM   12  C8  UNL     1       5.248   5.044  13.214  1.00  0.00     0.088 C 
HETATM   13  C9  UNL     1       4.381   5.693  12.144  1.00  0.00     0.027 C 
HETATM   14  N3  UNL     1       4.349   5.132  14.361  1.00  0.00    -0.340 N 
HETATM   15  C10 UNL     1       3.657   6.759  12.954  1.00  0.00     0.028 C 
HETATM   16  C11 UNL     1       4.133   6.599  14.362  1.00  0.00     0.101 C 
HETATM   17  C12 UNL     1       3.834   4.175  15.224  1.00  0.00     0.243 C 
HETATM   18  O2  UNL     1       3.062   4.523  16.142  1.00  0.00    -0.271 OA
BRANCH  17  19
HETATM   19  C13 UNL     1       4.194   2.751  15.066  1.00  0.00     0.179 C 
HETATM   20  C14 UNL     1       3.031   1.825  15.087  1.00  0.00     0.037 C 
HETATM   21  C15 UNL     1       3.164   0.995  16.320  1.00  0.00     0.022 C 
HETATM   22  C16 UNL     1       4.225   1.747  17.128  1.00  0.00     0.127 C 
HETATM   23  N4  UNL     1       5.093   2.293  16.099  1.00  0.00    -0.338 N 
HETATM   24  C17 UNL     1       6.500   2.367  16.120  1.00  0.00     0.225 C 
HETATM   25  O3  UNL     1       7.027   2.931  15.085  1.00  0.00    -0.273 OA
BRANCH  24  26
HETATM   26  C18 UNL     1       7.425   1.901  17.132  1.00  0.00     0.095 C 
HETATM   27  C19 UNL     1       8.874   1.936  16.846  1.00  0.00     0.052 C 
HETATM   28  C20 UNL     1       9.536   1.877  18.231  1.00  0.00     0.171 C 
HETATM   29  F1  UNL     1      10.282   0.735  18.400  1.00  0.00    -0.249 F 
HETATM   30  C21 UNL     1       8.398   1.833  19.231  1.00  0.00     0.053 C 
HETATM   31  C22 UNL     1       7.272   2.571  18.471  1.00  0.00     0.102 C 
BRANCH  31  32
HETATM   32  C23 UNL     1       7.647   3.983  18.512  1.00  0.00     0.177 C 
HETATM   33  O4  UNL     1       7.673   4.803  17.588  1.00  0.00    -0.648 OA
HETATM   34  O5  UNL     1       8.032   4.475  19.776  1.00  0.00    -0.648 OA
ENDBRANCH  31  32
ENDBRANCH  24  26
ENDBRANCH  17  19
ENDBRANCH   7  10
ENDBRANCH   2   6
TORSDOF 5
ENDMDL
MODEL 2
REMARK VINA RESULT: -7.582563381      4.278      6.548
REMARK  5 active torsions:
REMARK  status: ('A' for Active; 'I' for Inactive)
REMARK    1  A    between atoms: C2_2  and  N2_6 
REMARK       I    between atoms: N2_6  and  C5_8 
REMARK    2  A    between atoms: C5_8  and  C6_10 
REMARK       I    between atoms: N3_16  and  C12_17 
REMARK    3  A    between atoms: C12_17  and  C13_19 
REMARK       I    between atoms: N4_23  and  C17_24 
REMARK    4  A    between atoms: C17_24  and  C18_26 
REMARK    5  A    between atoms: C22_31  and  C23_32 
ROOT
HETATM    1  C1  UNL     1       6.579  12.580  13.798  1.00  0.00     0.055 C 
HETATM    2  C2  UNL     1       6.765  11.083  13.908  1.00  0.00     0.114 C 
HETATM    3  C3  UNL     1       5.601  10.409  13.244  1.00  0.00     0.055 C 
HETATM    4  C4  UNL     1       7.970  10.702  13.180  1.00  0.00     0.090 C 
HETATM    5  N1  UNL     1       8.915  10.387  12.612  1.00  0.00    -0.195 NA
ENDROOT
BRANCH   2   6
HETATM    6  N2  UNL     1       6.897  10.639  15.276  1.00  0.00    -0.339 N 
HETATM    7  C5  UNL     1       5.846  10.764  16.229  1.00  0.00     0.225 C 
HETATM    8  O1  UNL     1       4.773  11.283  15.835  1.00  0.00    -0.273 OA
ATOM      9  H2  UNL     1       7.778  10.218  15.572  1.00  0.00     0.164 HD
BRANCH   7  10
HETATM   10  C6  UNL     1       6.060  10.293  17.588  1.00  0.00     0.103 C 
HETATM   11  C7  UNL     1       4.792   9.864  18.293  1.00  0.00     0.041 C 
HETATM   12  C8  UNL     1       4.884  10.466  19.673  1.00  0.00     0.088 C 
HETATM   13  C9  UNL     1       4.463  11.921  19.523  1.00  0.00     0.027 C 
HETATM   14  N3  UNL     1       6.329  10.628  19.801  1.00  0.00    -0.340 N 
HETATM   15  C10 UNL     1       5.629  12.486  18.723  1.00  0.00     0.028 C 
HETATM   16  C11 UNL     1       6.584  11.352  18.533  1.00  0.00     0.101 C 
HETATM   17  C12 UNL     1       7.233  10.236  20.778  1.00  0.00     0.243 C 
HETATM   18  O2  UNL     1       8.444  10.512  20.645  1.00  0.00    -0.271 OA
BRANCH  17  19
HETATM   19  C13 UNL     1       6.775   9.493  21.970  1.00  0.00     0.179 C 
HETATM   20  C14 UNL     1       7.411   9.932  23.240  1.00  0.00     0.037 C 
HETATM   21  C15 UNL     1       8.246   8.792  23.719  1.00  0.00     0.022 C 
HETATM   22  C16 UNL     1       8.317   7.879  22.493  1.00  0.00     0.127 C 
HETATM   23  N4  UNL     1       7.023   8.075  21.863  1.00  0.00    -0.338 N 
HETATM   24  C17 UNL     1       6.204   7.093  21.271  1.00  0.00     0.225 C 
HETATM   25  O3  UNL     1       5.110   7.543  20.753  1.00  0.00    -0.273 OA
BRANCH  24  26
HETATM   26  C18 UNL     1       6.419   5.665  21.167  1.00  0.00     0.095 C 
HETATM   27  C19 UNL     1       5.327   4.814  20.649  1.00  0.00     0.052 C 
HETATM   28  C20 UNL     1       6.031   3.524  20.203  1.00  0.00     0.171 C 
HETATM   29  F1  UNL     1       5.624   2.433  20.934  1.00  0.00    -0.249 F 
HETATM   30  C21 UNL     1       7.505   3.739  20.483  1.00  0.00     0.053 C 
HETATM   31  C22 UNL     1       7.634   5.275  20.368  1.00  0.00     0.102 C 
BRANCH  31  32
HETATM   32  C23 UNL     1       7.561   5.558  18.936  1.00  0.00     0.177 C 
HETATM   33  O4  UNL     1       7.022   6.512  18.363  1.00  0.00    -0.648 OA
HETATM   34  O5  UNL     1       8.188   4.617  18.096  1.00  0.00    -0.648 OA
ENDBRANCH  31  32
ENDBRANCH  24  26
ENDBRANCH  17  19
ENDBRANCH   7  10
ENDBRANCH   2   6
TORSDOF 5
ENDMDL
MODEL 3
REMARK VINA RESULT: -7.575449480      5.956      8.128
REMARK  5 active torsions:
REMARK  status: ('A' for Active; 'I' for Inactive)
REMARK    1  A    between atoms: C2_2  and  N2_6 
REMARK       I    between atoms: N2_6  and  C5_8 
REMARK    2  A    between atoms: C5_8  and  C6_10 
REMARK       I    between atoms: N3_16  and  C12_17 
REMARK    3  A    between atoms: C12_17  and  C13_19 
REMARK       I    between atoms: N4_23  and  C17_24 
REMARK    4  A    between atoms: C17_24  and  C18_26 
REMARK    5  A    between atoms: C22_31  and  C23_32 
ROOT
HETATM    1  C1  UNL     1      10.347   8.350  26.666  1.00  0.00     0.055 C 
HETATM    2  C2  UNL     1      10.963   8.899  25.397  1.00  0.00     0.114 C 
HETATM    3  C3  UNL     1      11.093  10.387  25.539  1.00  0.00     0.055 C 
HETATM    4  C4  UNL     1      12.305   8.350  25.248  1.00  0.00     0.090 C 
HETATM    5  N1  UNL     1      13.362   7.926  25.116  1.00  0.00    -0.195 NA
ENDROOT
BRANCH   2   6
HETATM    6  N2  UNL     1      10.197   8.566  24.219  1.00  0.00    -0.339 N 
HETATM    7  C5  UNL     1       8.785   8.733  24.147  1.00  0.00     0.225 C 
HETATM    8  O1  UNL     1       8.208   9.192  25.164  1.00  0.00    -0.273 OA
ATOM      9  H2  UNL     1      10.688   8.197  23.404  1.00  0.00     0.164 HD
BRANCH   7  10
HETATM   10  C6  UNL     1       8.088   8.372  22.923  1.00  0.00     0.103 C 
HETATM   11  C7  UNL     1       8.854   8.709  21.662  1.00  0.00     0.041 C 
HETATM   12  C8  UNL     1       7.840   9.334  20.738  1.00  0.00     0.088 C 
HETATM   13  C9  UNL     1       7.695  10.779  21.193  1.00  0.00     0.027 C 
HETATM   14  N3  UNL     1       6.604   8.772  21.274  1.00  0.00    -0.340 N 
HETATM   15  C10 UNL     1       7.007  10.600  22.539  1.00  0.00     0.028 C 
HETATM   16  C11 UNL     1       6.798   9.129  22.700  1.00  0.00     0.101 C 
HETATM   17  C12 UNL     1       5.548   8.093  20.681  1.00  0.00     0.243 C 
HETATM   18  O2  UNL     1       4.585   7.716  21.382  1.00  0.00    -0.271 OA
BRANCH  17  19
HETATM   19  C13 UNL     1       5.556   7.813  19.231  1.00  0.00     0.179 C 
HETATM   20  C14 UNL     1       4.273   8.118  18.546  1.00  0.00     0.037 C 
HETATM   21  C15 UNL     1       3.713   6.815  18.082  1.00  0.00     0.022 C 
HETATM   22  C16 UNL     1       4.549   5.788  18.848  1.00  0.00     0.127 C 
HETATM   23  N4  UNL     1       5.849   6.429  18.940  1.00  0.00    -0.338 N 
HETATM   24  C17 UNL     1       7.113   5.822  18.790  1.00  0.00     0.225 C 
HETATM   25  O3  UNL     1       8.117   6.619  18.953  1.00  0.00    -0.273 OA
BRANCH  24  26
HETATM   26  C18 UNL     1       7.435   4.446  18.482  1.00  0.00     0.095 C 
HETATM   27  C19 UNL     1       8.854   4.053  18.361  1.00  0.00     0.052 C 
HETATM   28  C20 UNL     1       8.844   2.528  18.544  1.00  0.00     0.171 C 
HETATM   29  F1  UNL     1       9.265   1.867  17.415  1.00  0.00    -0.249 F 
HETATM   30  C21 UNL     1       7.395   2.150  18.781  1.00  0.00     0.053 C 
HETATM   31  C22 UNL     1       6.826   3.438  19.421  1.00  0.00     0.102 C 
BRANCH  31  32
HETATM   32  C23 UNL     1       7.355   3.452  20.783  1.00  0.00     0.177 C 
HETATM   33  O4  UNL     1       8.029   4.325  21.342  1.00  0.00    -0.648 OA
HETATM   34  O5  UNL     1       7.056   2.318  21.565  1.00  0.00    -0.648 OA
ENDBRANCH  31  32
ENDBRANCH  24  26
ENDBRANCH  17  19
ENDBRANCH   7  10
ENDBRANCH   2   6
TORSDOF 5
ENDMDL
MODEL 4
REMARK VINA RESULT: -7.570791023      5.978      8.223
REMARK  5 active torsions:
REMARK  status: ('A' for Active; 'I' for Inactive)
REMARK    1  A    between atoms: C2_2  and  N2_6 
REMARK       I    between atoms: N2_6  and  C5_8 
REMARK    2  A    between atoms: C5_8  and  C6_10 
REMARK       I    between atoms: N3_16  and  C12_17 
REMARK    3  A    between atoms: C12_17  and  C13_19 
REMARK       I    between atoms: N4_23  and  C17_24 
REMARK    4  A    between atoms: C17_24  and  C18_26 
REMARK    5  A    between atoms: C22_31  and  C23_32 
ROOT
HETATM    1  C1  UNL     1      10.625   8.321  26.959  1.00  0.00     0.055 C 
HETATM    2  C2  UNL     1      11.047   8.748  25.570  1.00  0.00     0.114 C 
HETATM    3  C3  UNL     1      11.049  10.247  25.514  1.00  0.00     0.055 C 
HETATM    4  C4  UNL     1      12.412   8.294  25.331  1.00  0.00     0.090 C 
HETATM    5  N1  UNL     1      13.485   7.944  25.128  1.00  0.00    -0.195 NA
ENDROOT
BRANCH   2   6
HETATM    6  N2  UNL     1      10.196   8.202  24.539  1.00  0.00    -0.339 N 
HETATM    7  C5  UNL     1       8.785   8.392  24.527  1.00  0.00     0.225 C 
HETATM    8  O1  UNL     1       8.288   9.067  25.462  1.00  0.00    -0.273 OA
ATOM      9  H2  UNL     1      10.623   7.658  23.788  1.00  0.00     0.164 HD
BRANCH   7  10
HETATM   10  C6  UNL     1       7.999   7.807  23.452  1.00  0.00     0.103 C 
HETATM   11  C7  UNL     1       8.433   8.244  22.070  1.00  0.00     0.041 C 
HETATM   12  C8  UNL     1       7.154   8.557  21.335  1.00  0.00     0.088 C 
HETATM   13  C9  UNL     1       6.742   9.951  21.789  1.00  0.00     0.027 C 
HETATM   14  N3  UNL     1       6.203   7.749  22.092  1.00  0.00    -0.340 N 
HETATM   15  C10 UNL     1       6.358   9.690  23.239  1.00  0.00     0.028 C 
HETATM   16  C11 UNL     1       6.544   8.222  23.454  1.00  0.00     0.101 C 
HETATM   17  C12 UNL     1       5.259   6.807  21.707  1.00  0.00     0.243 C 
HETATM   18  O2  UNL     1       4.551   6.253  22.574  1.00  0.00    -0.271 OA
BRANCH  17  19
HETATM   19  C13 UNL     1       5.087   6.455  20.282  1.00  0.00     0.179 C 
HETATM   20  C14 UNL     1       3.690   6.113  19.906  1.00  0.00     0.037 C 
HETATM   21  C15 UNL     1       3.686   4.667  19.537  1.00  0.00     0.022 C 
HETATM   22  C16 UNL     1       5.032   4.172  20.071  1.00  0.00     0.127 C 
HETATM   23  N4  UNL     1       5.898   5.325  19.894  1.00  0.00    -0.338 N 
HETATM   24  C17 UNL     1       7.236   5.329  19.452  1.00  0.00     0.225 C 
HETATM   25  O3  UNL     1       7.789   6.495  19.414  1.00  0.00    -0.273 OA
BRANCH  24  26
HETATM   26  C18 UNL     1       8.065   4.216  19.040  1.00  0.00     0.095 C 
HETATM   27  C19 UNL     1       7.613   2.840  19.335  1.00  0.00     0.052 C 
HETATM   28  C20 UNL     1       8.410   1.961  18.359  1.00  0.00     0.171 C 
HETATM   29  F1  UNL     1       9.260   1.100  19.012  1.00  0.00    -0.249 F 
HETATM   30  C21 UNL     1       9.262   2.915  17.545  1.00  0.00     0.053 C 
HETATM   31  C22 UNL     1       8.416   4.210  17.576  1.00  0.00     0.102 C 
BRANCH  31  32
HETATM   32  C23 UNL     1       7.302   3.958  16.666  1.00  0.00     0.177 C 
HETATM   33  O4  UNL     1       6.134   4.356  16.745  1.00  0.00    -0.648 OA
HETATM   34  O5  UNL     1       7.597   3.154  15.546  1.00  0.00    -0.648 OA
ENDBRANCH  31  32
ENDBRANCH  24  26
ENDBRANCH  17  19
ENDBRANCH   7  10
ENDBRANCH   2   6
TORSDOF 5
ENDMDL
MODEL 5
REMARK VINA RESULT: -7.295465091      0.636      1.021
REMARK  5 active torsions:
REMARK  status: ('A' for Active; 'I' for Inactive)
REMARK    1  A    between atoms: C2_2  and  N2_6 
REMARK       I    between atoms: N2_6  and  C5_8 
REMARK    2  A    between atoms: C5_8  and  C6_10 
REMARK       I    between atoms: N3_16  and  C12_17 
REMARK    3  A    between atoms: C12_17  and  C13_19 
REMARK       I    between atoms: N4_23  and  C17_24 
REMARK    4  A    between atoms: C17_24  and  C18_26 
REMARK    5  A    between atoms: C22_31  and  C23_32 
ROOT
HETATM    1  C1  UNL     1       6.963  11.015  14.750  1.00  0.00     0.055 C 
HETATM    2  C2  UNL     1       6.996  10.158  13.503  1.00  0.00     0.114 C 
HETATM    3  C3  UNL     1       6.006  10.711  12.522  1.00  0.00     0.055 C 
HETATM    4  C4  UNL     1       8.319  10.255  12.899  1.00  0.00     0.090 C 
HETATM    5  N1  UNL     1       9.355  10.320  12.412  1.00  0.00    -0.195 NA
ENDROOT
BRANCH   2   6
HETATM    6  N2  UNL     1       6.717   8.768  13.777  1.00  0.00    -0.339 N 
HETATM    7  C5  UNL     1       5.582   8.345  14.525  1.00  0.00     0.225 C 
HETATM    8  O1  UNL     1       4.808   9.238  14.950  1.00  0.00    -0.273 OA
ATOM      9  H2  UNL     1       7.360   8.060  13.421  1.00  0.00     0.164 HD
BRANCH   7  10
HETATM   10  C6  UNL     1       5.375   6.924  14.758  1.00  0.00     0.103 C 
HETATM   11  C7  UNL     1       6.183   6.031  13.843  1.00  0.00     0.041 C 
HETATM   12  C8  UNL     1       5.223   4.961  13.386  1.00  0.00     0.088 C 
HETATM   13  C9  UNL     1       4.403   5.587  12.267  1.00  0.00     0.027 C 
HETATM   14  N3  UNL     1       4.246   4.995  14.470  1.00  0.00    -0.340 N 
HETATM   15  C10 UNL     1       3.580   6.610  13.037  1.00  0.00     0.028 C 
HETATM   16  C11 UNL     1       3.967   6.450  14.472  1.00  0.00     0.101 C 
HETATM   17  C12 UNL     1       3.716   4.004  15.285  1.00  0.00     0.243 C 
HETATM   18  O2  UNL     1       2.869   4.306  16.152  1.00  0.00    -0.271 OA
BRANCH  17  19
HETATM   19  C13 UNL     1       4.148   2.599  15.137  1.00  0.00     0.179 C 
HETATM   20  C14 UNL     1       3.036   1.614  15.184  1.00  0.00     0.037 C 
HETATM   21  C15 UNL     1       3.230   0.806  16.424  1.00  0.00     0.022 C 
HETATM   22  C16 UNL     1       4.261   1.621  17.208  1.00  0.00     0.127 C 
HETATM   23  N4  UNL     1       5.084   2.201  16.162  1.00  0.00    -0.338 N 
HETATM   24  C17 UNL     1       6.486   2.348  16.161  1.00  0.00     0.225 C 
HETATM   25  O3  UNL     1       6.968   2.928  15.112  1.00  0.00    -0.273 OA
BRANCH  24  26
HETATM   26  C18 UNL     1       7.448   1.942  17.163  1.00  0.00     0.095 C 
HETATM   27  C19 UNL     1       8.888   2.001  16.837  1.00  0.00     0.052 C 
HETATM   28  C20 UNL     1       9.587   2.010  18.205  1.00  0.00     0.171 C 
HETATM   29  F1  UNL     1      10.366   0.893  18.396  1.00  0.00    -0.249 F 
HETATM   30  C21 UNL     1       8.477   1.975  19.237  1.00  0.00     0.053 C 
HETATM   31  C22 UNL     1       7.313   2.657  18.481  1.00  0.00     0.102 C 
BRANCH  31  32
HETATM   32  C23 UNL     1       7.654   4.078  18.461  1.00  0.00     0.177 C 
HETATM   33  O4  UNL     1       7.614   4.870  17.512  1.00  0.00    -0.648 OA
HETATM   34  O5  UNL     1       8.087   4.620  19.688  1.00  0.00    -0.648 OA
ENDBRANCH  31  32
ENDBRANCH  24  26
ENDBRANCH  17  19
ENDBRANCH   7  10
ENDBRANCH   2   6
TORSDOF 5
ENDMDL
