MODEL 1
REMARK VINA RESULT: -7.575225965      0.000      0.000
REMARK  6 active torsions:
REMARK  status: ('A' for Active; 'I' for Inactive)
REMARK    1  A    between atoms: C2_2  and  N1_3 
REMARK       I    between atoms: N1_3  and  C3_5 
REMARK    2  A    between atoms: C3_5  and  C4_7 
REMARK    3  A    between atoms: C9_13  and  C10_14 
REMARK    4  A    between atoms: C10_14  and  C11_15 
REMARK    5  A    between atoms: C11_15  and  O3_17 
REMARK    6  A    between atoms: O3_17  and  C12_18 
ROOT
HETATM    1  C4  UNL     1       7.516   7.317  20.478  1.00  0.00     0.123 C 
HETATM    2  C5  UNL     1       7.985   8.315  19.451  1.00  0.00     0.035 C 
HETATM    3  C6  UNL     1       7.862   9.733  19.893  1.00  0.00     0.006 C 
HETATM    4  C7  UNL     1       6.314  10.071  20.074  1.00  0.00     0.130 C 
HETATM    5  N2  UNL     1       6.056   9.007  21.013  1.00  0.00    -0.350 N 
HETATM    6  C8  UNL     1       6.322   9.390  22.383  1.00  0.00     0.135 C 
HETATM    7  C9  UNL     1       7.865   9.053  22.331  1.00  0.00    -0.013 C 
HETATM    8  C15 UNL     1       8.445   9.950  21.270  1.00  0.00     0.018 C 
HETATM    9  C16 UNL     1       8.033   7.619  21.858  1.00  0.00     0.041 C 
HETATM   10  C17 UNL     1       5.961   7.686  20.618  1.00  0.00     0.238 C 
HETATM   11  O4  UNL     1       5.137   6.807  20.370  1.00  0.00    -0.272 OA
ENDROOT
BRANCH   1  12
HETATM   12  C3  UNL     1       7.651   5.930  20.122  1.00  0.00     0.236 C 
HETATM   13  N1  UNL     1       7.509   5.382  18.823  1.00  0.00    -0.350 N 
ATOM     14  H1  UNL     1       7.291   6.013  18.052  1.00  0.00     0.163 HD
HETATM   15  O1  UNL     1       7.925   5.099  21.051  1.00  0.00    -0.272 OA
BRANCH  13  16
HETATM   16  C2  UNL     1       7.658   3.978  18.538  1.00  0.00     0.043 C 
HETATM   17  C1  UNL     1       6.467   3.223  19.083  1.00  0.00     0.039 C 
HETATM   18  C18 UNL     1       8.944   3.487  19.104  1.00  0.00     0.046 C 
HETATM   19  C19 UNL     1       9.172   2.087  18.589  1.00  0.00     0.143 C 
HETATM   20  S1  UNL     1       8.590   2.259  16.896  1.00  0.00     0.146 S 
HETATM   21  O5  UNL     1       7.623   1.165  16.580  1.00  0.00    -0.228 OA
HETATM   22  O6  UNL     1       9.736   2.327  15.939  1.00  0.00    -0.228 OA
HETATM   23  C20 UNL     1       7.764   3.848  17.023  1.00  0.00     0.170 C 
ENDBRANCH  13  16
ENDBRANCH   1  12
BRANCH   7  24
HETATM   24  C10 UNL     1       8.468   9.175  23.653  1.00  0.00     0.122 C 
BRANCH  24  25
HETATM   25  C11 UNL     1       9.810   8.686  23.887  1.00  0.00     0.261 C 
HETATM   26  O2  UNL     1      10.804   9.101  23.282  1.00  0.00    -0.265 OA
BRANCH  25  27
HETATM   27  O3  UNL     1       9.991   7.696  24.846  1.00  0.00    -0.295 OA
BRANCH  27  28
HETATM   28  C12 UNL     1      10.340   7.996  26.180  1.00  0.00     0.139 C 
HETATM   29  C13 UNL     1      11.260   6.917  26.717  1.00  0.00     0.064 C 
HETATM   30  C14 UNL     1       9.103   8.128  27.057  1.00  0.00     0.064 C 
HETATM   31 CL1  UNL     1      11.151   9.570  26.184  1.00  0.00    -0.088 Cl
ENDBRANCH  27  28
ENDBRANCH  25  27
ENDBRANCH  24  25
ENDBRANCH   7  24
TORSDOF 6
ENDMDL
MODEL 2
REMARK VINA RESULT: -7.558405995      4.060      8.241
REMARK  6 active torsions:
REMARK  status: ('A' for Active; 'I' for Inactive)
REMARK    1  A    between atoms: C2_2  and  N1_3 
REMARK       I    between atoms: N1_3  and  C3_5 
REMARK    2  A    between atoms: C3_5  and  C4_7 
REMARK    3  A    between atoms: C9_13  and  C10_14 
REMARK    4  A    between atoms: C10_14  and  C11_15 
REMARK    5  A    between atoms: C11_15  and  O3_17 
REMARK    6  A    between atoms: O3_17  and  C12_18 
ROOT
HETATM    1  C4  UNL     1       7.464   4.547  20.156  1.00  0.00     0.123 C 
HETATM    2  C5  UNL     1       7.667   3.496  21.216  1.00  0.00     0.035 C 
HETATM    3  C6  UNL     1       7.368   2.112  20.753  1.00  0.00     0.006 C 
HETATM    4  C7  UNL     1       5.812   2.018  20.416  1.00  0.00     0.130 C 
HETATM    5  N2  UNL     1       5.819   3.102  19.464  1.00  0.00    -0.350 N 
HETATM    6  C8  UNL     1       6.157   2.671  18.124  1.00  0.00     0.135 C 
HETATM    7  C9  UNL     1       7.720   2.763  18.333  1.00  0.00    -0.013 C 
HETATM    8  C15 UNL     1       8.044   1.795  19.439  1.00  0.00     0.018 C 
HETATM    9  C16 UNL     1       8.063   4.157  18.832  1.00  0.00     0.041 C 
HETATM   10  C17 UNL     1       5.893   4.425  19.858  1.00  0.00     0.238 C 
HETATM   11  O4  UNL     1       5.196   5.424  20.030  1.00  0.00    -0.272 OA
ENDROOT
BRANCH   1  12
HETATM   12  C3  UNL     1       7.779   5.899  20.535  1.00  0.00     0.236 C 
HETATM   13  N1  UNL     1       7.729   7.037  19.692  1.00  0.00    -0.350 N 
ATOM     14  H1  UNL     1       7.446   6.909  18.721  1.00  0.00     0.163 HD
HETATM   15  O1  UNL     1       8.137   6.112  21.741  1.00  0.00    -0.272 OA
BRANCH  13  16
HETATM   16  C2  UNL     1       8.059   8.365  20.141  1.00  0.00     0.043 C 
HETATM   17  C1  UNL     1       9.442   8.363  20.755  1.00  0.00     0.039 C 
HETATM   18  C18 UNL     1       7.020   8.843  21.094  1.00  0.00     0.046 C 
HETATM   19  C19 UNL     1       7.272  10.308  21.358  1.00  0.00     0.143 C 
HETATM   20  S1  UNL     1       7.742  10.862  19.713  1.00  0.00     0.146 S 
HETATM   21  O5  UNL     1       9.019  11.637  19.786  1.00  0.00    -0.228 OA
HETATM   22  O6  UNL     1       6.630  11.620  19.063  1.00  0.00    -0.228 OA
HETATM   23  C20 UNL     1       7.987   9.271  18.918  1.00  0.00     0.170 C 
ENDBRANCH  13  16
ENDBRANCH   1  12
BRANCH   7  24
HETATM   24  C10 UNL     1       8.426   2.538  17.077  1.00  0.00     0.122 C 
BRANCH  24  25
HETATM   25  C11 UNL     1       7.789   2.857  15.818  1.00  0.00     0.261 C 
HETATM   26  O2  UNL     1       7.288   2.010  15.071  1.00  0.00    -0.265 OA
BRANCH  25  27
HETATM   27  O3  UNL     1       7.735   4.190  15.428  1.00  0.00    -0.295 OA
BRANCH  27  28
HETATM   28  C12 UNL     1       6.521   4.827  15.089  1.00  0.00     0.139 C 
HETATM   29  C13 UNL     1       6.702   5.609  13.804  1.00  0.00     0.064 C 
HETATM   30  C14 UNL     1       6.048   5.741  16.209  1.00  0.00     0.064 C 
HETATM   31 CL1  UNL     1       5.291   3.568  14.889  1.00  0.00    -0.088 Cl
ENDBRANCH  27  28
ENDBRANCH  25  27
ENDBRANCH  24  25
ENDBRANCH   7  24
TORSDOF 6
ENDMDL
MODEL 3
REMARK VINA RESULT: -7.461658783      4.105      8.582
REMARK  6 active torsions:
REMARK  status: ('A' for Active; 'I' for Inactive)
REMARK    1  A    between atoms: C2_2  and  N1_3 
REMARK       I    between atoms: N1_3  and  C3_5 
REMARK    2  A    between atoms: C3_5  and  C4_7 
REMARK    3  A    between atoms: C9_13  and  C10_14 
REMARK    4  A    between atoms: C10_14  and  C11_15 
REMARK    5  A    between atoms: C11_15  and  O3_17 
REMARK    6  A    between atoms: O3_17  and  C12_18 
ROOT
HETATM    1  C4  UNL     1       7.486   4.669  20.183  1.00  0.00     0.123 C 
HETATM    2  C5  UNL     1       7.729   3.605  21.222  1.00  0.00     0.035 C 
HETATM    3  C6  UNL     1       7.431   2.225  20.747  1.00  0.00     0.006 C 
HETATM    4  C7  UNL     1       5.867   2.119  20.453  1.00  0.00     0.130 C 
HETATM    5  N2  UNL     1       5.837   3.217  19.516  1.00  0.00    -0.350 N 
HETATM    6  C8  UNL     1       6.141   2.809  18.162  1.00  0.00     0.135 C 
HETATM    7  C9  UNL     1       7.708   2.914  18.328  1.00  0.00    -0.013 C 
HETATM    8  C15 UNL     1       8.073   1.933  19.410  1.00  0.00     0.018 C 
HETATM    9  C16 UNL     1       8.051   4.304  18.838  1.00  0.00     0.041 C 
HETATM   10  C17 UNL     1       5.908   4.534  19.927  1.00  0.00     0.238 C 
HETATM   11  O4  UNL     1       5.207   5.524  20.133  1.00  0.00    -0.272 OA
ENDROOT
BRANCH   1  12
HETATM   12  C3  UNL     1       7.797   6.018  20.572  1.00  0.00     0.236 C 
HETATM   13  N1  UNL     1       7.755   7.162  19.736  1.00  0.00    -0.350 N 
ATOM     14  H1  UNL     1       7.479   7.040  18.762  1.00  0.00     0.163 HD
HETATM   15  O1  UNL     1       8.146   6.225  21.783  1.00  0.00    -0.272 OA
BRANCH  13  16
HETATM   16  C2  UNL     1       8.081   8.487  20.196  1.00  0.00     0.043 C 
HETATM   17  C1  UNL     1       9.464   8.484  20.808  1.00  0.00     0.039 C 
HETATM   18  C18 UNL     1       7.042   8.954  21.154  1.00  0.00     0.046 C 
HETATM   19  C19 UNL     1       7.289  10.417  21.429  1.00  0.00     0.143 C 
HETATM   20  S1  UNL     1       7.756  10.986  19.789  1.00  0.00     0.146 S 
HETATM   21  O5  UNL     1       9.030  11.765  19.866  1.00  0.00    -0.228 OA
HETATM   22  O6  UNL     1       6.640  11.746  19.147  1.00  0.00    -0.228 OA
HETATM   23  C20 UNL     1       8.004   9.403  18.981  1.00  0.00     0.170 C 
ENDBRANCH  13  16
ENDBRANCH   1  12
BRANCH   7  24
HETATM   24  C10 UNL     1       8.381   2.714  17.049  1.00  0.00     0.122 C 
BRANCH  24  25
HETATM   25  C11 UNL     1       7.743   3.131  15.819  1.00  0.00     0.261 C 
HETATM   26  O2  UNL     1       7.367   4.289  15.603  1.00  0.00    -0.265 OA
BRANCH  25  27
HETATM   27  O3  UNL     1       7.542   2.179  14.828  1.00  0.00    -0.295 OA
BRANCH  27  28
HETATM   28  C12 UNL     1       6.278   1.597  14.588  1.00  0.00     0.139 C 
HETATM   29  C13 UNL     1       6.096   0.393  15.492  1.00  0.00     0.064 C 
HETATM   30  C14 UNL     1       6.124   1.196  13.128  1.00  0.00     0.064 C 
HETATM   31 CL1  UNL     1       5.047   2.825  14.924  1.00  0.00    -0.088 Cl
ENDBRANCH  27  28
ENDBRANCH  25  27
ENDBRANCH  24  25
ENDBRANCH   7  24
TORSDOF 6
ENDMDL
MODEL 4
REMARK VINA RESULT: -7.430884502      4.214      8.751
REMARK  6 active torsions:
REMARK  status: ('A' for Active; 'I' for Inactive)
REMARK    1  A    between atoms: C2_2  and  N1_3 
REMARK       I    between atoms: N1_3  and  C3_5 
REMARK    2  A    between atoms: C3_5  and  C4_7 
REMARK    3  A    between atoms: C9_13  and  C10_14 
REMARK    4  A    between atoms: C10_14  and  C11_15 
REMARK    5  A    between atoms: C11_15  and  O3_17 
REMARK    6  A    between atoms: O3_17  and  C12_18 
ROOT
HETATM    1  C4  UNL     1       7.584   4.728  19.051  1.00  0.00     0.123 C 
HETATM    2  C5  UNL     1       8.885   4.027  19.345  1.00  0.00     0.035 C 
HETATM    3  C6  UNL     1       9.114   2.814  18.510  1.00  0.00     0.006 C 
HETATM    4  C7  UNL     1       8.006   1.730  18.881  1.00  0.00     0.130 C 
HETATM    5  N2  UNL     1       6.882   2.590  18.596  1.00  0.00    -0.350 N 
HETATM    6  C8  UNL     1       6.484   2.553  17.205  1.00  0.00     0.135 C 
HETATM    7  C9  UNL     1       7.520   3.646  16.729  1.00  0.00    -0.013 C 
HETATM    8  C15 UNL     1       8.882   3.085  17.041  1.00  0.00     0.018 C 
HETATM    9  C16 UNL     1       7.335   4.893  17.577  1.00  0.00     0.041 C 
HETATM   10  C17 UNL     1       6.504   3.610  19.447  1.00  0.00     0.238 C 
HETATM   11  O4  UNL     1       5.682   3.889  20.319  1.00  0.00    -0.272 OA
ENDROOT
BRANCH   1  12
HETATM   12  C3  UNL     1       7.329   5.930  19.799  1.00  0.00     0.236 C 
HETATM   13  N1  UNL     1       7.750   6.195  21.126  1.00  0.00    -0.350 N 
ATOM     14  H1  UNL     1       8.286   5.479  21.617  1.00  0.00     0.163 HD
HETATM   15  O1  UNL     1       6.663   6.858  19.229  1.00  0.00    -0.272 OA
BRANCH  13  16
HETATM   16  C2  UNL     1       7.457   7.425  21.816  1.00  0.00     0.043 C 
HETATM   17  C1  UNL     1       5.988   7.468  22.172  1.00  0.00     0.039 C 
HETATM   18  C18 UNL     1       7.866   8.581  20.972  1.00  0.00     0.046 C 
HETATM   19  C19 UNL     1       7.762   9.829  21.814  1.00  0.00     0.143 C 
HETATM   20  S1  UNL     1       8.372   9.215  23.390  1.00  0.00     0.146 S 
HETATM   21  O5  UNL     1       7.417   9.582  24.480  1.00  0.00    -0.228 OA
HETATM   22  O6  UNL     1       9.767   9.686  23.646  1.00  0.00    -0.228 OA
HETATM   23  C20 UNL     1       8.340   7.451  23.058  1.00  0.00     0.170 C 
ENDBRANCH  13  16
ENDBRANCH   1  12
BRANCH   7  24
HETATM   24  C10 UNL     1       7.295   4.002  15.332  1.00  0.00     0.122 C 
BRANCH  24  25
HETATM   25  C11 UNL     1       6.288   4.983  14.986  1.00  0.00     0.261 C 
HETATM   26  O2  UNL     1       5.074   4.784  15.099  1.00  0.00    -0.265 OA
BRANCH  25  27
HETATM   27  O3  UNL     1       6.710   6.214  14.500  1.00  0.00    -0.295 OA
BRANCH  27  28
HETATM   28  C12 UNL     1       6.526   6.596  13.154  1.00  0.00     0.139 C 
HETATM   29  C13 UNL     1       7.688   7.462  12.710  1.00  0.00     0.064 C 
HETATM   30  C14 UNL     1       5.208   7.333  12.965  1.00  0.00     0.064 C 
HETATM   31 CL1  UNL     1       6.439   5.117  12.183  1.00  0.00    -0.088 Cl
ENDBRANCH  27  28
ENDBRANCH  25  27
ENDBRANCH  24  25
ENDBRANCH   7  24
TORSDOF 6
ENDMDL
MODEL 5
REMARK VINA RESULT: -7.396305003      1.795      2.196
REMARK  6 active torsions:
REMARK  status: ('A' for Active; 'I' for Inactive)
REMARK    1  A    between atoms: C2_2  and  N1_3 
REMARK       I    between atoms: N1_3  and  C3_5 
REMARK    2  A    between atoms: C3_5  and  C4_7 
REMARK    3  A    between atoms: C9_13  and  C10_14 
REMARK    4  A    between atoms: C10_14  and  C11_15 
REMARK    5  A    between atoms: C11_15  and  O3_17 
REMARK    6  A    between atoms: O3_17  and  C12_18 
ROOT
HETATM    1  C4  UNL     1       6.195   7.211  21.964  1.00  0.00     0.123 C 
HETATM    2  C5  UNL     1       5.789   8.555  21.418  1.00  0.00     0.035 C 
HETATM    3  C6  UNL     1       5.642   9.607  22.462  1.00  0.00     0.006 C 
HETATM    4  C7  UNL     1       4.431   9.202  23.418  1.00  0.00     0.130 C 
HETATM    5  N2  UNL     1       4.973   7.914  23.776  1.00  0.00    -0.350 N 
HETATM    6  C8  UNL     1       5.874   7.976  24.907  1.00  0.00     0.135 C 
HETATM    7  C9  UNL     1       7.151   8.345  24.054  1.00  0.00    -0.013 C 
HETATM    8  C15 UNL     1       6.835   9.657  23.388  1.00  0.00     0.018 C 
HETATM    9  C16 UNL     1       7.320   7.306  22.957  1.00  0.00     0.041 C 
HETATM   10  C17 UNL     1       4.951   6.841  22.905  1.00  0.00     0.238 C 
HETATM   11  O4  UNL     1       4.334   5.805  22.661  1.00  0.00    -0.272 OA
ENDROOT
BRANCH   1  12
HETATM   12  C3  UNL     1       6.393   6.167  20.994  1.00  0.00     0.236 C 
HETATM   13  N1  UNL     1       6.779   4.831  21.270  1.00  0.00    -0.350 N 
ATOM     14  H1  UNL     1       6.936   4.563  22.241  1.00  0.00     0.163 HD
HETATM   15  O1  UNL     1       6.207   6.451  19.764  1.00  0.00    -0.272 OA
BRANCH  13  16
HETATM   16  C2  UNL     1       6.959   3.835  20.246  1.00  0.00     0.043 C 
HETATM   17  C1  UNL     1       5.642   3.588  19.543  1.00  0.00     0.039 C 
HETATM   18  C18 UNL     1       7.516   2.593  20.849  1.00  0.00     0.046 C 
HETATM   19  C19 UNL     1       7.906   1.666  19.724  1.00  0.00     0.143 C 
HETATM   20  S1  UNL     1       8.588   2.843  18.548  1.00  0.00     0.146 S 
HETATM   21  O5  UNL     1       7.974   2.627  17.202  1.00  0.00    -0.228 OA
HETATM   22  O6  UNL     1      10.081   2.781  18.531  1.00  0.00    -0.228 OA
HETATM   23  C20 UNL     1       8.016   4.374  19.291  1.00  0.00     0.170 C 
ENDBRANCH  13  16
ENDBRANCH   1  12
BRANCH   7  24
HETATM   24  C10 UNL     1       8.351   8.336  24.884  1.00  0.00     0.122 C 
BRANCH  24  25
HETATM   25  C11 UNL     1       9.660   8.393  24.270  1.00  0.00     0.261 C 
HETATM   26  O2  UNL     1       9.917   9.073  23.271  1.00  0.00    -0.265 OA
BRANCH  25  27
HETATM   27  O3  UNL     1      10.684   7.644  24.836  1.00  0.00    -0.295 OA
BRANCH  27  28
HETATM   28  C12 UNL     1      11.411   8.092  25.961  1.00  0.00     0.139 C 
HETATM   29  C13 UNL     1      12.859   7.664  25.830  1.00  0.00     0.064 C 
HETATM   30  C14 UNL     1      10.811   7.558  27.253  1.00  0.00     0.064 C 
HETATM   31 CL1  UNL     1      11.282   9.857  26.017  1.00  0.00    -0.088 Cl
ENDBRANCH  27  28
ENDBRANCH  25  27
ENDBRANCH  24  25
ENDBRANCH   7  24
TORSDOF 6
ENDMDL
