MODEL 1
REMARK VINA RESULT: -8.157569189      0.000      0.000
REMARK  6 active torsions:
REMARK  status: ('A' for Active; 'I' for Inactive)
REMARK    1  A    between atoms: C5_8  and  C6_9 
REMARK    2  A    between atoms: C6_9  and  C7_10 
REMARK    3  A    between atoms: C9_14  and  N4_15 
REMARK    4  A    between atoms: N4_15  and  C10_17 
REMARK    5  A    between atoms: C10_17  and  C11_18 
REMARK    6  A    between atoms: C11_18  and  N5_19 
ROOT
HETATM    1  N1  UNL     1       3.996  -8.127  35.742  1.00  0.00    -0.191 NA
HETATM    2  C1  UNL     1       3.317  -7.798  34.868  1.00  0.00     0.107 C 
HETATM    3  C2  UNL     1       2.478  -7.388  33.745  1.00  0.00     0.089 A 
HETATM    4  C3  UNL     1       1.192  -6.911  33.797  1.00  0.00     0.062 A 
HETATM    5  C4  UNL     1       0.609  -6.592  32.626  1.00  0.00     0.069 A 
HETATM    6  N2  UNL     1      -0.590  -6.105  32.183  1.00  0.00    -0.343 N 
ATOM      7  H2  UNL     1      -1.376  -5.864  32.787  1.00  0.00     0.167 HD
HETATM    8  C5  UNL     1      -0.590  -5.991  30.852  1.00  0.00     0.089 A 
HETATM    9  N9  UNL     1       0.600  -6.396  30.402  1.00  0.00    -0.338 N 
ATOM     10  H9  UNL     1       0.902  -6.424  29.428  1.00  0.00     0.168 HD
HETATM   11  C14 UNL     1       1.339  -6.766  31.489  1.00  0.00     0.103 A 
HETATM   12  S1  UNL     1       2.824  -7.372  32.077  1.00  0.00    -0.059 SA
ENDROOT
BRANCH   8  13
HETATM   13  C6  UNL     1      -1.702  -5.498  29.974  1.00  0.00     0.153 C 
BRANCH  13  14
HETATM   14  C7  UNL     1      -2.244  -6.600  29.161  1.00  0.00     0.090 A 
HETATM   15  N3  UNL     1      -2.803  -7.736  29.592  1.00  0.00    -0.339 N 
HETATM   16  C8  UNL     1      -3.167  -8.477  28.549  1.00  0.00     0.122 A 
ATOM     17  H3  UNL     1      -2.930  -7.994  30.571  1.00  0.00     0.167 HD
HETATM   18  C9  UNL     1      -3.776  -9.713  28.387  1.00  0.00     0.136 A 
HETATM   19  C13 UNL     1      -2.821  -7.772  27.429  1.00  0.00     0.141 A 
HETATM   20  N6  UNL     1      -3.989 -10.143  27.132  1.00  0.00    -0.293 N 
HETATM   21  C12 UNL     1      -3.645  -9.444  26.041  1.00  0.00     0.327 A 
ATOM     22  H6  UNL     1      -4.435 -11.051  27.003  1.00  0.00     0.172 HD
HETATM   23  O1  UNL     1      -3.866  -9.893  24.878  1.00  0.00    -0.247 OA
HETATM   24  N7  UNL     1      -3.057  -8.250  26.190  1.00  0.00    -0.292 N 
ATOM     25  H7  UNL     1      -2.789  -7.705  25.371  1.00  0.00     0.172 HD
HETATM   26  N8  UNL     1      -2.258  -6.626  27.823  1.00  0.00    -0.330 N 
ATOM     27  H8  UNL     1      -1.899  -5.895  27.209  1.00  0.00     0.168 HD
BRANCH  18  28
HETATM   28  N4  UNL     1      -4.104 -10.380  29.443  1.00  0.00    -0.373 N 
ATOM     29  H4  UNL     1      -4.276  -9.855  30.301  1.00  0.00     0.161 HD
BRANCH  28  30
HETATM   30  C10 UNL     1      -4.243 -11.807  29.494  1.00  0.00     0.148 C 
BRANCH  30  31
HETATM   31  C11 UNL     1      -4.409 -12.275  30.928  1.00  0.00     0.249 C 
BRANCH  31  32
HETATM   32  N5  UNL     1      -3.609 -11.475  31.830  1.00  0.00    -0.078 N 
ATOM     33  H53 UNL     1      -4.072 -11.345  32.729  1.00  0.00     0.274 HD
ATOM     34  H52 UNL     1      -2.785 -11.982  32.152  1.00  0.00     0.274 HD
ATOM     35  H51 UNL     1      -3.359 -10.583  31.402  1.00  0.00     0.274 HD
ENDBRANCH  31  32
ENDBRANCH  30  31
ENDBRANCH  28  30
ENDBRANCH  18  28
ENDBRANCH  13  14
ENDBRANCH   8  13
TORSDOF 6
ENDMDL
MODEL 2
REMARK VINA RESULT: -7.753804275      5.554      7.686
REMARK  6 active torsions:
REMARK  status: ('A' for Active; 'I' for Inactive)
REMARK    1  A    between atoms: C5_8  and  C6_9 
REMARK    2  A    between atoms: C6_9  and  C7_10 
REMARK    3  A    between atoms: C9_14  and  N4_15 
REMARK    4  A    between atoms: N4_15  and  C10_17 
REMARK    5  A    between atoms: C10_17  and  C11_18 
REMARK    6  A    between atoms: C11_18  and  N5_19 
ROOT
HETATM    1  N1  UNL     1      -3.741 -11.207  42.065  1.00  0.00    -0.191 NA
HETATM    2  C1  UNL     1      -3.791 -10.628  41.067  1.00  0.00     0.107 C 
HETATM    3  C2  UNL     1      -3.846  -9.873  39.818  1.00  0.00     0.089 A 
HETATM    4  C3  UNL     1      -4.262 -10.322  38.590  1.00  0.00     0.062 A 
HETATM    5  C4  UNL     1      -4.227  -9.443  37.571  1.00  0.00     0.069 A 
HETATM    6  N2  UNL     1      -4.523  -9.418  36.236  1.00  0.00    -0.343 N 
ATOM      7  H2  UNL     1      -4.883 -10.212  35.707  1.00  0.00     0.167 HD
HETATM    8  C5  UNL     1      -4.274  -8.210  35.720  1.00  0.00     0.089 A 
HETATM    9  N9  UNL     1      -3.815  -7.429  36.702  1.00  0.00    -0.338 N 
ATOM     10  H9  UNL     1      -3.539  -6.451  36.617  1.00  0.00     0.168 HD
HETATM   11  C14 UNL     1      -3.785  -8.183  37.839  1.00  0.00     0.103 A 
HETATM   12  S1  UNL     1      -3.426  -8.251  39.508  1.00  0.00    -0.059 SA
ENDROOT
BRANCH   8  13
HETATM   13  C6  UNL     1      -4.462  -7.762  34.301  1.00  0.00     0.153 C 
BRANCH  13  14
HETATM   14  C7  UNL     1      -3.177  -7.340  33.720  1.00  0.00     0.090 A 
HETATM   15  N3  UNL     1      -1.947  -7.693  34.109  1.00  0.00    -0.339 N 
HETATM   16  C8  UNL     1      -1.046  -7.100  33.331  1.00  0.00     0.122 A 
ATOM     17  H3  UNL     1      -1.734  -8.320  34.884  1.00  0.00     0.167 HD
HETATM   18  C9  UNL     1       0.339  -7.092  33.262  1.00  0.00     0.136 A 
HETATM   19  C13 UNL     1      -1.745  -6.352  32.423  1.00  0.00     0.141 A 
HETATM   20  N6  UNL     1       0.912  -6.345  32.303  1.00  0.00    -0.293 N 
HETATM   21  C12 UNL     1       0.217  -5.616  31.419  1.00  0.00     0.327 A 
ATOM     22  H6  UNL     1       1.930  -6.333  32.245  1.00  0.00     0.172 HD
HETATM   23  O1  UNL     1       0.803  -4.927  30.533  1.00  0.00    -0.247 OA
HETATM   24  N7  UNL     1      -1.120  -5.619  31.479  1.00  0.00    -0.292 N 
ATOM     25  H7  UNL     1      -1.665  -5.069  30.815  1.00  0.00     0.172 HD
HETATM   26  N8  UNL     1      -3.048  -6.511  32.677  1.00  0.00    -0.330 N 
ATOM     27  H8  UNL     1      -3.814  -6.076  32.163  1.00  0.00     0.168 HD
BRANCH  18  28
HETATM   28  N4  UNL     1       1.001  -7.798  34.117  1.00  0.00    -0.373 N 
ATOM     29  H4  UNL     1       0.504  -8.132  34.943  1.00  0.00     0.161 HD
BRANCH  28  30
HETATM   30  C10 UNL     1       2.387  -8.145  33.987  1.00  0.00     0.148 C 
BRANCH  30  31
HETATM   31  C11 UNL     1       3.204  -7.497  35.089  1.00  0.00     0.249 C 
BRANCH  31  32
HETATM   32  N5  UNL     1       4.070  -8.465  35.728  1.00  0.00    -0.078 N 
ATOM     33  H53 UNL     1       4.825  -8.762  35.109  1.00  0.00     0.274 HD
ATOM     34  H52 UNL     1       4.633  -8.038  36.464  1.00  0.00     0.274 HD
ATOM     35  H51 UNL     1       3.534  -9.260  36.077  1.00  0.00     0.274 HD
ENDBRANCH  31  32
ENDBRANCH  30  31
ENDBRANCH  28  30
ENDBRANCH  18  28
ENDBRANCH  13  14
ENDBRANCH   8  13
TORSDOF 6
ENDMDL
MODEL 3
REMARK VINA RESULT: -7.712126296      3.276      7.959
REMARK  6 active torsions:
REMARK  status: ('A' for Active; 'I' for Inactive)
REMARK    1  A    between atoms: C5_8  and  C6_9 
REMARK    2  A    between atoms: C6_9  and  C7_10 
REMARK    3  A    between atoms: C9_14  and  N4_15 
REMARK    4  A    between atoms: N4_15  and  C10_17 
REMARK    5  A    between atoms: C10_17  and  C11_18 
REMARK    6  A    between atoms: C11_18  and  N5_19 
ROOT
HETATM    1  N1  UNL     1      -4.512 -13.585  25.140  1.00  0.00    -0.191 NA
HETATM    2  C1  UNL     1      -4.408 -12.994  26.126  1.00  0.00     0.107 C 
HETATM    3  C2  UNL     1      -4.282 -12.268  27.388  1.00  0.00     0.089 A 
HETATM    4  C3  UNL     1      -4.049 -10.928  27.558  1.00  0.00     0.062 A 
HETATM    5  C4  UNL     1      -3.970 -10.474  28.824  1.00  0.00     0.069 A 
HETATM    6  N2  UNL     1      -3.764  -9.287  29.470  1.00  0.00    -0.343 N 
ATOM      7  H2  UNL     1      -3.608  -8.393  29.005  1.00  0.00     0.167 HD
HETATM    8  C5  UNL     1      -3.794  -9.459  30.795  1.00  0.00     0.089 A 
HETATM    9  N9  UNL     1      -4.020 -10.753  31.037  1.00  0.00    -0.338 N 
ATOM     10  H9  UNL     1      -4.097 -11.192  31.955  1.00  0.00     0.168 HD
HETATM   11  C14 UNL     1      -4.129 -11.379  29.829  1.00  0.00     0.103 A 
HETATM   12  S1  UNL     1      -4.383 -12.844  28.989  1.00  0.00    -0.059 SA
ENDROOT
BRANCH   8  13
HETATM   13  C6  UNL     1      -3.614  -8.419  31.860  1.00  0.00     0.153 C 
BRANCH  13  14
HETATM   14  C7  UNL     1      -2.257  -7.851  31.802  1.00  0.00     0.090 A 
HETATM   15  N3  UNL     1      -1.345  -7.811  32.779  1.00  0.00    -0.339 N 
HETATM   16  C8  UNL     1      -0.242  -7.216  32.335  1.00  0.00     0.122 A 
ATOM     17  H3  UNL     1      -1.476  -8.180  33.721  1.00  0.00     0.167 HD
HETATM   18  C9  UNL     1       0.993  -6.901  32.882  1.00  0.00     0.136 A 
HETATM   19  C13 UNL     1      -0.480  -6.875  31.031  1.00  0.00     0.141 A 
HETATM   20  N6  UNL     1       1.885  -6.278  32.093  1.00  0.00    -0.293 N 
HETATM   21  C12 UNL     1       1.641  -5.949  30.817  1.00  0.00     0.327 A 
ATOM     22  H6  UNL     1       2.796  -6.042  32.487  1.00  0.00     0.172 HD
HETATM   23  O1  UNL     1       2.514  -5.360  30.114  1.00  0.00    -0.247 OA
HETATM   24  N7  UNL     1       0.451  -6.249  30.282  1.00  0.00    -0.292 N 
ATOM     25  H7  UNL     1       0.248  -6.005  29.313  1.00  0.00     0.172 HD
HETATM   26  N8  UNL     1      -1.718  -7.272  30.723  1.00  0.00    -0.330 N 
ATOM     27  H8  UNL     1      -2.175  -7.154  29.818  1.00  0.00     0.168 HD
BRANCH  18  28
HETATM   28  N4  UNL     1       1.220  -7.223  34.112  1.00  0.00    -0.373 N 
ATOM     29  H4  UNL     1       0.670  -6.756  34.833  1.00  0.00     0.161 HD
BRANCH  28  30
HETATM   30  C10 UNL     1       2.192  -8.190  34.535  1.00  0.00     0.148 C 
BRANCH  30  31
HETATM   31  C11 UNL     1       3.362  -7.506  35.217  1.00  0.00     0.249 C 
BRANCH  31  32
HETATM   32  N5  UNL     1       4.157  -8.460  35.960  1.00  0.00    -0.078 N 
ATOM     33  H53 UNL     1       4.687  -8.009  36.707  1.00  0.00     0.274 HD
ATOM     34  H52 UNL     1       3.574  -9.071  36.532  1.00  0.00     0.274 HD
ATOM     35  H51 UNL     1       4.764  -8.993  35.337  1.00  0.00     0.274 HD
ENDBRANCH  31  32
ENDBRANCH  30  31
ENDBRANCH  28  30
ENDBRANCH  18  28
ENDBRANCH  13  14
ENDBRANCH   8  13
TORSDOF 6
ENDMDL
MODEL 4
REMARK VINA RESULT: -7.691497145      1.496      3.075
REMARK  6 active torsions:
REMARK  status: ('A' for Active; 'I' for Inactive)
REMARK    1  A    between atoms: C5_8  and  C6_9 
REMARK    2  A    between atoms: C6_9  and  C7_10 
REMARK    3  A    between atoms: C9_14  and  N4_15 
REMARK    4  A    between atoms: N4_15  and  C10_17 
REMARK    5  A    between atoms: C10_17  and  C11_18 
REMARK    6  A    between atoms: C11_18  and  N5_19 
ROOT
HETATM    1  N1  UNL     1       4.224  -8.037  36.230  1.00  0.00    -0.191 NA
HETATM    2  C1  UNL     1       3.573  -7.719  35.331  1.00  0.00     0.107 C 
HETATM    3  C2  UNL     1       2.771  -7.322  34.177  1.00  0.00     0.089 A 
HETATM    4  C3  UNL     1       1.495  -6.819  34.183  1.00  0.00     0.062 A 
HETATM    5  C4  UNL     1       0.948  -6.520  32.989  1.00  0.00     0.069 A 
HETATM    6  N2  UNL     1      -0.229  -6.021  32.504  1.00  0.00    -0.343 N 
ATOM      7  H2  UNL     1      -1.025  -5.747  33.081  1.00  0.00     0.167 HD
HETATM    8  C5  UNL     1      -0.194  -5.942  31.170  1.00  0.00     0.089 A 
HETATM    9  N9  UNL     1       0.998  -6.384  30.762  1.00  0.00    -0.338 N 
ATOM     10  H9  UNL     1       1.322  -6.445  29.797  1.00  0.00     0.168 HD
HETATM   11  C14 UNL     1       1.702  -6.739  31.876  1.00  0.00     0.103 A 
HETATM   12  S1  UNL     1       3.158  -7.359  32.518  1.00  0.00    -0.059 SA
ENDROOT
BRANCH   8  13
HETATM   13  C6  UNL     1      -1.274  -5.452  30.252  1.00  0.00     0.153 C 
BRANCH  13  14
HETATM   14  C7  UNL     1      -2.025  -6.585  29.687  1.00  0.00     0.090 A 
HETATM   15  N3  UNL     1      -2.265  -6.846  28.398  1.00  0.00    -0.339 N 
HETATM   16  C8  UNL     1      -2.980  -7.963  28.295  1.00  0.00     0.122 A 
ATOM     17  H3  UNL     1      -1.948  -6.276  27.614  1.00  0.00     0.167 HD
HETATM   18  C9  UNL     1      -3.507  -8.699  27.244  1.00  0.00     0.136 A 
HETATM   19  C13 UNL     1      -3.190  -8.411  29.571  1.00  0.00     0.141 A 
HETATM   20  N6  UNL     1      -4.195  -9.813  27.546  1.00  0.00    -0.293 N 
HETATM   21  C12 UNL     1      -4.395 -10.243  28.800  1.00  0.00     0.327 A 
ATOM     22  H6  UNL     1      -4.587 -10.361  26.780  1.00  0.00     0.172 HD
HETATM   23  O1  UNL     1      -5.052 -11.300  29.034  1.00  0.00    -0.247 OA
HETATM   24  N7  UNL     1      -3.890  -9.537  29.819  1.00  0.00    -0.292 N 
ATOM     25  H7  UNL     1      -4.033  -9.850  30.780  1.00  0.00     0.172 HD
HETATM   26  N8  UNL     1      -2.598  -7.555  30.410  1.00  0.00    -0.330 N 
ATOM     27  H8  UNL     1      -2.585  -7.628  31.427  1.00  0.00     0.168 HD
BRANCH  18  28
HETATM   28  N4  UNL     1      -3.309  -8.278  26.040  1.00  0.00    -0.373 N 
ATOM     29  H4  UNL     1      -2.348  -8.091  25.754  1.00  0.00     0.161 HD
BRANCH  28  30
HETATM   30  C10 UNL     1      -4.347  -8.056  25.074  1.00  0.00     0.148 C 
BRANCH  30  31
HETATM   31  C11 UNL     1      -5.308  -6.988  25.562  1.00  0.00     0.249 C 
BRANCH  31  32
HETATM   32  N5  UNL     1      -6.638  -7.530  25.741  1.00  0.00    -0.078 N 
ATOM     33  H53 UNL     1      -6.960  -7.427  26.703  1.00  0.00     0.274 HD
ATOM     34  H52 UNL     1      -7.343  -6.956  25.279  1.00  0.00     0.274 HD
ATOM     35  H51 UNL     1      -6.681  -8.501  25.431  1.00  0.00     0.274 HD
ENDBRANCH  31  32
ENDBRANCH  30  31
ENDBRANCH  28  30
ENDBRANCH  18  28
ENDBRANCH  13  14
ENDBRANCH   8  13
TORSDOF 6
ENDMDL
MODEL 5
REMARK VINA RESULT: -7.615346512      3.736      7.624
REMARK  6 active torsions:
REMARK  status: ('A' for Active; 'I' for Inactive)
REMARK    1  A    between atoms: C5_8  and  C6_9 
REMARK    2  A    between atoms: C6_9  and  C7_10 
REMARK    3  A    between atoms: C9_14  and  N4_15 
REMARK    4  A    between atoms: N4_15  and  C10_17 
REMARK    5  A    between atoms: C10_17  and  C11_18 
REMARK    6  A    between atoms: C11_18  and  N5_19 
ROOT
HETATM    1  N1  UNL     1      -4.804 -13.850  25.123  1.00  0.00    -0.191 NA
HETATM    2  C1  UNL     1      -4.527 -12.906  25.727  1.00  0.00     0.107 C 
HETATM    3  C2  UNL     1      -4.186 -11.723  26.513  1.00  0.00     0.089 A 
HETATM    4  C3  UNL     1      -3.676 -10.536  26.054  1.00  0.00     0.062 A 
HETATM    5  C4  UNL     1      -3.436  -9.576  26.967  1.00  0.00     0.069 A 
HETATM    6  N2  UNL     1      -2.957  -8.296  26.999  1.00  0.00    -0.343 N 
ATOM      7  H2  UNL     1      -2.649  -7.771  26.180  1.00  0.00     0.167 HD
HETATM    8  C5  UNL     1      -2.947  -7.826  28.250  1.00  0.00     0.089 A 
HETATM    9  N9  UNL     1      -3.417  -8.784  29.053  1.00  0.00    -0.338 N 
ATOM     10  H9  UNL     1      -3.531  -8.722  30.065  1.00  0.00     0.168 HD
HETATM   11  C14 UNL     1      -3.719  -9.859  28.269  1.00  0.00     0.103 A 
HETATM   12  S1  UNL     1      -4.312 -11.459  28.192  1.00  0.00    -0.059 SA
ENDROOT
BRANCH   8  13
HETATM   13  C6  UNL     1      -2.500  -6.473  28.719  1.00  0.00     0.153 C 
BRANCH  13  14
HETATM   14  C7  UNL     1      -1.663  -6.596  29.924  1.00  0.00     0.090 A 
HETATM   15  N3  UNL     1      -2.051  -6.930  31.159  1.00  0.00    -0.339 N 
HETATM   16  C8  UNL     1      -0.998  -6.931  31.972  1.00  0.00     0.122 A 
ATOM     17  H3  UNL     1      -3.008  -7.150  31.435  1.00  0.00     0.167 HD
HETATM   18  C9  UNL     1      -0.798  -7.191  33.320  1.00  0.00     0.136 A 
HETATM   19  C13 UNL     1       0.084  -6.585  31.210  1.00  0.00     0.141 A 
HETATM   20  N6  UNL     1       0.454  -7.087  33.796  1.00  0.00    -0.293 N 
HETATM   21  C12 UNL     1       1.507  -6.747  33.040  1.00  0.00     0.327 A 
ATOM     22  H6  UNL     1       0.611  -7.276  34.786  1.00  0.00     0.172 HD
HETATM   23  O1  UNL     1       2.669  -6.661  33.535  1.00  0.00    -0.247 OA
HETATM   24  N7  UNL     1       1.322  -6.494  31.738  1.00  0.00    -0.292 N 
ATOM     25  H7  UNL     1       2.112  -6.233  31.149  1.00  0.00     0.172 HD
HETATM   26  N8  UNL     1      -0.342  -6.384  29.959  1.00  0.00    -0.330 N 
ATOM     27  H8  UNL     1       0.240  -6.114  29.166  1.00  0.00     0.168 HD
BRANCH  18  28
HETATM   28  N4  UNL     1      -1.818  -7.519  34.040  1.00  0.00    -0.373 N 
ATOM     29  H4  UNL     1      -1.803  -8.430  34.497  1.00  0.00     0.161 HD
BRANCH  28  30
HETATM   30  C10 UNL     1      -2.971  -6.690  34.243  1.00  0.00     0.148 C 
BRANCH  30  31
HETATM   31  C11 UNL     1      -4.129  -7.510  34.782  1.00  0.00     0.249 C 
BRANCH  31  32
HETATM   32  N5  UNL     1      -3.697  -8.364  35.867  1.00  0.00    -0.078 N 
ATOM     33  H53 UNL     1      -3.192  -9.182  35.526  1.00  0.00     0.274 HD
ATOM     34  H52 UNL     1      -2.947  -7.934  36.408  1.00  0.00     0.274 HD
ATOM     35  H51 UNL     1      -4.485  -8.627  36.460  1.00  0.00     0.274 HD
ENDBRANCH  31  32
ENDBRANCH  30  31
ENDBRANCH  28  30
ENDBRANCH  18  28
ENDBRANCH  13  14
ENDBRANCH   8  13
TORSDOF 6
ENDMDL
