MODEL 1
REMARK VINA RESULT: -7.500714676      0.000      0.000
REMARK  6 active torsions:
REMARK  status: ('A' for Active; 'I' for Inactive)
REMARK    1  A    between atoms: C2_2  and  C3_3 
REMARK    2  A    between atoms: C3_3  and  S1_5 
REMARK    3  A    between atoms: S1_5  and  N1_8 
REMARK    4  A    between atoms: N1_8  and  C5_10 
REMARK    5  A    between atoms: C6_13  and  N3_14 
REMARK    6  A    between atoms: C9_23  and  C10_24 
ROOT
HETATM    1  C5  UNL     1       0.183  -7.694  32.851  1.00  0.00     0.145 A 
HETATM    2  N2  UNL     1       0.825  -8.122  33.951  1.00  0.00    -0.175 N 
ATOM      3  H2  UNL     1       0.328  -8.726  34.605  1.00  0.00     0.186 HD
HETATM    4  C6  UNL     1       2.097  -7.783  34.222  1.00  0.00     0.679 A 
HETATM    5  N4  UNL     1       2.749  -6.989  33.363  1.00  0.00    -0.176 N 
ATOM      6  H4  UNL     1       3.714  -6.733  33.573  1.00  0.00     0.186 HD
HETATM    7  C7  UNL     1       2.189  -6.512  32.234  1.00  0.00     0.136 A 
HETATM    8  N5  UNL     1       2.638  -5.716  31.241  1.00  0.00    -0.350 N 
ATOM      9  H5  UNL     1       3.572  -5.310  31.187  1.00  0.00     0.166 HD
HETATM   10  C8  UNL     1       1.671  -5.545  30.346  1.00  0.00     0.106 A 
HETATM   11  C9  UNL     1       0.540  -6.268  30.784  1.00  0.00     0.050 A 
HETATM   12  C13 UNL     1       0.863  -6.881  31.979  1.00  0.00     0.070 A 
ENDROOT
BRANCH  11  13
HETATM   13  C10 UNL     1      -0.699  -6.296  30.032  1.00  0.00     0.178 A 
HETATM   14  N6  UNL     1      -1.510  -5.236  29.764  1.00  0.00    -0.276 N 
HETATM   15  N7  UNL     1      -2.556  -5.609  29.057  1.00  0.00    -0.263 N 
ATOM     16  H6  UNL     1      -1.332  -4.280  30.071  1.00  0.00     0.189 HD
HETATM   17  C11 UNL     1      -2.398  -6.938  28.877  1.00  0.00     0.240 A 
ATOM     18  H7  UNL     1      -3.319  -5.022  28.720  1.00  0.00     0.190 HD
HETATM   19  N8  UNL     1      -3.184  -7.739  28.238  1.00  0.00    -0.359 N 
HETATM   20  O3  UNL     1      -1.291  -7.291  29.470  1.00  0.00    -0.259 OA
HETATM   21  C12 UNL     1      -4.398  -7.263  27.606  1.00  0.00     0.150 C 
ATOM     22  H8  UNL     1      -2.944  -8.728  28.176  1.00  0.00     0.162 HD
ENDBRANCH  11  13
BRANCH   1  23
HETATM   23  N1  UNL     1      -1.025  -8.048  32.645  1.00  0.00    -0.268 N 
ATOM     24  H1  UNL     1      -1.158  -8.911  32.117  1.00  0.00     0.180 HD
BRANCH  23  25
HETATM   25  S1  UNL     1      -2.436  -7.249  33.147  1.00  0.00     0.235 S 
HETATM   26  O1  UNL     1      -2.691  -6.008  32.342  1.00  0.00    -0.205 OA
HETATM   27  O2  UNL     1      -2.205  -6.807  34.588  1.00  0.00    -0.205 OA
BRANCH  25  28
HETATM   28  C3  UNL     1      -3.865  -8.332  33.159  1.00  0.00     0.125 C 
HETATM   29  C4  UNL     1      -4.315  -8.536  34.584  1.00  0.00     0.028 C 
BRANCH  28  30
HETATM   30  C2  UNL     1      -3.427  -9.633  32.519  1.00  0.00     0.017 C 
HETATM   31  C1  UNL     1      -3.909  -9.749  31.102  1.00  0.00     0.006 C 
ENDBRANCH  28  30
ENDBRANCH  25  28
ENDBRANCH  23  25
ENDBRANCH   1  23
BRANCH   4  32
HETATM   32  N3  UNL     1       2.688  -8.220  35.305  1.00  0.00    -0.234 N 
ATOM     33  H32 UNL     1       2.370  -7.921  36.227  1.00  0.00     0.174 HD
ATOM     34  H31 UNL     1       3.475  -8.867  35.244  1.00  0.00     0.174 HD
ENDBRANCH   4  32
TORSDOF 6
ENDMDL
MODEL 2
REMARK VINA RESULT: -7.438006484      0.510      1.240
REMARK  6 active torsions:
REMARK  status: ('A' for Active; 'I' for Inactive)
REMARK    1  A    between atoms: C2_2  and  C3_3 
REMARK    2  A    between atoms: C3_3  and  S1_5 
REMARK    3  A    between atoms: S1_5  and  N1_8 
REMARK    4  A    between atoms: N1_8  and  C5_10 
REMARK    5  A    between atoms: C6_13  and  N3_14 
REMARK    6  A    between atoms: C9_23  and  C10_24 
ROOT
HETATM    1  C5  UNL     1       0.217  -7.675  32.921  1.00  0.00     0.145 A 
HETATM    2  N2  UNL     1       0.865  -8.100  34.019  1.00  0.00    -0.175 N 
ATOM      3  H2  UNL     1       0.362  -8.680  34.691  1.00  0.00     0.186 HD
HETATM    4  C6  UNL     1       2.149  -7.790  34.265  1.00  0.00     0.679 A 
HETATM    5  N4  UNL     1       2.808  -7.029  33.382  1.00  0.00    -0.176 N 
ATOM      6  H4  UNL     1       3.782  -6.795  33.574  1.00  0.00     0.186 HD
HETATM    7  C7  UNL     1       2.244  -6.558  32.253  1.00  0.00     0.136 A 
HETATM    8  N5  UNL     1       2.698  -5.792  31.239  1.00  0.00    -0.350 N 
ATOM      9  H5  UNL     1       3.641  -5.411  31.164  1.00  0.00     0.166 HD
HETATM   10  C8  UNL     1       1.723  -5.612  30.355  1.00  0.00     0.106 A 
HETATM   11  C9  UNL     1       0.580  -6.296  30.823  1.00  0.00     0.050 A 
HETATM   12  C13 UNL     1       0.905  -6.896  32.024  1.00  0.00     0.070 A 
ENDROOT
BRANCH  11  13
HETATM   13  C10 UNL     1      -0.671  -6.305  30.090  1.00  0.00     0.178 A 
HETATM   14  N6  UNL     1      -1.462  -5.231  29.822  1.00  0.00    -0.276 N 
HETATM   15  N7  UNL     1      -2.527  -5.589  29.134  1.00  0.00    -0.263 N 
ATOM     16  H6  UNL     1      -1.258  -4.276  30.114  1.00  0.00     0.189 HD
HETATM   17  C11 UNL     1      -2.401  -6.923  28.967  1.00  0.00     0.240 A 
ATOM     18  H7  UNL     1      -3.281  -4.989  28.801  1.00  0.00     0.190 HD
HETATM   19  N8  UNL     1      -3.213  -7.713  28.350  1.00  0.00    -0.359 N 
HETATM   20  O3  UNL     1      -1.293  -7.293  29.549  1.00  0.00    -0.259 OA
HETATM   21  C12 UNL     1      -4.426  -7.218  27.731  1.00  0.00     0.150 C 
ATOM     22  H8  UNL     1      -2.997  -8.709  28.296  1.00  0.00     0.162 HD
ENDBRANCH  11  13
BRANCH   1  23
HETATM   23  N1  UNL     1      -1.002  -8.002  32.739  1.00  0.00    -0.268 N 
ATOM     24  H1  UNL     1      -1.167  -8.838  32.179  1.00  0.00     0.180 HD
BRANCH  23  25
HETATM   25  S1  UNL     1      -2.383  -7.203  33.321  1.00  0.00     0.235 S 
HETATM   26  O1  UNL     1      -2.860  -6.147  32.366  1.00  0.00    -0.205 OA
HETATM   27  O2  UNL     1      -1.975  -6.492  34.606  1.00  0.00    -0.205 OA
BRANCH  25  28
HETATM   28  C3  UNL     1      -3.698  -8.343  33.753  1.00  0.00     0.125 C 
HETATM   29  C4  UNL     1      -3.710  -9.479  32.761  1.00  0.00     0.028 C 
BRANCH  28  30
HETATM   30  C2  UNL     1      -4.988  -7.550  33.712  1.00  0.00     0.017 C 
HETATM   31  C1  UNL     1      -5.460  -7.180  35.088  1.00  0.00     0.006 C 
ENDBRANCH  28  30
ENDBRANCH  25  28
ENDBRANCH  23  25
ENDBRANCH   1  23
BRANCH   4  32
HETATM   32  N3  UNL     1       2.744  -8.223  35.348  1.00  0.00    -0.234 N 
ATOM     33  H32 UNL     1       2.662  -9.199  35.630  1.00  0.00     0.174 HD
ATOM     34  H31 UNL     1       3.299  -7.591  35.925  1.00  0.00     0.174 HD
ENDBRANCH   4  32
TORSDOF 6
ENDMDL
MODEL 3
REMARK VINA RESULT: -6.977885984      1.117      1.250
REMARK  6 active torsions:
REMARK  status: ('A' for Active; 'I' for Inactive)
REMARK    1  A    between atoms: C2_2  and  C3_3 
REMARK    2  A    between atoms: C3_3  and  S1_5 
REMARK    3  A    between atoms: S1_5  and  N1_8 
REMARK    4  A    between atoms: N1_8  and  C5_10 
REMARK    5  A    between atoms: C6_13  and  N3_14 
REMARK    6  A    between atoms: C9_23  and  C10_24 
ROOT
HETATM    1  C5  UNL     1      -0.196  -7.506  32.780  1.00  0.00     0.145 A 
HETATM    2  N2  UNL     1       0.562  -7.901  33.816  1.00  0.00    -0.175 N 
ATOM      3  H2  UNL     1       0.175  -8.574  34.478  1.00  0.00     0.186 HD
HETATM    4  C6  UNL     1       1.810  -7.443  34.014  1.00  0.00     0.679 A 
HETATM    5  N4  UNL     1       2.317  -6.559  33.145  1.00  0.00    -0.176 N 
ATOM      6  H4  UNL     1       3.264  -6.213  33.300  1.00  0.00     0.186 HD
HETATM    7  C7  UNL     1       1.633  -6.106  32.076  1.00  0.00     0.136 A 
HETATM    8  N5  UNL     1       1.929  -5.237  31.087  1.00  0.00    -0.350 N 
ATOM      9  H5  UNL     1       2.812  -4.736  30.986  1.00  0.00     0.166 HD
HETATM   10  C8  UNL     1       0.889  -5.137  30.266  1.00  0.00     0.106 A 
HETATM   11  C9  UNL     1      -0.130  -5.985  30.751  1.00  0.00     0.050 A 
HETATM   12  C13 UNL     1       0.336  -6.600  31.896  1.00  0.00     0.070 A 
ENDROOT
BRANCH  11  13
HETATM   13  C10 UNL     1      -1.411  -6.116  30.083  1.00  0.00     0.178 A 
HETATM   14  N6  UNL     1      -1.670  -6.835  28.957  1.00  0.00    -0.276 N 
HETATM   15  N7  UNL     1      -2.938  -6.740  28.618  1.00  0.00    -0.263 N 
ATOM     16  H6  UNL     1      -0.974  -7.375  28.444  1.00  0.00     0.189 HD
HETATM   17  C11 UNL     1      -3.490  -5.940  29.556  1.00  0.00     0.240 A 
ATOM     18  H7  UNL     1      -3.403  -7.176  27.821  1.00  0.00     0.190 HD
HETATM   19  N8  UNL     1      -4.722  -5.562  29.634  1.00  0.00    -0.359 N 
HETATM   20  O3  UNL     1      -2.549  -5.601  30.393  1.00  0.00    -0.259 OA
HETATM   21  C12 UNL     1      -5.707  -5.985  28.658  1.00  0.00     0.150 C 
ATOM     22  H8  UNL     1      -5.009  -4.952  30.399  1.00  0.00     0.162 HD
ENDBRANCH  11  13
BRANCH   1  23
HETATM   23  N1  UNL     1      -1.374  -7.975  32.642  1.00  0.00    -0.268 N 
ATOM     24  H1  UNL     1      -1.465  -8.800  32.048  1.00  0.00     0.180 HD
BRANCH  23  25
HETATM   25  S1  UNL     1      -2.808  -7.385  33.331  1.00  0.00     0.235 S 
HETATM   26  O1  UNL     1      -2.841  -5.884  33.352  1.00  0.00    -0.205 OA
HETATM   27  O2  UNL     1      -2.827  -7.852  34.783  1.00  0.00    -0.205 OA
BRANCH  25  28
HETATM   28  C3  UNL     1      -4.272  -8.065  32.549  1.00  0.00     0.125 C 
HETATM   29  C4  UNL     1      -5.138  -8.710  33.602  1.00  0.00     0.028 C 
BRANCH  28  30
HETATM   30  C2  UNL     1      -3.786  -9.074  31.528  1.00  0.00     0.017 C 
HETATM   31  C1  UNL     1      -3.817 -10.474  32.067  1.00  0.00     0.006 C 
ENDBRANCH  28  30
ENDBRANCH  25  28
ENDBRANCH  23  25
ENDBRANCH   1  23
BRANCH   4  32
HETATM   32  N3  UNL     1       2.516  -7.852  35.038  1.00  0.00    -0.234 N 
ATOM     33  H32 UNL     1       3.497  -7.592  35.129  1.00  0.00     0.174 HD
ATOM     34  H31 UNL     1       2.095  -8.437  35.760  1.00  0.00     0.174 HD
ENDBRANCH   4  32
TORSDOF 6
ENDMDL
MODEL 4
REMARK VINA RESULT: -6.709711850      2.611      6.485
REMARK  6 active torsions:
REMARK  status: ('A' for Active; 'I' for Inactive)
REMARK    1  A    between atoms: C2_2  and  C3_3 
REMARK    2  A    between atoms: C3_3  and  S1_5 
REMARK    3  A    between atoms: S1_5  and  N1_8 
REMARK    4  A    between atoms: N1_8  and  C5_10 
REMARK    5  A    between atoms: C6_13  and  N3_14 
REMARK    6  A    between atoms: C9_23  and  C10_24 
ROOT
HETATM    1  C5  UNL     1      -2.736  -7.323  30.680  1.00  0.00     0.145 A 
HETATM    2  N2  UNL     1      -2.313  -7.337  29.405  1.00  0.00    -0.175 N 
ATOM      3  H2  UNL     1      -1.375  -7.684  29.203  1.00  0.00     0.186 HD
HETATM    4  C6  UNL     1      -3.079  -6.912  28.386  1.00  0.00     0.679 A 
HETATM    5  N4  UNL     1      -4.310  -6.457  28.651  1.00  0.00    -0.176 N 
ATOM      6  H4  UNL     1      -4.887  -6.134  27.875  1.00  0.00     0.186 HD
HETATM    7  C7  UNL     1      -4.821  -6.406  29.897  1.00  0.00     0.136 A 
HETATM    8  N5  UNL     1      -6.006  -5.997  30.397  1.00  0.00    -0.350 N 
ATOM      9  H5  UNL     1      -6.781  -5.625  29.849  1.00  0.00     0.166 HD
HETATM   10  C8  UNL     1      -6.003  -6.157  31.716  1.00  0.00     0.106 A 
HETATM   11  C9  UNL     1      -4.752  -6.695  32.086  1.00  0.00     0.050 A 
HETATM   12  C13 UNL     1      -4.000  -6.854  30.938  1.00  0.00     0.070 A 
ENDROOT
BRANCH  11  13
HETATM   13  C10 UNL     1      -4.415  -6.995  33.464  1.00  0.00     0.178 A 
HETATM   14  N6  UNL     1      -3.659  -6.231  34.300  1.00  0.00    -0.276 N 
HETATM   15  N7  UNL     1      -3.549  -6.794  35.484  1.00  0.00    -0.263 N 
ATOM     16  H6  UNL     1      -3.235  -5.341  34.042  1.00  0.00     0.189 HD
HETATM   17  C11 UNL     1      -4.254  -7.943  35.390  1.00  0.00     0.240 A 
ATOM     18  H7  UNL     1      -3.042  -6.441  36.295  1.00  0.00     0.190 HD
HETATM   19  N8  UNL     1      -4.429  -8.830  36.312  1.00  0.00    -0.359 N 
HETATM   20  O3  UNL     1      -4.742  -8.012  34.182  1.00  0.00    -0.259 OA
HETATM   21  C12 UNL     1      -3.849  -8.675  37.630  1.00  0.00     0.150 C 
ATOM     22  H8  UNL     1      -4.989  -9.657  36.107  1.00  0.00     0.162 HD
ENDBRANCH  11  13
BRANCH   1  23
HETATM   23  N1  UNL     1      -1.966  -7.740  31.607  1.00  0.00    -0.268 N 
ATOM     24  H1  UNL     1      -2.066  -8.720  31.871  1.00  0.00     0.180 HD
BRANCH  23  25
HETATM   25  S1  UNL     1      -0.793  -6.851  32.453  1.00  0.00     0.235 S 
HETATM   26  O1  UNL     1      -0.769  -7.204  33.912  1.00  0.00    -0.205 OA
HETATM   27  O2  UNL     1      -1.193  -5.383  32.355  1.00  0.00    -0.205 OA
BRANCH  25  28
HETATM   28  C3  UNL     1       0.836  -6.995  31.715  1.00  0.00     0.125 C 
HETATM   29  C4  UNL     1       1.638  -8.010  32.489  1.00  0.00     0.028 C 
BRANCH  28  30
HETATM   30  C2  UNL     1       1.462  -5.617  31.779  1.00  0.00     0.017 C 
HETATM   31  C1  UNL     1       1.809  -5.097  30.414  1.00  0.00     0.006 C 
ENDBRANCH  28  30
ENDBRANCH  25  28
ENDBRANCH  23  25
ENDBRANCH   1  23
BRANCH   4  32
HETATM   32  N3  UNL     1      -2.630  -6.942  27.156  1.00  0.00    -0.234 N 
ATOM     33  H32 UNL     1      -2.386  -6.078  26.672  1.00  0.00     0.174 HD
ATOM     34  H31 UNL     1      -2.517  -7.829  26.665  1.00  0.00     0.174 HD
ENDBRANCH   4  32
TORSDOF 6
ENDMDL
MODEL 5
REMARK VINA RESULT: -6.653526934      2.729      4.896
REMARK  6 active torsions:
REMARK  status: ('A' for Active; 'I' for Inactive)
REMARK    1  A    between atoms: C2_2  and  C3_3 
REMARK    2  A    between atoms: C3_3  and  S1_5 
REMARK    3  A    between atoms: S1_5  and  N1_8 
REMARK    4  A    between atoms: N1_8  and  C5_10 
REMARK    5  A    between atoms: C6_13  and  N3_14 
REMARK    6  A    between atoms: C9_23  and  C10_24 
ROOT
HETATM    1  C5  UNL     1      -1.496  -6.717  30.303  1.00  0.00     0.145 A 
HETATM    2  N2  UNL     1      -0.225  -6.719  29.871  1.00  0.00    -0.175 N 
ATOM      3  H2  UNL     1      -0.039  -6.502  28.892  1.00  0.00     0.186 HD
HETATM    4  C6  UNL     1       0.812  -6.997  30.679  1.00  0.00     0.679 A 
HETATM    5  N4  UNL     1       0.568  -7.282  31.965  1.00  0.00    -0.176 N 
ATOM      6  H4  UNL     1       1.357  -7.493  32.575  1.00  0.00     0.186 HD
HETATM    7  C7  UNL     1      -0.673  -7.302  32.490  1.00  0.00     0.136 A 
HETATM    8  N5  UNL     1      -1.154  -7.556  33.724  1.00  0.00    -0.350 N 
ATOM      9  H5  UNL     1      -0.589  -7.796  34.540  1.00  0.00     0.166 HD
HETATM   10  C8  UNL     1      -2.477  -7.443  33.712  1.00  0.00     0.106 A 
HETATM   11  C9  UNL     1      -2.871  -7.100  32.400  1.00  0.00     0.050 A 
HETATM   12  C13 UNL     1      -1.733  -7.010  31.623  1.00  0.00     0.070 A 
ENDROOT
BRANCH  11  13
HETATM   13  C10 UNL     1      -4.261  -6.898  32.037  1.00  0.00     0.178 A 
HETATM   14  N6  UNL     1      -5.295  -7.749  32.280  1.00  0.00    -0.276 N 
HETATM   15  N7  UNL     1      -6.427  -7.260  31.818  1.00  0.00    -0.263 N 
ATOM     16  H6  UNL     1      -5.205  -8.646  32.756  1.00  0.00     0.189 HD
HETATM   17  C11 UNL     1      -6.094  -6.071  31.270  1.00  0.00     0.240 A 
ATOM     18  H7  UNL     1      -7.352  -7.686  31.864  1.00  0.00     0.190 HD
HETATM   19  N8  UNL     1      -6.884  -5.229  30.691  1.00  0.00    -0.359 N 
HETATM   20  O3  UNL     1      -4.809  -5.907  31.426  1.00  0.00    -0.259 OA
HETATM   21  C12 UNL     1      -8.303  -5.491  30.560  1.00  0.00     0.150 C 
ATOM     22  H8  UNL     1      -6.500  -4.361  30.318  1.00  0.00     0.162 HD
ENDBRANCH  11  13
BRANCH   1  23
HETATM   23  N1  UNL     1      -2.441  -6.445  29.490  1.00  0.00    -0.268 N 
ATOM     24  H1  UNL     1      -2.751  -5.474  29.466  1.00  0.00     0.180 HD
BRANCH  23  25
HETATM   25  S1  UNL     1      -3.243  -7.515  28.444  1.00  0.00     0.235 S 
HETATM   26  O1  UNL     1      -3.356  -8.891  29.032  1.00  0.00    -0.205 OA
HETATM   27  O2  UNL     1      -2.385  -7.634  27.189  1.00  0.00    -0.205 OA
BRANCH  25  28
HETATM   28  C3  UNL     1      -4.841  -6.888  27.922  1.00  0.00     0.125 C 
HETATM   29  C4  UNL     1      -5.900  -7.912  28.247  1.00  0.00     0.028 C 
BRANCH  28  30
HETATM   30  C2  UNL     1      -4.741  -6.640  26.431  1.00  0.00     0.017 C 
HETATM   31  C1  UNL     1      -5.763  -7.427  25.663  1.00  0.00     0.006 C 
ENDBRANCH  28  30
ENDBRANCH  25  28
ENDBRANCH  23  25
ENDBRANCH   1  23
BRANCH   4  32
HETATM   32  N3  UNL     1       2.038  -6.989  30.219  1.00  0.00    -0.234 N 
ATOM     33  H32 UNL     1       2.832  -7.011  30.858  1.00  0.00     0.174 HD
ATOM     34  H31 UNL     1       2.216  -6.962  29.215  1.00  0.00     0.174 HD
ENDBRANCH   4  32
TORSDOF 6
ENDMDL
