MODEL 1
REMARK VINA RESULT: -8.435487808      0.000      0.000
REMARK  8 active torsions:
REMARK  status: ('A' for Active; 'I' for Inactive)
REMARK    1  A    between atoms: C2_2  and  N1_3 
REMARK    2  A    between atoms: C3_4  and  C4_5 
REMARK    3  A    between atoms: C5_6  and  N3_9 
REMARK    4  A    between atoms: N3_9  and  N4_11 
REMARK    5  A    between atoms: C8_15  and  C9_16 
REMARK    6  A    between atoms: C9_16  and  N5_17 
REMARK    7  A    between atoms: N5_17  and  C10_19 
REMARK    8  A    between atoms: C11_22  and  N7_23 
ROOT
HETATM    1  C4  UNL     1      -3.383  -9.111  26.163  1.00  0.00     0.072 C 
HETATM    2  C5  UNL     1      -3.513 -10.401  26.319  1.00  0.00     0.130 C 
HETATM    3  C6  UNL     1      -3.814 -11.008  27.573  1.00  0.00     0.119 C 
HETATM    4  N2  UNL     1      -4.069 -11.524  28.596  1.00  0.00    -0.190 NA
ENDROOT
BRANCH   2   5
HETATM    5  N3  UNL     1      -3.346 -11.232  25.186  1.00  0.00    -0.297 N 
ATOM      6  H3  UNL     1      -2.957 -10.835  24.331  1.00  0.00     0.187 HD
BRANCH   5   7
HETATM    7  N4  UNL     1      -3.697 -12.569  25.211  1.00  0.00    -0.344 N 
ATOM      8  H42 UNL     1      -4.271 -12.902  25.986  1.00  0.00     0.176 HD
ATOM      9  H41 UNL     1      -3.396 -13.213  24.481  1.00  0.00     0.176 HD
ENDBRANCH   5   7
ENDBRANCH   2   5
BRANCH   1  10
HETATM   10  C3  UNL     1      -3.512  -8.090  27.209  1.00  0.00     0.038 A 
HETATM   11  N1  UNL     1      -4.584  -7.511  27.756  1.00  0.00    -0.350 N 
HETATM   12  C16 UNL     1      -4.212  -6.561  28.652  1.00  0.00     0.016 A 
HETATM   13  C8  UNL     1      -2.843  -6.535  28.677  1.00  0.00    -0.016 A 
HETATM   14  C17 UNL     1      -5.133  -5.699  29.462  1.00  0.00     0.069 C 
HETATM   15  C7  UNL     1      -2.397  -7.473  27.791  1.00  0.00     0.040 A 
BRANCH  11  16
HETATM   16  C2  UNL     1      -5.973  -7.847  27.521  1.00  0.00     0.124 C 
HETATM   17  C1  UNL     1      -6.449  -7.142  26.235  1.00  0.00     0.027 C 
ENDBRANCH  11  16
BRANCH  13  18
HETATM   18  C9  UNL     1      -1.957  -5.649  29.511  1.00  0.00     0.162 C 
BRANCH  18  19
HETATM   19  N5  UNL     1      -0.891  -6.437  30.029  1.00  0.00    -0.370 N 
ATOM     20  H5  UNL     1      -0.223  -6.794  29.346  1.00  0.00     0.161 HD
BRANCH  19  21
HETATM   21  C10 UNL     1      -0.672  -6.750  31.247  1.00  0.00     0.141 A 
HETATM   22  N6  UNL     1      -1.648  -7.155  32.075  1.00  0.00    -0.176 N 
HETATM   23  C11 UNL     1      -1.423  -7.483  33.352  1.00  0.00     0.678 A 
ATOM     24  H6  UNL     1      -2.600  -7.214  31.715  1.00  0.00     0.186 HD
HETATM   25  N8  UNL     1      -0.163  -7.405  33.822  1.00  0.00    -0.180 N 
HETATM   26  C12 UNL     1       0.840  -7.006  33.025  1.00  0.00     0.154 A 
ATOM     27  H8  UNL     1       0.030  -7.653  34.792  1.00  0.00     0.185 HD
HETATM   28  C13 UNL     1       2.198  -6.910  33.494  1.00  0.00     0.120 C 
HETATM   29  C14 UNL     1       0.635  -6.659  31.700  1.00  0.00     0.126 A 
HETATM   30  N9  UNL     1       3.284  -6.818  33.877  1.00  0.00    -0.190 NA
HETATM   31  C15 UNL     1       1.701  -6.229  30.835  1.00  0.00     0.106 C 
HETATM   32  N10 UNL     1       2.552  -5.869  30.125  1.00  0.00    -0.191 NA
BRANCH  23  33
HETATM   33  N7  UNL     1      -2.386  -7.871  34.133  1.00  0.00    -0.234 N 
ATOM     34  H72 UNL     1      -3.196  -7.270  34.282  1.00  0.00     0.174 HD
ATOM     35  H71 UNL     1      -2.356  -8.772  34.610  1.00  0.00     0.174 HD
ENDBRANCH  23  33
ENDBRANCH  19  21
ENDBRANCH  18  19
ENDBRANCH  13  18
ENDBRANCH   1  10
TORSDOF 8
ENDMDL
MODEL 2
REMARK VINA RESULT: -7.725518154      1.906      7.636
REMARK  8 active torsions:
REMARK  status: ('A' for Active; 'I' for Inactive)
REMARK    1  A    between atoms: C2_2  and  N1_3 
REMARK    2  A    between atoms: C3_4  and  C4_5 
REMARK    3  A    between atoms: C5_6  and  N3_9 
REMARK    4  A    between atoms: N3_9  and  N4_11 
REMARK    5  A    between atoms: C8_15  and  C9_16 
REMARK    6  A    between atoms: C9_16  and  N5_17 
REMARK    7  A    between atoms: N5_17  and  C10_19 
REMARK    8  A    between atoms: C11_22  and  N7_23 
ROOT
HETATM    1  C4  UNL     1       1.391  -6.640  34.148  1.00  0.00     0.072 C 
HETATM    2  C5  UNL     1       2.450  -7.402  34.075  1.00  0.00     0.130 C 
HETATM    3  C6  UNL     1       2.701  -8.285  32.985  1.00  0.00     0.119 C 
HETATM    4  N2  UNL     1       2.928  -9.012  32.092  1.00  0.00    -0.190 NA
ENDROOT
BRANCH   2   5
HETATM    5  N3  UNL     1       3.388  -7.344  35.132  1.00  0.00    -0.297 N 
ATOM      6  H3  UNL     1       3.731  -6.437  35.445  1.00  0.00     0.187 HD
BRANCH   5   7
HETATM    7  N4  UNL     1       3.852  -8.491  35.751  1.00  0.00    -0.344 N 
ATOM      8  H42 UNL     1       3.559  -8.674  36.710  1.00  0.00     0.176 HD
ATOM      9  H41 UNL     1       4.471  -9.143  35.270  1.00  0.00     0.176 HD
ENDBRANCH   5   7
ENDBRANCH   2   5
BRANCH   1  10
HETATM   10  C3  UNL     1       0.306  -6.559  33.163  1.00  0.00     0.038 A 
HETATM   11  N1  UNL     1       0.161  -5.818  32.062  1.00  0.00    -0.350 N 
HETATM   12  C16 UNL     1      -1.053  -6.034  31.493  1.00  0.00     0.016 A 
HETATM   13  C8  UNL     1      -1.708  -6.955  32.266  1.00  0.00    -0.016 A 
HETATM   14  C17 UNL     1      -1.577  -5.382  30.249  1.00  0.00     0.069 C 
HETATM   15  C7  UNL     1      -0.882  -7.289  33.300  1.00  0.00     0.040 A 
BRANCH  11  16
HETATM   16  C2  UNL     1       1.145  -4.937  31.466  1.00  0.00     0.124 C 
HETATM   17  C1  UNL     1       1.994  -5.739  30.460  1.00  0.00     0.027 C 
ENDBRANCH  11  16
BRANCH  13  18
HETATM   18  C9  UNL     1      -3.087  -7.520  32.050  1.00  0.00     0.162 C 
BRANCH  18  19
HETATM   19  N5  UNL     1      -3.248  -7.798  30.663  1.00  0.00    -0.370 N 
ATOM     20  H5  UNL     1      -3.164  -7.002  30.032  1.00  0.00     0.161 HD
BRANCH  19  21
HETATM   21  C10 UNL     1      -3.486  -8.927  30.116  1.00  0.00     0.141 A 
HETATM   22  N6  UNL     1      -3.745 -10.034  30.829  1.00  0.00    -0.176 N 
HETATM   23  C11 UNL     1      -3.995 -11.219  30.260  1.00  0.00     0.678 A 
ATOM     24  H6  UNL     1      -3.752  -9.970  31.847  1.00  0.00     0.186 HD
HETATM   25  N8  UNL     1      -3.987 -11.299  28.916  1.00  0.00    -0.180 N 
HETATM   26  C12 UNL     1      -3.732 -10.214  28.168  1.00  0.00     0.154 A 
ATOM     27  H8  UNL     1      -4.176 -12.193  28.462  1.00  0.00     0.185 HD
HETATM   28  C13 UNL     1      -3.714 -10.263  26.729  1.00  0.00     0.120 C 
HETATM   29  C14 UNL     1      -3.470  -8.976  28.731  1.00  0.00     0.126 A 
HETATM   30  N9  UNL     1      -3.684 -10.308  25.575  1.00  0.00    -0.190 NA
HETATM   31  C15 UNL     1      -3.196  -7.805  27.942  1.00  0.00     0.106 C 
HETATM   32  N10 UNL     1      -2.962  -6.850  27.316  1.00  0.00    -0.191 NA
BRANCH  23  33
HETATM   33  N7  UNL     1      -4.242 -12.277  30.973  1.00  0.00    -0.234 N 
ATOM     34  H72 UNL     1      -5.144 -12.379  31.440  1.00  0.00     0.174 HD
ATOM     35  H71 UNL     1      -3.552 -13.020  31.082  1.00  0.00     0.174 HD
ENDBRANCH  23  33
ENDBRANCH  19  21
ENDBRANCH  18  19
ENDBRANCH  13  18
ENDBRANCH   1  10
TORSDOF 8
ENDMDL
MODEL 3
REMARK VINA RESULT: -7.588720353      2.074      3.915
REMARK  8 active torsions:
REMARK  status: ('A' for Active; 'I' for Inactive)
REMARK    1  A    between atoms: C2_2  and  N1_3 
REMARK    2  A    between atoms: C3_4  and  C4_5 
REMARK    3  A    between atoms: C5_6  and  N3_9 
REMARK    4  A    between atoms: N3_9  and  N4_11 
REMARK    5  A    between atoms: C8_15  and  C9_16 
REMARK    6  A    between atoms: C9_16  and  N5_17 
REMARK    7  A    between atoms: N5_17  and  C10_19 
REMARK    8  A    between atoms: C11_22  and  N7_23 
ROOT
HETATM    1  C4  UNL     1      -5.226  -7.043  29.161  1.00  0.00     0.072 C 
HETATM    2  C5  UNL     1      -4.649  -6.795  28.015  1.00  0.00     0.130 C 
HETATM    3  C6  UNL     1      -3.322  -7.213  27.705  1.00  0.00     0.119 C 
HETATM    4  N2  UNL     1      -2.234  -7.557  27.430  1.00  0.00    -0.190 NA
ENDROOT
BRANCH   2   5
HETATM    5  N3  UNL     1      -5.379  -6.076  27.040  1.00  0.00    -0.297 N 
ATOM      6  H3  UNL     1      -6.060  -5.380  27.341  1.00  0.00     0.187 HD
BRANCH   5   7
HETATM    7  N4  UNL     1      -5.190  -6.296  25.688  1.00  0.00    -0.344 N 
ATOM      8  H42 UNL     1      -4.235  -6.312  25.331  1.00  0.00     0.176 HD
ATOM      9  H41 UNL     1      -5.977  -6.440  25.056  1.00  0.00     0.176 HD
ENDBRANCH   5   7
ENDBRANCH   2   5
BRANCH   1  10
HETATM   10  C3  UNL     1      -4.638  -7.764  30.295  1.00  0.00     0.038 A 
HETATM   11  N1  UNL     1      -4.594  -9.064  30.594  1.00  0.00    -0.350 N 
HETATM   12  C16 UNL     1      -3.994  -9.263  31.795  1.00  0.00     0.016 A 
HETATM   13  C8  UNL     1      -3.639  -8.033  32.283  1.00  0.00    -0.016 A 
HETATM   14  C17 UNL     1      -3.766 -10.584  32.465  1.00  0.00     0.069 C 
HETATM   15  C7  UNL     1      -4.029  -7.098  31.368  1.00  0.00     0.040 A 
BRANCH  11  16
HETATM   16  C2  UNL     1      -5.045 -10.166  29.767  1.00  0.00     0.124 C 
HETATM   17  C1  UNL     1      -3.905 -10.578  28.814  1.00  0.00     0.027 C 
ENDBRANCH  11  16
BRANCH  13  18
HETATM   18  C9  UNL     1      -2.947  -7.727  33.584  1.00  0.00     0.162 C 
BRANCH  18  19
HETATM   19  N5  UNL     1      -1.930  -6.761  33.337  1.00  0.00    -0.370 N 
ATOM     20  H5  UNL     1      -2.243  -5.795  33.236  1.00  0.00     0.161 HD
BRANCH  19  21
HETATM   21  C10 UNL     1      -0.674  -6.960  33.227  1.00  0.00     0.141 A 
HETATM   22  N6  UNL     1       0.016  -7.717  34.094  1.00  0.00    -0.176 N 
HETATM   23  C11 UNL     1       1.332  -7.928  33.983  1.00  0.00     0.678 A 
ATOM     24  H6  UNL     1      -0.484  -8.150  34.871  1.00  0.00     0.186 HD
HETATM   25  N8  UNL     1       1.988  -7.356  32.955  1.00  0.00    -0.180 N 
HETATM   26  C12 UNL     1       1.334  -6.592  32.066  1.00  0.00     0.154 A 
ATOM     27  H8  UNL     1       2.992  -7.506  32.851  1.00  0.00     0.185 HD
HETATM   28  C13 UNL     1       2.003  -5.965  30.956  1.00  0.00     0.120 C 
HETATM   29  C14 UNL     1      -0.028  -6.358  32.158  1.00  0.00     0.126 A 
HETATM   30  N9  UNL     1       2.545  -5.450  30.076  1.00  0.00    -0.190 NA
HETATM   31  C15 UNL     1      -0.742  -5.542  31.213  1.00  0.00     0.106 C 
HETATM   32  N10 UNL     1      -1.332  -4.874  30.461  1.00  0.00    -0.191 NA
BRANCH  23  33
HETATM   33  N7  UNL     1       1.977  -8.665  34.837  1.00  0.00    -0.234 N 
ATOM     34  H72 UNL     1       2.139  -9.652  34.639  1.00  0.00     0.174 HD
ATOM     35  H71 UNL     1       2.332  -8.280  35.712  1.00  0.00     0.174 HD
ENDBRANCH  23  33
ENDBRANCH  19  21
ENDBRANCH  18  19
ENDBRANCH  13  18
ENDBRANCH   1  10
TORSDOF 8
ENDMDL
MODEL 4
REMARK VINA RESULT: -7.585610998      2.125      7.717
REMARK  8 active torsions:
REMARK  status: ('A' for Active; 'I' for Inactive)
REMARK    1  A    between atoms: C2_2  and  N1_3 
REMARK    2  A    between atoms: C3_4  and  C4_5 
REMARK    3  A    between atoms: C5_6  and  N3_9 
REMARK    4  A    between atoms: N3_9  and  N4_11 
REMARK    5  A    between atoms: C8_15  and  C9_16 
REMARK    6  A    between atoms: C9_16  and  N5_17 
REMARK    7  A    between atoms: N5_17  and  C10_19 
REMARK    8  A    between atoms: C11_22  and  N7_23 
ROOT
HETATM    1  C4  UNL     1       1.343  -7.246  34.088  1.00  0.00     0.072 C 
HETATM    2  C5  UNL     1       2.289  -8.109  33.831  1.00  0.00     0.130 C 
HETATM    3  C6  UNL     1       2.429  -8.761  32.571  1.00  0.00     0.119 C 
HETATM    4  N2  UNL     1       2.563  -9.301  31.538  1.00  0.00    -0.190 NA
ENDROOT
BRANCH   2   5
HETATM    5  N3  UNL     1       3.218  -8.407  34.856  1.00  0.00    -0.297 N 
ATOM      6  H3  UNL     1       3.488  -9.377  35.015  1.00  0.00     0.187 HD
BRANCH   5   7
HETATM    7  N4  UNL     1       3.767  -7.414  35.645  1.00  0.00    -0.344 N 
ATOM      8  H42 UNL     1       3.393  -6.469  35.562  1.00  0.00     0.176 HD
ATOM      9  H41 UNL     1       4.526  -7.610  36.298  1.00  0.00     0.176 HD
ENDBRANCH   5   7
ENDBRANCH   2   5
BRANCH   1  10
HETATM   10  C3  UNL     1       0.287  -6.811  33.166  1.00  0.00     0.038 A 
HETATM   11  N1  UNL     1       0.284  -5.905  32.185  1.00  0.00    -0.350 N 
HETATM   12  C16 UNL     1      -0.954  -5.790  31.639  1.00  0.00     0.016 A 
HETATM   13  C8  UNL     1      -1.775  -6.664  32.301  1.00  0.00    -0.016 A 
HETATM   14  C17 UNL     1      -1.347  -4.875  30.519  1.00  0.00     0.069 C 
HETATM   15  C7  UNL     1      -1.023  -7.301  33.246  1.00  0.00     0.040 A 
BRANCH  11  16
HETATM   16  C2  UNL     1       1.420  -5.160  31.681  1.00  0.00     0.124 C 
HETATM   17  C1  UNL     1       1.973  -5.873  30.430  1.00  0.00     0.027 C 
ENDBRANCH  11  16
BRANCH  13  18
HETATM   18  C9  UNL     1      -3.241  -6.906  32.062  1.00  0.00     0.162 C 
BRANCH  18  19
HETATM   19  N5  UNL     1      -3.396  -8.193  31.473  1.00  0.00    -0.370 N 
ATOM     20  H5  UNL     1      -3.534  -8.970  32.119  1.00  0.00     0.161 HD
BRANCH  19  21
HETATM   21  C10 UNL     1      -3.381  -8.491  30.231  1.00  0.00     0.141 A 
HETATM   22  N6  UNL     1      -3.029  -7.609  29.282  1.00  0.00    -0.176 N 
HETATM   23  C11 UNL     1      -3.013  -7.916  27.981  1.00  0.00     0.678 A 
ATOM     24  H6  UNL     1      -2.762  -6.667  29.565  1.00  0.00     0.186 HD
HETATM   25  N8  UNL     1      -3.364  -9.163  27.612  1.00  0.00    -0.180 N 
HETATM   26  C12 UNL     1      -3.722 -10.073  28.531  1.00  0.00     0.154 A 
ATOM     27  H8  UNL     1      -3.357  -9.418  26.624  1.00  0.00     0.185 HD
HETATM   28  C13 UNL     1      -4.104 -11.414  28.173  1.00  0.00     0.120 C 
HETATM   29  C14 UNL     1      -3.748  -9.781  29.885  1.00  0.00     0.126 A 
HETATM   30  N9  UNL     1      -4.426 -12.485  27.881  1.00  0.00    -0.190 NA
HETATM   31  C15 UNL     1      -4.129 -10.746  30.880  1.00  0.00     0.106 C 
HETATM   32  N10 UNL     1      -4.447 -11.514  31.698  1.00  0.00    -0.191 NA
BRANCH  23  33
HETATM   33  N7  UNL     1      -2.669  -7.045  27.080  1.00  0.00    -0.234 N 
ATOM     34  H72 UNL     1      -1.713  -6.688  27.055  1.00  0.00     0.174 HD
ATOM     35  H71 UNL     1      -3.334  -6.701  26.388  1.00  0.00     0.174 HD
ENDBRANCH  23  33
ENDBRANCH  19  21
ENDBRANCH  18  19
ENDBRANCH  13  18
ENDBRANCH   1  10
TORSDOF 8
ENDMDL
MODEL 5
REMARK VINA RESULT: -7.557130293      1.723      3.005
REMARK  8 active torsions:
REMARK  status: ('A' for Active; 'I' for Inactive)
REMARK    1  A    between atoms: C2_2  and  N1_3 
REMARK    2  A    between atoms: C3_4  and  C4_5 
REMARK    3  A    between atoms: C5_6  and  N3_9 
REMARK    4  A    between atoms: N3_9  and  N4_11 
REMARK    5  A    between atoms: C8_15  and  C9_16 
REMARK    6  A    between atoms: C9_16  and  N5_17 
REMARK    7  A    between atoms: N5_17  and  C10_19 
REMARK    8  A    between atoms: C11_22  and  N7_23 
ROOT
HETATM    1  C4  UNL     1      -3.616  -7.433  28.112  1.00  0.00     0.072 C 
HETATM    2  C5  UNL     1      -3.496  -8.530  27.413  1.00  0.00     0.130 C 
HETATM    3  C6  UNL     1      -3.659  -9.831  27.970  1.00  0.00     0.119 C 
HETATM    4  N2  UNL     1      -3.797 -10.911  28.411  1.00  0.00    -0.190 NA
ENDROOT
BRANCH   2   5
HETATM    5  N3  UNL     1      -3.189  -8.415  26.036  1.00  0.00    -0.297 N 
ATOM      6  H3  UNL     1      -2.289  -8.751  25.697  1.00  0.00     0.187 HD
BRANCH   5   7
HETATM    7  N4  UNL     1      -4.083  -7.857  25.141  1.00  0.00    -0.344 N 
ATOM      8  H42 UNL     1      -4.698  -7.114  25.473  1.00  0.00     0.176 HD
ATOM      9  H41 UNL     1      -4.133  -8.171  24.172  1.00  0.00     0.176 HD
ENDBRANCH   5   7
ENDBRANCH   2   5
BRANCH   1  10
HETATM   10  C3  UNL     1      -3.922  -7.342  29.544  1.00  0.00     0.038 A 
HETATM   11  N1  UNL     1      -4.960  -6.815  30.198  1.00  0.00    -0.350 N 
HETATM   12  C16 UNL     1      -4.780  -6.904  31.540  1.00  0.00     0.016 A 
HETATM   13  C8  UNL     1      -3.573  -7.517  31.751  1.00  0.00    -0.016 A 
HETATM   14  C17 UNL     1      -5.727  -6.419  32.596  1.00  0.00     0.069 C 
HETATM   15  C7  UNL     1      -3.032  -7.794  30.528  1.00  0.00     0.040 A 
BRANCH  11  16
HETATM   16  C2  UNL     1      -6.170  -6.268  29.618  1.00  0.00     0.124 C 
HETATM   17  C1  UNL     1      -5.953  -4.770  29.325  1.00  0.00     0.027 C 
ENDBRANCH  11  16
BRANCH  13  18
HETATM   18  C9  UNL     1      -2.927  -7.843  33.070  1.00  0.00     0.162 C 
BRANCH  18  19
HETATM   19  N5  UNL     1      -1.920  -6.871  33.332  1.00  0.00    -0.370 N 
ATOM     20  H5  UNL     1      -2.248  -5.954  33.634  1.00  0.00     0.161 HD
BRANCH  19  21
HETATM   21  C10 UNL     1      -0.654  -7.011  33.231  1.00  0.00     0.141 A 
HETATM   22  N6  UNL     1       0.054  -7.789  34.064  1.00  0.00    -0.176 N 
HETATM   23  C11 UNL     1       1.379  -7.938  33.963  1.00  0.00     0.678 A 
ATOM     24  H6  UNL     1      -0.439  -8.288  34.805  1.00  0.00     0.186 HD
HETATM   25  N8  UNL     1       2.025  -7.279  32.982  1.00  0.00    -0.180 N 
HETATM   26  C12 UNL     1       1.353  -6.491  32.129  1.00  0.00     0.154 A 
ATOM     27  H8  UNL     1       3.036  -7.380  32.887  1.00  0.00     0.185 HD
HETATM   28  C13 UNL     1       2.010  -5.771  31.070  1.00  0.00     0.120 C 
HETATM   29  C14 UNL     1      -0.019  -6.319  32.212  1.00  0.00     0.126 A 
HETATM   30  N9  UNL     1       2.543  -5.182  30.232  1.00  0.00    -0.190 NA
HETATM   31  C15 UNL     1      -0.753  -5.478  31.305  1.00  0.00     0.106 C 
HETATM   32  N10 UNL     1      -1.360  -4.791  30.584  1.00  0.00    -0.191 NA
BRANCH  23  33
HETATM   33  N7  UNL     1       2.042  -8.697  34.783  1.00  0.00    -0.234 N 
ATOM     34  H72 UNL     1       2.154  -8.421  35.758  1.00  0.00     0.174 HD
ATOM     35  H71 UNL     1       2.462  -9.575  34.476  1.00  0.00     0.174 HD
ENDBRANCH  23  33
ENDBRANCH  19  21
ENDBRANCH  18  19
ENDBRANCH  13  18
ENDBRANCH   1  10
TORSDOF 8
ENDMDL
