MODEL 1
REMARK VINA RESULT: -6.588240032      0.000      0.000
REMARK  3 active torsions:
REMARK  status: ('A' for Active; 'I' for Inactive)
REMARK    1  A    between atoms: O1_2  and  N1_3 
REMARK    2  A    between atoms: C2_5  and  C3_7 
REMARK    3  A    between atoms: C5_9  and  N3_10 
ROOT
HETATM    1  C3  UNL     1      -2.428  -6.700  30.028  1.00  0.00     0.038 A 
HETATM    2  C4  UNL     1      -2.902  -7.486  31.088  1.00  0.00     0.053 A 
HETATM    3  C5  UNL     1      -3.647  -8.620  30.867  1.00  0.00     0.104 A 
HETATM    4  C6  UNL     1      -3.908  -8.951  29.544  1.00  0.00     0.055 A 
HETATM    5  C7  UNL     1      -3.447  -8.186  28.479  1.00  0.00     0.065 A 
HETATM    6  C8  UNL     1      -3.557  -8.282  27.112  1.00  0.00     0.272 A 
HETATM    7  O4  UNL     1      -4.164  -9.183  26.495  1.00  0.00    -0.266 OA
HETATM    8  N4  UNL     1      -2.911  -7.259  26.544  1.00  0.00    -0.265 N 
ATOM      9  H4  UNL     1      -2.827  -7.077  25.544  1.00  0.00     0.190 HD
HETATM   10  N5  UNL     1      -2.398  -6.521  27.526  1.00  0.00    -0.296 N 
ATOM     11  H5  UNL     1      -1.850  -5.671  27.386  1.00  0.00     0.187 HD
HETATM   12  C9  UNL     1      -2.698  -7.046  28.725  1.00  0.00     0.077 A 
ENDROOT
BRANCH   1  13
HETATM   13  C2  UNL     1      -1.653  -5.525  30.362  1.00  0.00     0.148 C 
HETATM   14  N1  UNL     1      -0.411  -5.587  30.534  1.00  0.00    -0.253 N 
ATOM     15  H1  UNL     1       0.009  -6.510  30.423  1.00  0.00     0.195 HD
HETATM   16  N2  UNL     1      -2.297  -4.269  30.502  1.00  0.00    -0.080 NA
BRANCH  14  17
HETATM   17  O1  UNL     1       0.438  -4.585  30.846  1.00  0.00    -0.284 OA
HETATM   18  C1  UNL     1       1.830  -4.769  30.864  1.00  0.00     0.237 C 
ENDBRANCH  14  17
ENDBRANCH   1  13
BRANCH   3  19
HETATM   19  N3  UNL     1      -4.140  -9.433  31.922  1.00  0.00    -0.116 N 
HETATM   20  O2  UNL     1      -5.028  -9.012  32.669  1.00  0.00    -0.532 OA
HETATM   21  O3  UNL     1      -3.634 -10.684  32.112  1.00  0.00    -0.532 OA
ENDBRANCH   3  19
TORSDOF 3
ENDMDL
MODEL 2
REMARK VINA RESULT: -6.578015019      2.205      4.454
REMARK  3 active torsions:
REMARK  status: ('A' for Active; 'I' for Inactive)
REMARK    1  A    between atoms: O1_2  and  N1_3 
REMARK    2  A    between atoms: C2_5  and  C3_7 
REMARK    3  A    between atoms: C5_9  and  N3_10 
ROOT
HETATM    1  C3  UNL     1      -1.042  -5.914  31.258  1.00  0.00     0.038 A 
HETATM    2  C4  UNL     1      -1.516  -5.930  29.938  1.00  0.00     0.053 A 
HETATM    3  C5  UNL     1      -2.758  -6.428  29.625  1.00  0.00     0.104 A 
HETATM    4  C6  UNL     1      -3.522  -6.914  30.678  1.00  0.00     0.055 A 
HETATM    5  C7  UNL     1      -3.071  -6.907  31.993  1.00  0.00     0.065 A 
HETATM    6  C8  UNL     1      -3.606  -7.314  33.192  1.00  0.00     0.272 A 
HETATM    7  O4  UNL     1      -4.734  -7.829  33.345  1.00  0.00    -0.266 OA
HETATM    8  N4  UNL     1      -2.729  -7.072  34.171  1.00  0.00    -0.265 N 
ATOM      9  H4  UNL     1      -2.860  -7.272  35.163  1.00  0.00     0.190 HD
HETATM   10  N5  UNL     1      -1.654  -6.521  33.613  1.00  0.00    -0.296 N 
ATOM     11  H5  UNL     1      -0.820  -6.231  34.125  1.00  0.00     0.187 HD
HETATM   12  C9  UNL     1      -1.815  -6.400  32.285  1.00  0.00     0.077 A 
ENDROOT
BRANCH   1  13
HETATM   13  C2  UNL     1       0.279  -5.369  31.486  1.00  0.00     0.148 C 
HETATM   14  N1  UNL     1       1.302  -6.094  31.444  1.00  0.00    -0.253 N 
ATOM     15  H1  UNL     1       1.142  -7.081  31.242  1.00  0.00     0.195 HD
HETATM   16  N2  UNL     1       0.436  -3.986  31.763  1.00  0.00    -0.080 NA
BRANCH  14  17
HETATM   17  O1  UNL     1       2.589  -5.732  31.634  1.00  0.00    -0.284 OA
HETATM   18  C1  UNL     1       3.304  -6.104  32.784  1.00  0.00     0.237 C 
ENDBRANCH  14  17
ENDBRANCH   1  13
BRANCH   3  19
HETATM   19  N3  UNL     1      -3.263  -6.458  28.298  1.00  0.00    -0.116 N 
HETATM   20  O2  UNL     1      -4.304  -5.859  28.015  1.00  0.00    -0.532 OA
HETATM   21  O3  UNL     1      -2.595  -7.147  27.330  1.00  0.00    -0.532 OA
ENDBRANCH   3  19
TORSDOF 3
ENDMDL
MODEL 3
REMARK VINA RESULT: -6.498927266      1.630      1.753
REMARK  3 active torsions:
REMARK  status: ('A' for Active; 'I' for Inactive)
REMARK    1  A    between atoms: O1_2  and  N1_3 
REMARK    2  A    between atoms: C2_5  and  C3_7 
REMARK    3  A    between atoms: C5_9  and  N3_10 
ROOT
HETATM    1  C3  UNL     1      -2.345  -6.935  31.314  1.00  0.00     0.038 A 
HETATM    2  C4  UNL     1      -2.974  -8.036  31.914  1.00  0.00     0.053 A 
HETATM    3  C5  UNL     1      -3.781  -8.885  31.195  1.00  0.00     0.104 A 
HETATM    4  C6  UNL     1      -3.944  -8.601  29.845  1.00  0.00     0.055 A 
HETATM    5  C7  UNL     1      -3.329  -7.516  29.231  1.00  0.00     0.065 A 
HETATM    6  C8  UNL     1      -3.320  -7.019  27.950  1.00  0.00     0.272 A 
HETATM    7  O4  UNL     1      -3.935  -7.507  26.978  1.00  0.00    -0.266 OA
HETATM    8  N4  UNL     1      -2.547  -5.929  27.904  1.00  0.00    -0.265 N 
ATOM      9  H4  UNL     1      -2.358  -5.357  27.082  1.00  0.00     0.190 HD
HETATM   10  N5  UNL     1      -2.071  -5.730  29.131  1.00  0.00    -0.296 N 
ATOM     11  H5  UNL     1      -1.449  -4.965  29.393  1.00  0.00     0.187 HD
HETATM   12  C9  UNL     1      -2.519  -6.673  29.976  1.00  0.00     0.077 A 
ENDROOT
BRANCH   1  13
HETATM   13  C2  UNL     1      -1.515  -6.100  32.155  1.00  0.00     0.148 C 
HETATM   14  N1  UNL     1      -0.762  -6.594  33.029  1.00  0.00    -0.253 N 
ATOM     15  H1  UNL     1      -0.774  -7.611  33.105  1.00  0.00     0.195 HD
HETATM   16  N2  UNL     1      -1.543  -4.690  31.999  1.00  0.00    -0.080 NA
BRANCH  14  17
HETATM   17  O1  UNL     1       0.063  -5.948  33.880  1.00  0.00    -0.284 OA
HETATM   18  C1  UNL     1       1.454  -5.917  33.688  1.00  0.00     0.237 C 
ENDBRANCH  14  17
ENDBRANCH   1  13
BRANCH   3  19
HETATM   19  N3  UNL     1      -4.429 -10.005  31.777  1.00  0.00    -0.116 N 
HETATM   20  O2  UNL     1      -5.645  -9.979  31.990  1.00  0.00    -0.532 OA
HETATM   21  O3  UNL     1      -3.711 -11.117  32.103  1.00  0.00    -0.532 OA
ENDBRANCH   3  19
TORSDOF 3
ENDMDL
MODEL 4
REMARK VINA RESULT: -6.488350474      2.542      4.656
REMARK  3 active torsions:
REMARK  status: ('A' for Active; 'I' for Inactive)
REMARK    1  A    between atoms: O1_2  and  N1_3 
REMARK    2  A    between atoms: C2_5  and  C3_7 
REMARK    3  A    between atoms: C5_9  and  N3_10 
ROOT
HETATM    1  C3  UNL     1      -1.159  -5.812  31.234  1.00  0.00     0.038 A 
HETATM    2  C4  UNL     1      -1.816  -5.677  30.002  1.00  0.00     0.053 A 
HETATM    3  C5  UNL     1      -3.152  -5.968  29.863  1.00  0.00     0.104 A 
HETATM    4  C6  UNL     1      -3.822  -6.401  31.000  1.00  0.00     0.055 A 
HETATM    5  C7  UNL     1      -3.189  -6.542  32.230  1.00  0.00     0.065 A 
HETATM    6  C8  UNL     1      -3.602  -6.940  33.480  1.00  0.00     0.272 A 
HETATM    7  O4  UNL     1      -4.761  -7.292  33.782  1.00  0.00    -0.266 OA
HETATM    8  N4  UNL     1      -2.566  -6.890  34.323  1.00  0.00    -0.265 N 
ATOM      9  H4  UNL     1      -2.582  -7.129  35.314  1.00  0.00     0.190 HD
HETATM   10  N5  UNL     1      -1.511  -6.469  33.630  1.00  0.00    -0.296 N 
ATOM     11  H5  UNL     1      -0.577  -6.336  34.020  1.00  0.00     0.187 HD
HETATM   12  C9  UNL     1      -1.841  -6.243  32.348  1.00  0.00     0.077 A 
ENDROOT
BRANCH   1  13
HETATM   13  C2  UNL     1       0.249  -5.482  31.280  1.00  0.00     0.148 C 
HETATM   14  N1  UNL     1       1.097  -6.139  30.629  1.00  0.00    -0.253 N 
ATOM     15  H1  UNL     1       0.731  -6.913  30.074  1.00  0.00     0.195 HD
HETATM   16  N2  UNL     1       0.695  -4.393  32.073  1.00  0.00    -0.080 NA
BRANCH  14  17
HETATM   17  O1  UNL     1       2.432  -5.952  30.573  1.00  0.00    -0.284 OA
HETATM   18  C1  UNL     1       3.321  -6.689  31.373  1.00  0.00     0.237 C 
ENDBRANCH  14  17
ENDBRANCH   1  13
BRANCH   3  19
HETATM   19  N3  UNL     1      -3.841  -5.841  28.628  1.00  0.00    -0.116 N 
HETATM   20  O2  UNL     1      -3.281  -6.139  27.570  1.00  0.00    -0.532 OA
HETATM   21  O3  UNL     1      -5.127  -5.390  28.608  1.00  0.00    -0.532 OA
ENDBRANCH   3  19
TORSDOF 3
ENDMDL
MODEL 5
REMARK VINA RESULT: -6.474370667      2.113      4.914
REMARK  3 active torsions:
REMARK  status: ('A' for Active; 'I' for Inactive)
REMARK    1  A    between atoms: O1_2  and  N1_3 
REMARK    2  A    between atoms: C2_5  and  C3_7 
REMARK    3  A    between atoms: C5_9  and  N3_10 
ROOT
HETATM    1  C3  UNL     1      -3.572  -9.144  27.778  1.00  0.00     0.038 A 
HETATM    2  C4  UNL     1      -3.973  -9.988  28.825  1.00  0.00     0.053 A 
HETATM    3  C5  UNL     1      -4.003  -9.553  30.128  1.00  0.00     0.104 A 
HETATM    4  C6  UNL     1      -3.618  -8.239  30.360  1.00  0.00     0.055 A 
HETATM    5  C7  UNL     1      -3.217  -7.388  29.337  1.00  0.00     0.065 A 
HETATM    6  C8  UNL     1      -2.797  -6.079  29.289  1.00  0.00     0.272 A 
HETATM    7  O4  UNL     1      -2.683  -5.317  30.273  1.00  0.00    -0.266 OA
HETATM    8  N4  UNL     1      -2.531  -5.748  28.022  1.00  0.00    -0.265 N 
ATOM      9  H4  UNL     1      -2.202  -4.841  27.691  1.00  0.00     0.190 HD
HETATM   10  N5  UNL     1      -2.773  -6.821  27.272  1.00  0.00    -0.296 N 
ATOM     11  H5  UNL     1      -2.655  -6.858  26.260  1.00  0.00     0.187 HD
HETATM   12  C9  UNL     1      -3.195  -7.847  28.030  1.00  0.00     0.077 A 
ENDROOT
BRANCH   1  13
HETATM   13  C2  UNL     1      -3.574  -9.694  26.439  1.00  0.00     0.148 C 
HETATM   14  N1  UNL     1      -3.341 -10.909  26.230  1.00  0.00    -0.253 N 
ATOM     15  H1  UNL     1      -3.152 -11.476  27.057  1.00  0.00     0.195 HD
HETATM   16  N2  UNL     1      -3.844  -8.852  25.329  1.00  0.00    -0.080 NA
BRANCH  14  17
HETATM   17  O1  UNL     1      -3.309 -11.560  25.049  1.00  0.00    -0.284 OA
HETATM   18  C1  UNL     1      -2.099 -11.899  24.419  1.00  0.00     0.237 C 
ENDBRANCH  14  17
ENDBRANCH   1  13
BRANCH   3  19
HETATM   19  N3  UNL     1      -4.404 -10.386  31.206  1.00  0.00    -0.116 N 
HETATM   20  O2  UNL     1      -3.608 -10.663  32.108  1.00  0.00    -0.532 OA
HETATM   21  O3  UNL     1      -5.673 -10.881  31.250  1.00  0.00    -0.532 OA
ENDBRANCH   3  19
TORSDOF 3
ENDMDL
