MODEL 1
REMARK VINA RESULT: -6.372132356      0.000      0.000
REMARK  3 active torsions:
REMARK  status: ('A' for Active; 'I' for Inactive)
REMARK    1  A    between atoms: C1_2  and  C2_4 
REMARK    2  A    between atoms: C4_8  and  C5_9 
REMARK    3  A    between atoms: N3_10  and  N4_12 
ROOT
HETATM    1  C5  UNL     1      -1.678  -5.173  30.796  1.00  0.00     0.156 C 
HETATM    2  N3  UNL     1      -2.083  -5.524  29.629  1.00  0.00    -0.298 N 
ATOM      3  H3  UNL     1      -1.385  -5.679  28.902  1.00  0.00     0.186 HD
ENDROOT
BRANCH   1   4
HETATM    4  C4  UNL     1      -0.240  -5.019  31.002  1.00  0.00     0.122 A 
HETATM    5  N2  UNL     1       0.562  -4.052  30.534  1.00  0.00    -0.349 N 
HETATM    6  C3  UNL     1       1.830  -4.237  30.928  1.00  0.00     0.124 A 
ATOM      7  H2  UNL     1       0.247  -3.276  29.952  1.00  0.00     0.167 HD
HETATM    8  C2  UNL     1       1.841  -5.383  31.690  1.00  0.00     0.115 A 
HETATM    9  N7  UNL     1       0.560  -5.829  31.711  1.00  0.00    -0.336 N 
ATOM     10  H7  UNL     1       0.247  -6.669  32.200  1.00  0.00     0.168 HD
BRANCH   8  11
HETATM   11  C1  UNL     1       2.995  -5.975  32.331  1.00  0.00     0.282 C 
HETATM   12  N1  UNL     1       3.280  -5.665  33.682  1.00  0.00    -0.056 NA
HETATM   13  O1  UNL     1       3.737  -6.759  31.692  1.00  0.00    -0.269 OA
ENDBRANCH   8  11
ENDBRANCH   1   4
BRANCH   2  14
HETATM   14  N4  UNL     1      -3.432  -5.704  29.306  1.00  0.00    -0.224 N 
HETATM   15  C6  UNL     1      -4.490  -5.134  29.915  1.00  0.00     0.226 A 
HETATM   16  N5  UNL     1      -5.609  -5.563  29.307  1.00  0.00    -0.292 N 
HETATM   17  N6  UNL     1      -5.298  -6.396  28.322  1.00  0.00    -0.274 N 
ATOM     18  H5  UNL     1      -6.557  -5.289  29.565  1.00  0.00     0.187 HD
HETATM   19  C7  UNL     1      -3.955  -6.473  28.333  1.00  0.00     0.213 A 
ATOM     20  H6  UNL     1      -5.940  -6.876  27.690  1.00  0.00     0.189 HD
HETATM   21  S1  UNL     1      -3.032  -7.372  27.316  1.00  0.00    -0.037 SA
ENDBRANCH   2  14
TORSDOF 3
ENDMDL
MODEL 2
REMARK VINA RESULT: -6.350321328      2.513      2.998
REMARK  3 active torsions:
REMARK  status: ('A' for Active; 'I' for Inactive)
REMARK    1  A    between atoms: C1_2  and  C2_4 
REMARK    2  A    between atoms: C4_8  and  C5_9 
REMARK    3  A    between atoms: N3_10  and  N4_12 
ROOT
HETATM    1  C5  UNL     1      -0.822  -5.766  32.761  1.00  0.00     0.156 C 
HETATM    2  N3  UNL     1      -1.736  -6.606  32.436  1.00  0.00    -0.298 N 
ATOM      3  H3  UNL     1      -1.512  -7.601  32.468  1.00  0.00     0.186 HD
ENDROOT
BRANCH   1   4
HETATM    4  C4  UNL     1       0.482  -6.294  33.157  1.00  0.00     0.122 A 
HETATM    5  N2  UNL     1       1.160  -7.312  32.610  1.00  0.00    -0.349 N 
HETATM    6  C3  UNL     1       2.327  -7.514  33.237  1.00  0.00     0.124 A 
ATOM      7  H2  UNL     1       0.829  -7.863  31.817  1.00  0.00     0.167 HD
HETATM    8  C2  UNL     1       2.402  -6.574  34.239  1.00  0.00     0.115 A 
HETATM    9  N7  UNL     1       1.257  -5.850  34.157  1.00  0.00    -0.336 N 
ATOM     10  H7  UNL     1       1.019  -5.072  34.773  1.00  0.00     0.168 HD
BRANCH   8  11
HETATM   11  C1  UNL     1       3.487  -6.408  35.180  1.00  0.00     0.282 C 
HETATM   12  N1  UNL     1       3.812  -7.463  36.067  1.00  0.00    -0.056 NA
HETATM   13  O1  UNL     1       4.137  -5.335  35.210  1.00  0.00    -0.269 OA
ENDBRANCH   8  11
ENDBRANCH   1   4
BRANCH   2  14
HETATM   14  N4  UNL     1      -3.023  -6.227  32.040  1.00  0.00    -0.224 N 
HETATM   15  C6  UNL     1      -4.055  -5.915  32.848  1.00  0.00     0.226 A 
HETATM   16  N5  UNL     1      -5.115  -5.606  32.080  1.00  0.00    -0.292 N 
HETATM   17  N6  UNL     1      -4.790  -5.712  30.798  1.00  0.00    -0.274 N 
ATOM     18  H5  UNL     1      -6.032  -5.330  32.431  1.00  0.00     0.187 HD
HETATM   19  C7  UNL     1      -3.500  -6.095  30.789  1.00  0.00     0.213 A 
ATOM     20  H6  UNL     1      -5.389  -5.540  29.991  1.00  0.00     0.189 HD
HETATM   21  S1  UNL     1      -2.587  -6.376  29.454  1.00  0.00    -0.037 SA
ENDBRANCH   2  14
TORSDOF 3
ENDMDL
MODEL 3
REMARK VINA RESULT: -6.226319224      2.767      3.328
REMARK  3 active torsions:
REMARK  status: ('A' for Active; 'I' for Inactive)
REMARK    1  A    between atoms: C1_2  and  C2_4 
REMARK    2  A    between atoms: C4_8  and  C5_9 
REMARK    3  A    between atoms: N3_10  and  N4_12 
ROOT
HETATM    1  C5  UNL     1      -0.510  -5.695  32.477  1.00  0.00     0.156 C 
HETATM    2  N3  UNL     1      -1.432  -6.499  32.091  1.00  0.00    -0.298 N 
ATOM      3  H3  UNL     1      -1.269  -7.502  32.181  1.00  0.00     0.186 HD
ENDROOT
BRANCH   1   4
HETATM    4  C4  UNL     1       0.718  -6.274  33.020  1.00  0.00     0.122 A 
HETATM    5  N2  UNL     1       1.350  -7.387  32.624  1.00  0.00    -0.349 N 
HETATM    6  C3  UNL     1       2.450  -7.610  33.357  1.00  0.00     0.124 A 
ATOM      7  H2  UNL     1       1.034  -7.988  31.862  1.00  0.00     0.167 HD
HETATM    8  C2  UNL     1       2.527  -6.584  34.271  1.00  0.00     0.115 A 
HETATM    9  N7  UNL     1       1.452  -5.791  34.033  1.00  0.00    -0.336 N 
ATOM     10  H7  UNL     1       1.232  -4.942  34.554  1.00  0.00     0.168 HD
BRANCH   8  11
HETATM   11  C1  UNL     1       3.553  -6.405  35.275  1.00  0.00     0.282 C 
HETATM   12  N1  UNL     1       3.857  -7.466  36.162  1.00  0.00    -0.056 NA
HETATM   13  O1  UNL     1       4.168  -5.315  35.360  1.00  0.00    -0.269 OA
ENDBRANCH   8  11
ENDBRANCH   1   4
BRANCH   2  14
HETATM   14  N4  UNL     1      -2.651  -6.070  31.554  1.00  0.00    -0.224 N 
HETATM   15  C6  UNL     1      -2.834  -5.426  30.386  1.00  0.00     0.226 A 
HETATM   16  N5  UNL     1      -4.149  -5.191  30.233  1.00  0.00    -0.292 N 
HETATM   17  N6  UNL     1      -4.817  -5.668  31.276  1.00  0.00    -0.274 N 
ATOM     18  H5  UNL     1      -4.570  -4.717  29.435  1.00  0.00     0.187 HD
HETATM   19  C7  UNL     1      -3.881  -6.206  32.080  1.00  0.00     0.213 A 
ATOM     20  H6  UNL     1      -5.824  -5.634  31.435  1.00  0.00     0.189 HD
HETATM   21  S1  UNL     1      -4.158  -6.941  33.522  1.00  0.00    -0.037 SA
ENDBRANCH   2  14
TORSDOF 3
ENDMDL
MODEL 4
REMARK VINA RESULT: -6.166794045      1.387      1.650
REMARK  3 active torsions:
REMARK  status: ('A' for Active; 'I' for Inactive)
REMARK    1  A    between atoms: C1_2  and  C2_4 
REMARK    2  A    between atoms: C4_8  and  C5_9 
REMARK    3  A    between atoms: N3_10  and  N4_12 
ROOT
HETATM    1  C5  UNL     1      -1.623  -6.130  30.301  1.00  0.00     0.156 C 
HETATM    2  N3  UNL     1      -2.269  -5.421  29.450  1.00  0.00    -0.298 N 
ATOM      3  H3  UNL     1      -1.909  -4.496  29.217  1.00  0.00     0.186 HD
ENDROOT
BRANCH   1   4
HETATM    4  C4  UNL     1      -0.408  -5.561  30.883  1.00  0.00     0.122 A 
HETATM    5  N2  UNL     1       0.117  -4.347  30.669  1.00  0.00    -0.349 N 
HETATM    6  C3  UNL     1       1.242  -4.171  31.377  1.00  0.00     0.124 A 
ATOM      7  H2  UNL     1      -0.288  -3.646  30.047  1.00  0.00     0.167 HD
HETATM    8  C2  UNL     1       1.448  -5.334  32.082  1.00  0.00     0.115 A 
HETATM    9  N7  UNL     1       0.420  -6.157  31.753  1.00  0.00    -0.336 N 
ATOM     10  H7  UNL     1       0.294  -7.101  32.118  1.00  0.00     0.168 HD
BRANCH   8  11
HETATM   11  C1  UNL     1       2.544  -5.607  32.985  1.00  0.00     0.282 C 
HETATM   12  N1  UNL     1       2.361  -5.436  34.378  1.00  0.00    -0.056 NA
HETATM   13  O1  UNL     1       3.650  -5.993  32.536  1.00  0.00    -0.269 OA
ENDBRANCH   8  11
ENDBRANCH   1   4
BRANCH   2  14
HETATM   14  N4  UNL     1      -3.444  -5.853  28.824  1.00  0.00    -0.224 N 
HETATM   15  C6  UNL     1      -3.536  -6.519  27.657  1.00  0.00     0.226 A 
HETATM   16  N5  UNL     1      -4.836  -6.750  27.403  1.00  0.00    -0.292 N 
HETATM   17  N6  UNL     1      -5.583  -6.247  28.378  1.00  0.00    -0.274 N 
ATOM     18  H5  UNL     1      -5.195  -7.238  26.583  1.00  0.00     0.187 HD
HETATM   19  C7  UNL     1      -4.712  -5.698  29.245  1.00  0.00     0.213 A 
ATOM     20  H6  UNL     1      -6.600  -6.271  28.455  1.00  0.00     0.189 HD
HETATM   21  S1  UNL     1      -5.099  -4.932  30.644  1.00  0.00    -0.037 SA
ENDBRANCH   2  14
TORSDOF 3
ENDMDL
MODEL 5
REMARK VINA RESULT: -6.160702747      2.077      2.651
REMARK  3 active torsions:
REMARK  status: ('A' for Active; 'I' for Inactive)
REMARK    1  A    between atoms: C1_2  and  C2_4 
REMARK    2  A    between atoms: C4_8  and  C5_9 
REMARK    3  A    between atoms: N3_10  and  N4_12 
ROOT
HETATM    1  C5  UNL     1      -2.424  -6.439  29.283  1.00  0.00     0.156 C 
HETATM    2  N3  UNL     1      -2.613  -6.158  28.045  1.00  0.00    -0.298 N 
ATOM      3  H3  UNL     1      -2.086  -5.385  27.639  1.00  0.00     0.186 HD
ENDROOT
BRANCH   1   4
HETATM    4  C4  UNL     1      -1.462  -5.630  30.028  1.00  0.00     0.122 A 
HETATM    5  N2  UNL     1      -1.552  -4.333  30.353  1.00  0.00    -0.349 N 
HETATM    6  C3  UNL     1      -0.477  -3.928  31.043  1.00  0.00     0.124 A 
ATOM      7  H2  UNL     1      -2.339  -3.732  30.107  1.00  0.00     0.167 HD
HETATM    8  C2  UNL     1       0.346  -5.024  31.168  1.00  0.00     0.115 A 
HETATM    9  N7  UNL     1      -0.291  -6.042  30.535  1.00  0.00    -0.336 N 
ATOM     10  H7  UNL     1       0.073  -6.992  30.456  1.00  0.00     0.168 HD
BRANCH   8  11
HETATM   11  C1  UNL     1       1.626  -5.064  31.839  1.00  0.00     0.282 C 
HETATM   12  N1  UNL     1       2.756  -5.580  31.161  1.00  0.00    -0.056 NA
HETATM   13  O1  UNL     1       1.734  -4.643  33.016  1.00  0.00    -0.269 OA
ENDBRANCH   8  11
ENDBRANCH   1   4
BRANCH   2  14
HETATM   14  N4  UNL     1      -3.506  -6.857  27.225  1.00  0.00    -0.224 N 
HETATM   15  C6  UNL     1      -3.238  -7.959  26.500  1.00  0.00     0.226 A 
HETATM   16  N5  UNL     1      -4.359  -8.322  25.852  1.00  0.00    -0.292 N 
HETATM   17  N6  UNL     1      -5.342  -7.478  26.142  1.00  0.00    -0.274 N 
ATOM     18  H5  UNL     1      -4.442  -9.126  25.230  1.00  0.00     0.187 HD
HETATM   19  C7  UNL     1      -4.802  -6.582  26.989  1.00  0.00     0.213 A 
ATOM     20  H6  UNL     1      -6.302  -7.503  25.798  1.00  0.00     0.189 HD
HETATM   21  S1  UNL     1      -5.581  -5.307  27.667  1.00  0.00    -0.037 SA
ENDBRANCH   2  14
TORSDOF 3
ENDMDL
