MODEL 1
REMARK VINA RESULT: -7.079534638      0.000      0.000
REMARK  8 active torsions:
REMARK  status: ('A' for Active; 'I' for Inactive)
REMARK    1  A    between atoms: N3_8  and  C4_10 
REMARK    2  A    between atoms: C6_14  and  C7_15 
REMARK       I    between atoms: C7_15  and  N5_17 
REMARK    3  A    between atoms: N5_17  and  C8_19 
REMARK    4  A    between atoms: C8_19  and  C9_20 
REMARK    5  A    between atoms: C8_19  and  C10_23 
REMARK    6  A    between atoms: C9_20  and  O2_21 
REMARK    7  A    between atoms: C10_23  and  O3_24 
REMARK    8  A    between atoms: N6_26  and  N7_28 
ROOT
HETATM    1  C4  UNL     1      40.853  13.425   0.784  1.00  0.00     0.079 C 
HETATM    2  N4  UNL     1      42.014  13.246   1.298  1.00  0.00    -0.379 N 
ATOM      3  H4  UNL     1      42.226  12.556   2.019  1.00  0.00     0.160 HD
HETATM    4  C5  UNL     1      42.988  14.156   0.718  1.00  0.00     0.135 C 
HETATM    5  C6  UNL     1      42.364  14.449  -0.629  1.00  0.00     0.102 C 
HETATM    6  C11 UNL     1      40.888  14.510  -0.242  1.00  0.00     0.092 C 
ENDROOT
BRANCH   5   7
HETATM    7  C7  UNL     1      42.839  15.691  -1.227  1.00  0.00     0.224 C 
HETATM    8  O1  UNL     1      44.083  15.788  -1.479  1.00  0.00    -0.273 OA
HETATM    9  N5  UNL     1      41.990  16.786  -1.537  1.00  0.00    -0.346 N 
ATOM     10  H5  UNL     1      40.993  16.708  -1.335  1.00  0.00     0.163 HD
BRANCH   9  11
HETATM   11  C8  UNL     1      42.483  17.996  -2.125  1.00  0.00     0.184 C 
BRANCH  11  12
HETATM   12  C9  UNL     1      42.798  19.036  -1.070  1.00  0.00     0.197 C 
BRANCH  12  13
HETATM   13  O2  UNL     1      42.078  20.192  -1.250  1.00  0.00    -0.398 OA
ATOM     14  H2  UNL     1      41.827  20.591  -0.425  1.00  0.00     0.209 HD
ENDBRANCH  12  13
ENDBRANCH  11  12
BRANCH  11  15
HETATM   15  C10 UNL     1      41.581  18.584  -3.117  1.00  0.00     0.155 C 
HETATM   16  N6  UNL     1      41.977  19.319  -4.107  1.00  0.00    -0.288 N 
ATOM     17  H6  UNL     1      42.976  19.503  -4.206  1.00  0.00     0.188 HD
BRANCH  15  18
HETATM   18  O3  UNL     1      40.220  18.351  -3.009  1.00  0.00    -0.347 OA
ATOM     19  H3  UNL     1      39.798  18.468  -2.167  1.00  0.00     0.219 HD
ENDBRANCH  15  18
BRANCH  16  20
HETATM   20  N7  UNL     1      41.116  19.865  -5.034  1.00  0.00    -0.343 N 
ATOM     21  H72 UNL     1      40.329  20.408  -4.679  1.00  0.00     0.176 HD
ATOM     22  H71 UNL     1      41.232  19.750  -6.041  1.00  0.00     0.176 HD
ENDBRANCH  16  20
ENDBRANCH  11  15
ENDBRANCH   9  11
ENDBRANCH   5   7
BRANCH   1  23
HETATM   23  N3  UNL     1      39.676  12.704   1.124  1.00  0.00    -0.325 N 
HETATM   24  C3  UNL     1      39.202  11.769   0.330  1.00  0.00     0.166 A 
HETATM   25  N2  UNL     1      39.690  11.350  -0.844  1.00  0.00    -0.279 N 
HETATM   26  S1  UNL     1      37.827  10.772   0.506  1.00  0.00    -0.038 SA
HETATM   27  N1  UNL     1      39.080  10.426  -1.462  1.00  0.00    -0.296 N 
ATOM     28  H2  UNL     1      40.535  11.767  -1.234  1.00  0.00     0.189 HD
HETATM   29  C2  UNL     1      37.983   9.890  -0.949  1.00  0.00     0.066 A 
ATOM     30  H1  UNL     1      39.437  10.094  -2.358  1.00  0.00     0.187 HD
HETATM   31  C1  UNL     1      37.142   8.792  -1.551  1.00  0.00     0.078 C 
ATOM     32  H3  UNL     1      39.192  12.915   1.997  1.00  0.00     0.169 HD
ENDBRANCH   1  23
TORSDOF 8
ENDMDL
MODEL 2
REMARK VINA RESULT: -6.969493195      1.064      1.239
REMARK  8 active torsions:
REMARK  status: ('A' for Active; 'I' for Inactive)
REMARK    1  A    between atoms: N3_8  and  C4_10 
REMARK    2  A    between atoms: C6_14  and  C7_15 
REMARK       I    between atoms: C7_15  and  N5_17 
REMARK    3  A    between atoms: N5_17  and  C8_19 
REMARK    4  A    between atoms: C8_19  and  C9_20 
REMARK    5  A    between atoms: C8_19  and  C10_23 
REMARK    6  A    between atoms: C9_20  and  O2_21 
REMARK    7  A    between atoms: C10_23  and  O3_24 
REMARK    8  A    between atoms: N6_26  and  N7_28 
ROOT
HETATM    1  C4  UNL     1      41.085  13.284   1.060  1.00  0.00     0.079 C 
HETATM    2  N4  UNL     1      42.210  12.882   1.526  1.00  0.00    -0.379 N 
ATOM      3  H4  UNL     1      42.327  12.063   2.124  1.00  0.00     0.160 HD
HETATM    4  C5  UNL     1      43.295  13.745   1.090  1.00  0.00     0.135 C 
HETATM    5  C6  UNL     1      42.726  14.327  -0.186  1.00  0.00     0.102 C 
HETATM    6  C11 UNL     1      41.265  14.508   0.221  1.00  0.00     0.092 C 
ENDROOT
BRANCH   5   7
HETATM    7  C7  UNL     1      43.358  15.581  -0.579  1.00  0.00     0.224 C 
HETATM    8  O1  UNL     1      44.630  15.619  -0.607  1.00  0.00    -0.273 OA
HETATM    9  N5  UNL     1      42.630  16.748  -0.929  1.00  0.00    -0.346 N 
ATOM     10  H5  UNL     1      41.610  16.718  -0.907  1.00  0.00     0.163 HD
BRANCH   9  11
HETATM   11  C8  UNL     1      43.276  17.969  -1.313  1.00  0.00     0.184 C 
BRANCH  11  12
HETATM   12  C9  UNL     1      42.685  19.161  -0.589  1.00  0.00     0.197 C 
BRANCH  12  13
HETATM   13  O2  UNL     1      41.977  19.981  -1.434  1.00  0.00    -0.398 OA
ATOM     14  H2  UNL     1      41.543  20.686  -0.968  1.00  0.00     0.209 HD
ENDBRANCH  12  13
ENDBRANCH  11  12
BRANCH  11  15
HETATM   15  C10 UNL     1      43.249  18.226  -2.754  1.00  0.00     0.155 C 
HETATM   16  N6  UNL     1      42.381  17.707  -3.564  1.00  0.00    -0.288 N 
ATOM     17  H6  UNL     1      41.672  17.082  -3.180  1.00  0.00     0.188 HD
BRANCH  15  18
HETATM   18  O3  UNL     1      44.198  19.071  -3.304  1.00  0.00    -0.347 OA
ATOM     19  H3  UNL     1      44.283  19.116  -4.249  1.00  0.00     0.219 HD
ENDBRANCH  15  18
BRANCH  16  20
HETATM   20  N7  UNL     1      42.367  17.959  -4.918  1.00  0.00    -0.343 N 
ATOM     21  H72 UNL     1      43.026  18.653  -5.272  1.00  0.00     0.176 HD
ATOM     22  H71 UNL     1      41.737  17.488  -5.568  1.00  0.00     0.176 HD
ENDBRANCH  16  20
ENDBRANCH  11  15
ENDBRANCH   9  11
ENDBRANCH   5   7
BRANCH   1  23
HETATM   23  N3  UNL     1      39.824  12.670   1.291  1.00  0.00    -0.325 N 
HETATM   24  C3  UNL     1      39.322  11.811   0.430  1.00  0.00     0.166 A 
HETATM   25  N2  UNL     1      39.849  11.387  -0.724  1.00  0.00    -0.279 N 
HETATM   26  S1  UNL     1      37.850  10.947   0.473  1.00  0.00    -0.038 SA
HETATM   27  N1  UNL     1      39.201  10.547  -1.418  1.00  0.00    -0.296 N 
ATOM     28  H2  UNL     1      40.755  11.732  -1.040  1.00  0.00     0.189 HD
HETATM   29  C2  UNL     1      38.024  10.103  -1.002  1.00  0.00     0.066 A 
ATOM     30  H1  UNL     1      39.587  10.212  -2.300  1.00  0.00     0.187 HD
HETATM   31  C1  UNL     1      37.129   9.112  -1.702  1.00  0.00     0.078 C 
ATOM     32  H3  UNL     1      39.302  12.898   2.136  1.00  0.00     0.169 HD
ENDBRANCH   1  23
TORSDOF 8
ENDMDL
MODEL 3
REMARK VINA RESULT: -6.924065342      3.900      7.884
REMARK  8 active torsions:
REMARK  status: ('A' for Active; 'I' for Inactive)
REMARK    1  A    between atoms: N3_8  and  C4_10 
REMARK    2  A    between atoms: C6_14  and  C7_15 
REMARK       I    between atoms: C7_15  and  N5_17 
REMARK    3  A    between atoms: N5_17  and  C8_19 
REMARK    4  A    between atoms: C8_19  and  C9_20 
REMARK    5  A    between atoms: C8_19  and  C10_23 
REMARK    6  A    between atoms: C9_20  and  O2_21 
REMARK    7  A    between atoms: C10_23  and  O3_24 
REMARK    8  A    between atoms: N6_26  and  N7_28 
ROOT
HETATM    1  C4  UNL     1      42.427  15.184  -1.375  1.00  0.00     0.079 C 
HETATM    2  N4  UNL     1      42.826  15.366  -0.170  1.00  0.00    -0.379 N 
ATOM      3  H4  UNL     1      43.543  16.037   0.105  1.00  0.00     0.160 HD
HETATM    4  C5  UNL     1      42.121  14.490   0.752  1.00  0.00     0.135 C 
HETATM    5  C6  UNL     1      40.836  14.228  -0.002  1.00  0.00     0.102 C 
HETATM    6  C11 UNL     1      41.368  14.131  -1.430  1.00  0.00     0.092 C 
ENDROOT
BRANCH   5   7
HETATM    7  C7  UNL     1      40.155  13.011   0.427  1.00  0.00     0.224 C 
HETATM    8  O1  UNL     1      39.100  13.140   1.128  1.00  0.00    -0.273 OA
HETATM    9  N5  UNL     1      40.607  11.705   0.101  1.00  0.00    -0.346 N 
ATOM     10  H5  UNL     1      41.452  11.603  -0.461  1.00  0.00     0.163 HD
BRANCH   9  11
HETATM   11  C8  UNL     1      39.918  10.526   0.535  1.00  0.00     0.184 C 
BRANCH  11  12
HETATM   12  C9  UNL     1      40.798   9.298   0.427  1.00  0.00     0.197 C 
BRANCH  12  13
HETATM   13  O2  UNL     1      40.092   8.135   0.620  1.00  0.00    -0.398 OA
ATOM     14  H2  UNL     1      40.605   7.475   1.073  1.00  0.00     0.209 HD
ENDBRANCH  12  13
ENDBRANCH  11  12
BRANCH  11  15
HETATM   15  C10 UNL     1      38.664  10.276  -0.178  1.00  0.00     0.155 C 
HETATM   16  N6  UNL     1      38.577   9.567  -1.259  1.00  0.00    -0.288 N 
ATOM     17  H6  UNL     1      39.430   9.158  -1.641  1.00  0.00     0.188 HD
BRANCH  15  18
HETATM   18  O3  UNL     1      37.490  10.819   0.316  1.00  0.00    -0.347 OA
ATOM     19  H3  UNL     1      36.703  10.287   0.324  1.00  0.00     0.219 HD
ENDBRANCH  15  18
BRANCH  16  20
HETATM   20  N7  UNL     1      37.389   9.341  -1.920  1.00  0.00    -0.343 N 
ATOM     21  H72 UNL     1      37.444   8.960  -2.865  1.00  0.00     0.176 HD
ATOM     22  H71 UNL     1      36.475   9.535  -1.510  1.00  0.00     0.176 HD
ENDBRANCH  16  20
ENDBRANCH  11  15
ENDBRANCH   9  11
ENDBRANCH   5   7
BRANCH   1  23
HETATM   23  N3  UNL     1      42.906  15.876  -2.520  1.00  0.00    -0.325 N 
HETATM   24  C3  UNL     1      42.172  16.791  -3.114  1.00  0.00     0.166 A 
HETATM   25  N2  UNL     1      40.945  17.214  -2.788  1.00  0.00    -0.279 N 
HETATM   26  S1  UNL     1      42.512  17.752  -4.485  1.00  0.00    -0.038 SA
HETATM   27  N1  UNL     1      40.403  18.116  -3.494  1.00  0.00    -0.296 N 
ATOM     28  H2  UNL     1      40.455  16.817  -1.986  1.00  0.00     0.189 HD
HETATM   29  C2  UNL     1      41.045  18.626  -4.534  1.00  0.00     0.066 A 
ATOM     30  H1  UNL     1      39.468  18.450  -3.260  1.00  0.00     0.187 HD
HETATM   31  C1  UNL     1      40.547  19.696  -5.473  1.00  0.00     0.078 C 
ATOM     32  H3  UNL     1      43.832  15.658  -2.887  1.00  0.00     0.169 HD
ENDBRANCH   1  23
TORSDOF 8
ENDMDL
MODEL 4
REMARK VINA RESULT: -6.868654772      3.903      8.078
REMARK  8 active torsions:
REMARK  status: ('A' for Active; 'I' for Inactive)
REMARK    1  A    between atoms: N3_8  and  C4_10 
REMARK    2  A    between atoms: C6_14  and  C7_15 
REMARK       I    between atoms: C7_15  and  N5_17 
REMARK    3  A    between atoms: N5_17  and  C8_19 
REMARK    4  A    between atoms: C8_19  and  C9_20 
REMARK    5  A    between atoms: C8_19  and  C10_23 
REMARK    6  A    between atoms: C9_20  and  O2_21 
REMARK    7  A    between atoms: C10_23  and  O3_24 
REMARK    8  A    between atoms: N6_26  and  N7_28 
ROOT
HETATM    1  C4  UNL     1      42.068  14.956  -1.569  1.00  0.00     0.079 C 
HETATM    2  N4  UNL     1      42.259  15.426  -0.391  1.00  0.00    -0.379 N 
ATOM      3  H4  UNL     1      42.743  16.301  -0.190  1.00  0.00     0.160 HD
HETATM    4  C5  UNL     1      41.696  14.546   0.620  1.00  0.00     0.135 C 
HETATM    5  C6  UNL     1      40.620  13.829  -0.167  1.00  0.00     0.102 C 
HETATM    6  C11 UNL     1      41.328  13.660  -1.510  1.00  0.00     0.092 C 
ENDROOT
BRANCH   5   7
HETATM    7  C7  UNL     1      40.225  12.556   0.425  1.00  0.00     0.224 C 
HETATM    8  O1  UNL     1      39.077  12.488   0.970  1.00  0.00    -0.273 OA
HETATM    9  N5  UNL     1      41.052  11.402   0.420  1.00  0.00    -0.346 N 
ATOM     10  H5  UNL     1      41.972  11.456  -0.017  1.00  0.00     0.163 HD
BRANCH   9  11
HETATM   11  C8  UNL     1      40.639  10.161   1.009  1.00  0.00     0.184 C 
BRANCH  11  12
HETATM   12  C9  UNL     1      41.810   9.420   1.619  1.00  0.00     0.197 C 
BRANCH  12  13
HETATM   13  O2  UNL     1      42.889   9.367   0.770  1.00  0.00    -0.398 OA
ATOM     14  H2  UNL     1      43.596   8.837   1.120  1.00  0.00     0.209 HD
ENDBRANCH  12  13
ENDBRANCH  11  12
BRANCH  11  15
HETATM   15  C10 UNL     1      39.942   9.269   0.081  1.00  0.00     0.155 C 
HETATM   16  N6  UNL     1      40.089   7.982   0.069  1.00  0.00    -0.288 N 
ATOM     17  H6  UNL     1      40.728   7.560   0.744  1.00  0.00     0.188 HD
BRANCH  15  18
HETATM   18  O3  UNL     1      39.069   9.812  -0.847  1.00  0.00    -0.347 OA
ATOM     19  H3  UNL     1      38.612   9.233  -1.445  1.00  0.00     0.219 HD
ENDBRANCH  15  18
BRANCH  16  20
HETATM   20  N7  UNL     1      39.426   7.154  -0.811  1.00  0.00    -0.343 N 
ATOM     21  H72 UNL     1      39.772   6.199  -0.906  1.00  0.00     0.176 HD
ATOM     22  H71 UNL     1      38.620   7.453  -1.360  1.00  0.00     0.176 HD
ENDBRANCH  16  20
ENDBRANCH  11  15
ENDBRANCH   9  11
ENDBRANCH   5   7
BRANCH   1  23
HETATM   23  N3  UNL     1      42.490  15.564  -2.782  1.00  0.00    -0.325 N 
HETATM   24  C3  UNL     1      41.819  16.566  -3.306  1.00  0.00     0.166 A 
HETATM   25  N2  UNL     1      40.710  17.156  -2.843  1.00  0.00    -0.279 N 
HETATM   26  S1  UNL     1      42.111  17.458  -4.733  1.00  0.00    -0.038 SA
HETATM   27  N1  UNL     1      40.211  18.117  -3.502  1.00  0.00    -0.296 N 
ATOM     28  H2  UNL     1      40.275  16.838  -1.977  1.00  0.00     0.189 HD
HETATM   29  C2  UNL     1      40.781  18.524  -4.626  1.00  0.00     0.066 A 
ATOM     30  H1  UNL     1      39.366  18.579  -3.164  1.00  0.00     0.187 HD
HETATM   31  C1  UNL     1      40.319  19.644  -5.525  1.00  0.00     0.078 C 
ATOM     32  H3  UNL     1      43.326  15.218  -3.253  1.00  0.00     0.169 HD
ENDBRANCH   1  23
TORSDOF 8
ENDMDL
MODEL 5
REMARK VINA RESULT: -6.852713234      0.878      1.137
REMARK  8 active torsions:
REMARK  status: ('A' for Active; 'I' for Inactive)
REMARK    1  A    between atoms: N3_8  and  C4_10 
REMARK    2  A    between atoms: C6_14  and  C7_15 
REMARK       I    between atoms: C7_15  and  N5_17 
REMARK    3  A    between atoms: N5_17  and  C8_19 
REMARK    4  A    between atoms: C8_19  and  C9_20 
REMARK    5  A    between atoms: C8_19  and  C10_23 
REMARK    6  A    between atoms: C9_20  and  O2_21 
REMARK    7  A    between atoms: C10_23  and  O3_24 
REMARK    8  A    between atoms: N6_26  and  N7_28 
ROOT
HETATM    1  C4  UNL     1      40.987  13.178   0.913  1.00  0.00     0.079 C 
HETATM    2  N4  UNL     1      42.105  12.843   1.443  1.00  0.00    -0.379 N 
ATOM      3  H4  UNL     1      42.220  12.089   2.121  1.00  0.00     0.160 HD
HETATM    4  C5  UNL     1      43.188  13.678   0.949  1.00  0.00     0.135 C 
HETATM    5  C6  UNL     1      42.642  14.123  -0.390  1.00  0.00     0.102 C 
HETATM    6  C11 UNL     1      41.169  14.317  -0.037  1.00  0.00     0.092 C 
ENDROOT
BRANCH   5   7
HETATM    7  C7  UNL     1      43.265  15.343  -0.890  1.00  0.00     0.224 C 
HETATM    8  O1  UNL     1      44.526  15.335  -1.063  1.00  0.00    -0.273 OA
HETATM    9  N5  UNL     1      42.539  16.526  -1.190  1.00  0.00    -0.346 N 
ATOM     10  H5  UNL     1      41.528  16.532  -1.050  1.00  0.00     0.163 HD
BRANCH   9  11
HETATM   11  C8  UNL     1      43.176  17.712  -1.681  1.00  0.00     0.184 C 
BRANCH  11  12
HETATM   12  C9  UNL     1      43.869  18.470  -0.568  1.00  0.00     0.197 C 
BRANCH  12  13
HETATM   13  O2  UNL     1      45.237  18.369  -0.646  1.00  0.00    -0.398 OA
ATOM     14  H2  UNL     1      45.648  19.205  -0.833  1.00  0.00     0.209 HD
ENDBRANCH  12  13
ENDBRANCH  11  12
BRANCH  11  15
HETATM   15  C10 UNL     1      42.271  18.623  -2.385  1.00  0.00     0.155 C 
HETATM   16  N6  UNL     1      41.797  18.397  -3.569  1.00  0.00    -0.288 N 
ATOM     17  H6  UNL     1      42.068  17.536  -4.044  1.00  0.00     0.188 HD
BRANCH  15  18
HETATM   18  O3  UNL     1      41.886  19.800  -1.764  1.00  0.00    -0.347 OA
ATOM     19  H3  UNL     1      41.009  20.133  -1.912  1.00  0.00     0.219 HD
ENDBRANCH  15  18
BRANCH  16  20
HETATM   20  N7  UNL     1      40.945  19.264  -4.219  1.00  0.00    -0.343 N 
ATOM     21  H72 UNL     1      40.530  20.014  -3.667  1.00  0.00     0.176 HD
ATOM     22  H71 UNL     1      40.719  19.186  -5.211  1.00  0.00     0.176 HD
ENDBRANCH  16  20
ENDBRANCH  11  15
ENDBRANCH   9  11
ENDBRANCH   5   7
BRANCH   1  23
HETATM   23  N3  UNL     1      39.730  12.567   1.174  1.00  0.00    -0.325 N 
HETATM   24  C3  UNL     1      39.234  11.664   0.357  1.00  0.00     0.166 A 
HETATM   25  N2  UNL     1      39.764  11.187  -0.775  1.00  0.00    -0.279 N 
HETATM   26  S1  UNL     1      37.767  10.794   0.442  1.00  0.00    -0.038 SA
HETATM   27  N1  UNL     1      39.122  10.310  -1.427  1.00  0.00    -0.296 N 
ATOM     28  H2  UNL     1      40.668  11.523  -1.107  1.00  0.00     0.189 HD
HETATM   29  C2  UNL     1      37.948   9.880  -0.990  1.00  0.00     0.066 A 
ATOM     30  H1  UNL     1      39.511   9.935  -2.292  1.00  0.00     0.187 HD
HETATM   31  C1  UNL     1      37.059   8.849  -1.640  1.00  0.00     0.078 C 
ATOM     32  H3  UNL     1      39.206  12.833   2.008  1.00  0.00     0.169 HD
ENDBRANCH   1  23
TORSDOF 8
ENDMDL
