MODEL 1
REMARK VINA RESULT: -7.169293474      0.000      0.000
REMARK  7 active torsions:
REMARK  status: ('A' for Active; 'I' for Inactive)
REMARK    1  A    between atoms: C9_11  and  N2_12 
REMARK    2  A    between atoms: N2_12  and  C10_14 
REMARK    3  A    between atoms: C10_14  and  C11_15 
REMARK    4  A    between atoms: C11_15  and  N3_16 
REMARK    5  A    between atoms: N3_16  and  C12_19 
REMARK    6  A    between atoms: C12_19  and  C13_20 
REMARK    7  A    between atoms: C13_20  and  N4_21 
ROOT
HETATM    1  C1  UNL     1      31.298  40.228  17.422  1.00  0.00     0.026 C 
HETATM    2  C2  UNL     1      30.231  41.212  17.453  1.00  0.00     0.020 C 
HETATM    3  C3  UNL     1      30.291  42.704  17.339  1.00  0.00     0.020 C 
HETATM    4  C4  UNL     1      28.848  43.120  17.844  1.00  0.00     0.012 C 
HETATM    5  C5  UNL     1      27.708  42.489  17.133  1.00  0.00     0.041 C 
HETATM    6  C6  UNL     1      26.986  41.382  17.947  1.00  0.00     0.051 C 
HETATM    7  C7  UNL     1      28.051  40.975  18.908  1.00  0.00    -0.033 A 
HETATM    8  C8  UNL     1      27.558  40.738  20.159  1.00  0.00     0.097 A 
HETATM    9  N1  UNL     1      28.340  40.562  21.231  1.00  0.00    -0.351 N 
ATOM     10  H1  UNL     1      27.939  40.383  22.151  1.00  0.00     0.166 HD
HETATM   11  C9  UNL     1      29.665  40.629  21.055  1.00  0.00     0.122 A 
HETATM   12  C14 UNL     1      30.265  40.868  19.811  1.00  0.00     0.096 A 
HETATM   13  C15 UNL     1      31.682  41.187  19.790  1.00  0.00     0.104 C 
HETATM   14  N5  UNL     1      32.811  41.483  19.802  1.00  0.00    -0.191 NA
HETATM   15  C16 UNL     1      29.428  41.030  18.731  1.00  0.00    -0.013 A 
HETATM   16  C17 UNL     1      28.253  41.588  16.018  1.00  0.00     0.027 A 
HETATM   17  N6  UNL     1      27.523  41.497  14.910  1.00  0.00    -0.355 N 
ATOM     18  H6  UNL     1      26.618  41.962  14.839  1.00  0.00     0.166 HD
HETATM   19  C18 UNL     1      28.015  40.771  13.877  1.00  0.00     0.183 A 
HETATM   20  N7  UNL     1      29.204  40.177  14.007  1.00  0.00    -0.319 N 
ATOM     21  H7  UNL     1      29.561  39.634  13.221  1.00  0.00     0.169 HD
HETATM   22  C19 UNL     1      29.971  40.260  15.141  1.00  0.00     0.255 A 
HETATM   23  O1  UNL     1      31.052  39.637  15.032  1.00  0.00    -0.268 OA
HETATM   24  C20 UNL     1      29.472  40.992  16.190  1.00  0.00     0.046 A 
ENDROOT
BRANCH  11  25
HETATM   25  N2  UNL     1      30.540  40.456  22.175  1.00  0.00    -0.373 N 
ATOM     26  H2  UNL     1      31.147  39.637  22.201  1.00  0.00     0.161 HD
BRANCH  25  27
HETATM   27  C10 UNL     1      30.596  41.399  23.268  1.00  0.00     0.148 C 
BRANCH  27  28
HETATM   28  C11 UNL     1      31.647  42.454  23.115  1.00  0.00     0.251 C 
BRANCH  28  29
HETATM   29  N3  UNL     1      32.982  41.935  23.058  1.00  0.00    -0.072 N 
ATOM     30  H32 UNL     1      33.261  41.572  23.969  1.00  0.00     0.277 HD
ATOM     31  H31 UNL     1      33.005  41.074  22.512  1.00  0.00     0.277 HD
BRANCH  29  32
HETATM   32  C12 UNL     1      33.954  42.859  22.571  1.00  0.00     0.259 C 
BRANCH  32  33
HETATM   33  C13 UNL     1      35.240  42.075  22.284  1.00  0.00     0.257 C 
BRANCH  33  34
HETATM   34  N4  UNL     1      35.465  41.978  20.867  1.00  0.00    -0.078 N 
ATOM     35  H43 UNL     1      35.695  42.883  20.456  1.00  0.00     0.274 HD
ATOM     36  H42 UNL     1      36.335  41.489  20.654  1.00  0.00     0.274 HD
ATOM     37  H41 UNL     1      34.665  41.545  20.406  1.00  0.00     0.274 HD
ENDBRANCH  33  34
ENDBRANCH  32  33
ENDBRANCH  29  32
ENDBRANCH  28  29
ENDBRANCH  27  28
ENDBRANCH  25  27
ENDBRANCH  11  25
TORSDOF 7
ENDMDL
MODEL 2
REMARK VINA RESULT: -6.770699585      1.155      1.277
REMARK  7 active torsions:
REMARK  status: ('A' for Active; 'I' for Inactive)
REMARK    1  A    between atoms: C9_11  and  N2_12 
REMARK    2  A    between atoms: N2_12  and  C10_14 
REMARK    3  A    between atoms: C10_14  and  C11_15 
REMARK    4  A    between atoms: C11_15  and  N3_16 
REMARK    5  A    between atoms: N3_16  and  C12_19 
REMARK    6  A    between atoms: C12_19  and  C13_20 
REMARK    7  A    between atoms: C13_20  and  N4_21 
ROOT
HETATM    1  C1  UNL     1      31.523  39.808  18.046  1.00  0.00     0.026 C 
HETATM    2  C2  UNL     1      30.496  40.834  17.985  1.00  0.00     0.020 C 
HETATM    3  C3  UNL     1      30.577  42.251  17.509  1.00  0.00     0.020 C 
HETATM    4  C4  UNL     1      29.232  42.858  18.089  1.00  0.00     0.012 C 
HETATM    5  C5  UNL     1      27.987  42.146  17.710  1.00  0.00     0.041 C 
HETATM    6  C6  UNL     1      27.363  41.304  18.855  1.00  0.00     0.051 C 
HETATM    7  C7  UNL     1      28.544  41.072  19.734  1.00  0.00    -0.033 A 
HETATM    8  C8  UNL     1      28.233  41.163  21.060  1.00  0.00     0.097 A 
HETATM    9  N1  UNL     1      29.157  41.197  22.027  1.00  0.00    -0.351 N 
ATOM     10  H1  UNL     1      28.889  41.262  23.009  1.00  0.00     0.166 HD
HETATM   11  C9  UNL     1      30.443  41.143  21.663  1.00  0.00     0.122 A 
HETATM   12  C14 UNL     1      30.863  41.049  20.329  1.00  0.00     0.096 A 
HETATM   13  C15 UNL     1      32.270  41.270  20.041  1.00  0.00     0.104 C 
HETATM   14  N5  UNL     1      33.395  41.494  19.830  1.00  0.00    -0.191 NA
HETATM   15  C16 UNL     1      29.883  41.002  19.365  1.00  0.00    -0.013 A 
HETATM   16  C17 UNL     1      28.341  40.979  16.781  1.00  0.00     0.027 A 
HETATM   17  N6  UNL     1      27.456  40.674  15.835  1.00  0.00    -0.355 N 
ATOM     18  H6  UNL     1      26.562  41.162  15.778  1.00  0.00     0.166 HD
HETATM   19  C18 UNL     1      27.775  39.699  14.951  1.00  0.00     0.183 A 
HETATM   20  N7  UNL     1      28.955  39.084  15.058  1.00  0.00    -0.319 N 
ATOM     21  H7  UNL     1      29.181  38.351  14.384  1.00  0.00     0.169 HD
HETATM   22  C19 UNL     1      29.880  39.384  16.025  1.00  0.00     0.255 A 
HETATM   23  O1  UNL     1      30.918  38.690  15.923  1.00  0.00    -0.268 OA
HETATM   24  C20 UNL     1      29.557  40.369  16.925  1.00  0.00     0.046 A 
ENDROOT
BRANCH  11  25
HETATM   25  N2  UNL     1      31.467  41.185  22.663  1.00  0.00    -0.373 N 
ATOM     26  H2  UNL     1      31.928  40.316  22.932  1.00  0.00     0.161 HD
BRANCH  25  27
HETATM   27  C10 UNL     1      31.872  42.414  23.306  1.00  0.00     0.148 C 
BRANCH  27  28
HETATM   28  C11 UNL     1      33.282  42.824  23.014  1.00  0.00     0.251 C 
BRANCH  28  29
HETATM   29  N3  UNL     1      34.148  41.727  22.694  1.00  0.00    -0.072 N 
ATOM     30  H32 UNL     1      34.155  41.047  23.455  1.00  0.00     0.277 HD
ATOM     31  H31 UNL     1      33.739  41.156  21.954  1.00  0.00     0.277 HD
BRANCH  29  32
HETATM   32  C12 UNL     1      35.480  42.106  22.352  1.00  0.00     0.259 C 
BRANCH  32  33
HETATM   33  C13 UNL     1      36.346  40.842  22.379  1.00  0.00     0.257 C 
BRANCH  33  34
HETATM   34  N4  UNL     1      37.689  41.159  22.788  1.00  0.00    -0.078 N 
ATOM     35  H43 UNL     1      37.884  42.157  22.707  1.00  0.00     0.274 HD
ATOM     36  H42 UNL     1      37.812  41.061  23.796  1.00  0.00     0.274 HD
ATOM     37  H41 UNL     1      38.364  40.598  22.268  1.00  0.00     0.274 HD
ENDBRANCH  33  34
ENDBRANCH  32  33
ENDBRANCH  29  32
ENDBRANCH  28  29
ENDBRANCH  27  28
ENDBRANCH  25  27
ENDBRANCH  11  25
TORSDOF 7
ENDMDL
MODEL 3
REMARK VINA RESULT: -6.590172636      2.264      6.539
REMARK  7 active torsions:
REMARK  status: ('A' for Active; 'I' for Inactive)
REMARK    1  A    between atoms: C9_11  and  N2_12 
REMARK    2  A    between atoms: N2_12  and  C10_14 
REMARK    3  A    between atoms: C10_14  and  C11_15 
REMARK    4  A    between atoms: C11_15  and  N3_16 
REMARK    5  A    between atoms: N3_16  and  C12_19 
REMARK    6  A    between atoms: C12_19  and  C13_20 
REMARK    7  A    between atoms: C13_20  and  N4_21 
ROOT
HETATM    1  C1  UNL     1      32.281  41.503  19.284  1.00  0.00     0.026 C 
HETATM    2  C2  UNL     1      31.264  40.849  20.089  1.00  0.00     0.020 C 
HETATM    3  C3  UNL     1      31.262  39.492  20.723  1.00  0.00     0.020 C 
HETATM    4  C4  UNL     1      29.729  39.313  21.085  1.00  0.00     0.012 C 
HETATM    5  C5  UNL     1      29.132  40.388  21.916  1.00  0.00     0.041 C 
HETATM    6  C6  UNL     1      28.189  41.344  21.137  1.00  0.00     0.051 C 
HETATM    7  C7  UNL     1      28.675  41.170  19.739  1.00  0.00    -0.033 A 
HETATM    8  C8  UNL     1      27.654  41.137  18.834  1.00  0.00     0.097 A 
HETATM    9  N1  UNL     1      27.824  40.786  17.553  1.00  0.00    -0.351 N 
ATOM     10  H1  UNL     1      27.039  40.776  16.902  1.00  0.00     0.166 HD
HETATM   11  C9  UNL     1      29.057  40.451  17.156  1.00  0.00     0.122 A 
HETATM   12  C14 UNL     1      30.168  40.454  18.010  1.00  0.00     0.096 A 
HETATM   13  C15 UNL     1      31.387  39.817  17.542  1.00  0.00     0.104 C 
HETATM   14  N5  UNL     1      32.341  39.263  17.161  1.00  0.00    -0.191 NA
HETATM   15  C16 UNL     1      29.956  40.833  19.315  1.00  0.00    -0.013 A 
HETATM   16  C17 UNL     1      30.217  41.417  22.255  1.00  0.00     0.027 A 
HETATM   17  N6  UNL     1      30.130  42.012  23.442  1.00  0.00    -0.355 N 
ATOM     18  H6  UNL     1      29.343  41.827  24.064  1.00  0.00     0.166 HD
HETATM   19  C18 UNL     1      31.116  42.868  23.802  1.00  0.00     0.183 A 
HETATM   20  N7  UNL     1      32.130  43.084  22.962  1.00  0.00    -0.319 N 
ATOM     21  H7  UNL     1      32.865  43.732  23.247  1.00  0.00     0.169 HD
HETATM   22  C19 UNL     1      32.237  42.481  21.735  1.00  0.00     0.255 A 
HETATM   23  O1  UNL     1      33.277  42.822  21.125  1.00  0.00    -0.268 OA
HETATM   24  C20 UNL     1      31.237  41.615  21.366  1.00  0.00     0.046 A 
ENDROOT
BRANCH  11  25
HETATM   25  N2  UNL     1      29.284  40.061  15.797  1.00  0.00    -0.373 N 
ATOM     26  H2  UNL     1      30.200  39.693  15.538  1.00  0.00     0.161 HD
BRANCH  25  27
HETATM   27  C10 UNL     1      28.265  40.170  14.779  1.00  0.00     0.148 C 
BRANCH  27  28
HETATM   28  C11 UNL     1      28.077  41.555  14.243  1.00  0.00     0.251 C 
BRANCH  28  29
HETATM   29  N3  UNL     1      27.066  42.306  14.927  1.00  0.00    -0.072 N 
ATOM     30  H32 UNL     1      26.175  42.233  14.436  1.00  0.00     0.277 HD
ATOM     31  H31 UNL     1      26.819  41.851  15.806  1.00  0.00     0.277 HD
BRANCH  29  32
HETATM   32  C12 UNL     1      27.398  43.675  15.153  1.00  0.00     0.259 C 
BRANCH  32  33
HETATM   33  C13 UNL     1      28.483  43.720  16.235  1.00  0.00     0.257 C 
BRANCH  33  34
HETATM   34  N4  UNL     1      29.096  45.021  16.280  1.00  0.00    -0.078 N 
ATOM     35  H43 UNL     1      28.837  45.590  15.475  1.00  0.00     0.274 HD
ATOM     36  H42 UNL     1      28.694  45.604  17.015  1.00  0.00     0.274 HD
ATOM     37  H41 UNL     1      30.108  44.937  16.375  1.00  0.00     0.274 HD
ENDBRANCH  33  34
ENDBRANCH  32  33
ENDBRANCH  29  32
ENDBRANCH  28  29
ENDBRANCH  27  28
ENDBRANCH  25  27
ENDBRANCH  11  25
TORSDOF 7
ENDMDL
MODEL 4
REMARK VINA RESULT: -6.467539999      5.867      7.633
REMARK  7 active torsions:
REMARK  status: ('A' for Active; 'I' for Inactive)
REMARK    1  A    between atoms: C9_11  and  N2_12 
REMARK    2  A    between atoms: N2_12  and  C10_14 
REMARK    3  A    between atoms: C10_14  and  C11_15 
REMARK    4  A    between atoms: C11_15  and  N3_16 
REMARK    5  A    between atoms: N3_16  and  C12_19 
REMARK    6  A    between atoms: C12_19  and  C13_20 
REMARK    7  A    between atoms: C13_20  and  N4_21 
ROOT
HETATM    1  C1  UNL     1      35.767  37.990  13.012  1.00  0.00     0.026 C 
HETATM    2  C2  UNL     1      36.233  39.322  13.355  1.00  0.00     0.020 C 
HETATM    3  C3  UNL     1      37.390  39.749  14.204  1.00  0.00     0.020 C 
HETATM    4  C4  UNL     1      37.057  41.280  14.448  1.00  0.00     0.012 C 
HETATM    5  C5  UNL     1      36.848  42.097  13.227  1.00  0.00     0.041 C 
HETATM    6  C6  UNL     1      35.365  42.466  12.956  1.00  0.00     0.051 C 
HETATM    7  C7  UNL     1      34.648  41.394  13.703  1.00  0.00    -0.033 A 
HETATM    8  C8  UNL     1      33.543  41.863  14.353  1.00  0.00     0.097 A 
HETATM    9  N1  UNL     1      32.860  41.140  15.249  1.00  0.00    -0.351 N 
ATOM     10  H1  UNL     1      32.036  41.519  15.714  1.00  0.00     0.166 HD
HETATM   11  C9  UNL     1      33.296  39.903  15.514  1.00  0.00     0.122 A 
HETATM   12  C14 UNL     1      34.420  39.334  14.900  1.00  0.00     0.096 A 
HETATM   13  C15 UNL     1      34.950  38.103  15.461  1.00  0.00     0.104 C 
HETATM   14  N5  UNL     1      35.384  37.139  15.954  1.00  0.00    -0.191 NA
HETATM   15  C16 UNL     1      35.086  40.103  13.975  1.00  0.00    -0.013 A 
HETATM   16  C17 UNL     1      37.058  41.213  11.992  1.00  0.00     0.027 A 
HETATM   17  N6  UNL     1      37.585  41.796  10.918  1.00  0.00    -0.355 N 
ATOM     18  H6  UNL     1      37.780  42.797  10.909  1.00  0.00     0.166 HD
HETATM   19  C18 UNL     1      37.854  41.024   9.838  1.00  0.00     0.183 A 
HETATM   20  N7  UNL     1      37.584  39.718   9.888  1.00  0.00    -0.319 N 
ATOM     21  H7  UNL     1      37.793  39.150   9.066  1.00  0.00     0.169 HD
HETATM   22  C19 UNL     1      37.042  39.099  10.984  1.00  0.00     0.255 A 
HETATM   23  O1  UNL     1      36.889  37.867  10.810  1.00  0.00    -0.268 OA
HETATM   24  C20 UNL     1      36.765  39.879  12.080  1.00  0.00     0.046 A 
ENDROOT
BRANCH  11  25
HETATM   25  N2  UNL     1      32.602  39.096  16.473  1.00  0.00    -0.373 N 
ATOM     26  H2  UNL     1      33.067  38.269  16.848  1.00  0.00     0.161 HD
BRANCH  25  27
HETATM   27  C10 UNL     1      31.267  39.410  16.928  1.00  0.00     0.148 C 
BRANCH  27  28
HETATM   28  C11 UNL     1      31.197  39.868  18.352  1.00  0.00     0.251 C 
BRANCH  28  29
HETATM   29  N3  UNL     1      32.026  41.002  18.634  1.00  0.00    -0.072 N 
ATOM     30  H32 UNL     1      33.006  40.778  18.461  1.00  0.00     0.277 HD
ATOM     31  H31 UNL     1      31.886  41.729  17.932  1.00  0.00     0.277 HD
BRANCH  29  32
HETATM   32  C12 UNL     1      31.864  41.541  19.945  1.00  0.00     0.259 C 
BRANCH  32  33
HETATM   33  C13 UNL     1      33.179  41.327  20.704  1.00  0.00     0.257 C 
BRANCH  33  34
HETATM   34  N4  UNL     1      34.167  42.282  20.278  1.00  0.00    -0.078 N 
ATOM     35  H43 UNL     1      34.621  42.736  21.070  1.00  0.00     0.274 HD
ATOM     36  H42 UNL     1      34.986  41.827  19.874  1.00  0.00     0.274 HD
ATOM     37  H41 UNL     1      33.756  42.961  19.637  1.00  0.00     0.274 HD
ENDBRANCH  33  34
ENDBRANCH  32  33
ENDBRANCH  29  32
ENDBRANCH  28  29
ENDBRANCH  27  28
ENDBRANCH  25  27
ENDBRANCH  11  25
TORSDOF 7
ENDMDL
MODEL 5
REMARK VINA RESULT: -6.203866141      5.915      7.935
REMARK  7 active torsions:
REMARK  status: ('A' for Active; 'I' for Inactive)
REMARK    1  A    between atoms: C9_11  and  N2_12 
REMARK    2  A    between atoms: N2_12  and  C10_14 
REMARK    3  A    between atoms: C10_14  and  C11_15 
REMARK    4  A    between atoms: C11_15  and  N3_16 
REMARK    5  A    between atoms: N3_16  and  C12_19 
REMARK    6  A    between atoms: C12_19  and  C13_20 
REMARK    7  A    between atoms: C13_20  and  N4_21 
ROOT
HETATM    1  C1  UNL     1      35.831  37.991  13.008  1.00  0.00     0.026 C 
HETATM    2  C2  UNL     1      36.261  39.334  13.356  1.00  0.00     0.020 C 
HETATM    3  C3  UNL     1      37.409  39.789  14.204  1.00  0.00     0.020 C 
HETATM    4  C4  UNL     1      37.035  41.309  14.455  1.00  0.00     0.012 C 
HETATM    5  C5  UNL     1      36.801  42.125  13.238  1.00  0.00     0.041 C 
HETATM    6  C6  UNL     1      35.307  42.455  12.973  1.00  0.00     0.051 C 
HETATM    7  C7  UNL     1      34.622  41.360  13.717  1.00  0.00    -0.033 A 
HETATM    8  C8  UNL     1      33.506  41.796  14.372  1.00  0.00     0.097 A 
HETATM    9  N1  UNL     1      32.846  41.051  15.267  1.00  0.00    -0.351 N 
ATOM     10  H1  UNL     1      32.013  41.406  15.735  1.00  0.00     0.166 HD
HETATM   11  C9  UNL     1      33.315  39.825  15.526  1.00  0.00     0.122 A 
HETATM   12  C14 UNL     1      34.453  39.290  14.906  1.00  0.00     0.096 A 
HETATM   13  C15 UNL     1      35.018  38.071  15.460  1.00  0.00     0.104 C 
HETATM   14  N5  UNL     1      35.479  37.117  15.948  1.00  0.00    -0.191 NA
HETATM   15  C16 UNL     1      35.095  40.080  13.982  1.00  0.00    -0.013 A 
HETATM   16  C17 UNL     1      37.031  41.252  11.999  1.00  0.00     0.027 A 
HETATM   17  N6  UNL     1      37.538  41.854  10.927  1.00  0.00    -0.355 N 
ATOM     18  H6  UNL     1      37.707  42.860  10.921  1.00  0.00     0.166 HD
HETATM   19  C18 UNL     1      37.825  41.094   9.842  1.00  0.00     0.183 A 
HETATM   20  N7  UNL     1      37.592  39.781   9.887  1.00  0.00    -0.319 N 
ATOM     21  H7  UNL     1      37.813  39.223   9.062  1.00  0.00     0.169 HD
HETATM   22  C19 UNL     1      37.070  39.143  10.982  1.00  0.00     0.255 A 
HETATM   23  O1  UNL     1      36.950  37.908  10.803  1.00  0.00    -0.268 OA
HETATM   24  C20 UNL     1      36.774  39.911  12.082  1.00  0.00     0.046 A 
ENDROOT
BRANCH  11  25
HETATM   25  N2  UNL     1      32.646  38.995  16.482  1.00  0.00    -0.373 N 
ATOM     26  H2  UNL     1      33.105  38.140  16.797  1.00  0.00     0.161 HD
BRANCH  25  27
HETATM   27  C10 UNL     1      31.347  39.325  17.019  1.00  0.00     0.148 C 
BRANCH  27  28
HETATM   28  C11 UNL     1      31.389  40.085  18.308  1.00  0.00     0.251 C 
BRANCH  28  29
HETATM   29  N3  UNL     1      31.210  41.499  18.151  1.00  0.00    -0.072 N 
ATOM     30  H32 UNL     1      31.634  42.000  18.931  1.00  0.00     0.277 HD
ATOM     31  H31 UNL     1      31.786  41.847  17.385  1.00  0.00     0.277 HD
BRANCH  29  32
HETATM   32  C12 UNL     1      29.853  41.906  17.977  1.00  0.00     0.259 C 
BRANCH  32  33
HETATM   33  C13 UNL     1      29.751  42.626  16.629  1.00  0.00     0.257 C 
BRANCH  33  34
HETATM   34  N4  UNL     1      30.038  44.028  16.783  1.00  0.00    -0.078 N 
ATOM     35  H43 UNL     1      30.882  44.300  16.279  1.00  0.00     0.274 HD
ATOM     36  H42 UNL     1      29.367  44.610  16.281  1.00  0.00     0.274 HD
ATOM     37  H41 UNL     1      30.090  44.276  17.771  1.00  0.00     0.274 HD
ENDBRANCH  33  34
ENDBRANCH  32  33
ENDBRANCH  29  32
ENDBRANCH  28  29
ENDBRANCH  27  28
ENDBRANCH  25  27
ENDBRANCH  11  25
TORSDOF 7
ENDMDL
