MODEL 1
REMARK VINA RESULT: -9.493789344      0.000      0.000
REMARK  8 active torsions:
REMARK  status: ('A' for Active; 'I' for Inactive)
REMARK    1  A    between atoms: C1_2  and  C2_3 
REMARK       I    between atoms: C1_2  and  N3_14 
REMARK    2  A    between atoms: C2_3  and  C3_4 
REMARK    3  A    between atoms: C3_4  and  C4_5 
REMARK    4  A    between atoms: N3_14  and  C9_16 
REMARK    5  A    between atoms: C10_21  and  N6_22 
REMARK    6  A    between atoms: N6_22  and  C11_24 
REMARK    7  A    between atoms: C11_24  and  C12_25 
REMARK    8  A    between atoms: C14_27  and  N7_28 
ROOT
HETATM    1  C9  UNL     1      30.872  40.302  16.552  1.00  0.00     0.714 A 
HETATM    2  N4  UNL     1      31.312  39.036  16.613  1.00  0.00    -0.117 N 
ATOM      3  H4  UNL     1      30.786  38.222  16.931  1.00  0.00     0.206 HD
HETATM    4  N5  UNL     1      32.562  39.049  16.182  1.00  0.00    -0.117 N 
ATOM      5  H5  UNL     1      33.165  38.229  16.111  1.00  0.00     0.206 HD
HETATM    6  C10 UNL     1      32.918  40.295  15.851  1.00  0.00     0.708 A 
HETATM    7  N8  UNL     1      31.885  41.098  16.071  1.00  0.00    -0.020 N 
ATOM      8  H8  UNL     1      31.849  42.105  15.914  1.00  0.00     0.203 HD
ENDROOT
BRANCH   1   9
HETATM    9  N3  UNL     1      29.722  40.768  16.855  1.00  0.00    -0.158 N 
HETATM   10  C1  UNL     1      29.433  41.416  18.045  1.00  0.00     0.236 C 
HETATM   11  O1  UNL     1      29.191  42.659  18.036  1.00  0.00    -0.273 OA
ATOM     12  H3  UNL     1      28.968  40.655  16.177  1.00  0.00     0.187 HD
BRANCH  10  13
HETATM   13  C2  UNL     1      29.391  40.699  19.315  1.00  0.00     0.118 C 
BRANCH  13  14
HETATM   14  C3  UNL     1      30.457  41.054  20.328  1.00  0.00    -0.002 A 
HETATM   15  C7  UNL     1      31.488  42.097  20.036  1.00  0.00     0.016 A 
HETATM   16  C8  UNL     1      31.839  40.647  19.863  1.00  0.00     0.016 A 
BRANCH  14  17
HETATM   17  C4  UNL     1      30.126  40.870  21.755  1.00  0.00    -0.015 A 
HETATM   18  C5  UNL     1      30.368  41.841  22.739  1.00  0.00     0.116 A 
HETATM   19  N1  UNL     1      29.959  41.338  23.885  1.00  0.00    -0.312 N 
HETATM   20  N2  UNL     1      29.480  40.132  23.710  1.00  0.00    -0.312 N 
ATOM     21  H1  UNL     1      30.008  41.819  24.783  1.00  0.00     0.186 HD
HETATM   22  C6  UNL     1      29.576  39.821  22.379  1.00  0.00     0.116 A 
ATOM     23  H2  UNL     1      29.101  39.528  24.439  1.00  0.00     0.186 HD
ENDBRANCH  14  17
ENDBRANCH  13  14
ENDBRANCH  10  13
ENDBRANCH   1   9
BRANCH   6  24
HETATM   24  N6  UNL     1      34.053  40.699  15.395  1.00  0.00    -0.218 N 
ATOM     25  H6  UNL     1      34.825  40.892  16.033  1.00  0.00     0.178 HD
BRANCH  24  26
HETATM   26  C11 UNL     1      34.223  40.872  13.990  1.00  0.00     0.203 C 
BRANCH  26  27
HETATM   27  C12 UNL     1      35.303  39.932  13.520  1.00  0.00     0.073 A 
HETATM   28  C13 UNL     1      36.504  40.215  12.981  1.00  0.00     0.072 A 
HETATM   29  C14 UNL     1      37.175  39.050  12.697  1.00  0.00     0.127 A 
HETATM   30  C15 UNL     1      36.281  38.047  13.110  1.00  0.00     0.178 A 
HETATM   31  O4  UNL     1      35.205  38.598  13.580  1.00  0.00    -0.323 OA
BRANCH  29  32
HETATM   32  N7  UNL     1      38.459  38.873  12.116  1.00  0.00    -0.114 N 
HETATM   33  O2  UNL     1      39.231  39.845  12.040  1.00  0.00    -0.532 OA
HETATM   34  O3  UNL     1      38.795  37.623  11.651  1.00  0.00    -0.532 OA
ENDBRANCH  29  32
ENDBRANCH  26  27
ENDBRANCH  24  26
ENDBRANCH   6  24
TORSDOF 8
ENDMDL
MODEL 2
REMARK VINA RESULT: -9.433829060      1.880      2.562
REMARK  8 active torsions:
REMARK  status: ('A' for Active; 'I' for Inactive)
REMARK    1  A    between atoms: C1_2  and  C2_3 
REMARK       I    between atoms: C1_2  and  N3_14 
REMARK    2  A    between atoms: C2_3  and  C3_4 
REMARK    3  A    between atoms: C3_4  and  C4_5 
REMARK    4  A    between atoms: N3_14  and  C9_16 
REMARK    5  A    between atoms: C10_21  and  N6_22 
REMARK    6  A    between atoms: N6_22  and  C11_24 
REMARK    7  A    between atoms: C11_24  and  C12_25 
REMARK    8  A    between atoms: C14_27  and  N7_28 
ROOT
HETATM    1  C9  UNL     1      30.680  40.635  17.774  1.00  0.00     0.714 A 
HETATM    2  N4  UNL     1      30.621  41.828  17.161  1.00  0.00    -0.117 N 
ATOM      3  H4  UNL     1      29.974  42.588  17.370  1.00  0.00     0.206 HD
HETATM    4  N5  UNL     1      31.565  41.826  16.236  1.00  0.00    -0.117 N 
ATOM      5  H5  UNL     1      31.766  42.601  15.604  1.00  0.00     0.206 HD
HETATM    6  C10 UNL     1      32.217  40.658  16.251  1.00  0.00     0.708 A 
HETATM    7  N8  UNL     1      31.688  39.895  17.200  1.00  0.00    -0.020 N 
ATOM      8  H8  UNL     1      31.972  38.949  17.453  1.00  0.00     0.203 HD
ENDROOT
BRANCH   1   9
HETATM    9  N3  UNL     1      29.971  40.192  18.738  1.00  0.00    -0.158 N 
HETATM   10  C1  UNL     1      29.115  40.972  19.499  1.00  0.00     0.236 C 
HETATM   11  O1  UNL     1      27.863  40.812  19.391  1.00  0.00    -0.273 OA
ATOM     12  H3  UNL     1      30.040  39.199  18.964  1.00  0.00     0.187 HD
BRANCH  10  13
HETATM   13  C2  UNL     1      29.620  41.972  20.433  1.00  0.00     0.118 C 
BRANCH  13  14
HETATM   14  C3  UNL     1      30.725  41.530  21.367  1.00  0.00    -0.002 A 
HETATM   15  C7  UNL     1      30.628  40.248  22.130  1.00  0.00     0.016 A 
HETATM   16  C8  UNL     1      30.280  41.539  22.814  1.00  0.00     0.016 A 
BRANCH  14  17
HETATM   17  C4  UNL     1      32.096  41.987  21.062  1.00  0.00    -0.015 A 
HETATM   18  C5  UNL     1      32.599  43.240  21.447  1.00  0.00     0.116 A 
HETATM   19  N1  UNL     1      33.837  43.309  21.003  1.00  0.00    -0.312 N 
HETATM   20  N2  UNL     1      34.159  42.209  20.371  1.00  0.00    -0.312 N 
ATOM     21  H1  UNL     1      34.458  44.107  21.134  1.00  0.00     0.186 HD
HETATM   22  C6  UNL     1      33.078  41.366  20.398  1.00  0.00     0.116 A 
ATOM     23  H2  UNL     1      35.059  42.012  19.934  1.00  0.00     0.186 HD
ENDBRANCH  14  17
ENDBRANCH  13  14
ENDBRANCH  10  13
ENDBRANCH   1   9
BRANCH   6  24
HETATM   24  N6  UNL     1      33.194  40.287  15.497  1.00  0.00    -0.218 N 
ATOM     25  H6  UNL     1      33.528  39.324  15.524  1.00  0.00     0.178 HD
BRANCH  24  26
HETATM   26  C11 UNL     1      33.806  41.236  14.626  1.00  0.00     0.203 C 
BRANCH  26  27
HETATM   27  C12 UNL     1      35.080  40.638  14.090  1.00  0.00     0.073 A 
HETATM   28  C13 UNL     1      35.869  41.069  13.087  1.00  0.00     0.072 A 
HETATM   29  C14 UNL     1      36.936  40.218  12.932  1.00  0.00     0.127 A 
HETATM   30  C15 UNL     1      36.726  39.243  13.922  1.00  0.00     0.178 A 
HETATM   31  O4  UNL     1      35.638  39.520  14.573  1.00  0.00    -0.323 OA
BRANCH  29  32
HETATM   32  N7  UNL     1      38.003  40.279  11.997  1.00  0.00    -0.114 N 
HETATM   33  O2  UNL     1      37.955  41.110  11.073  1.00  0.00    -0.532 OA
HETATM   34  O3  UNL     1      39.053  39.404  12.152  1.00  0.00    -0.532 OA
ENDBRANCH  29  32
ENDBRANCH  26  27
ENDBRANCH  24  26
ENDBRANCH   6  24
TORSDOF 8
ENDMDL
MODEL 3
REMARK VINA RESULT: -9.427866686      1.110      1.486
REMARK  8 active torsions:
REMARK  status: ('A' for Active; 'I' for Inactive)
REMARK    1  A    between atoms: C1_2  and  C2_3 
REMARK       I    between atoms: C1_2  and  N3_14 
REMARK    2  A    between atoms: C2_3  and  C3_4 
REMARK    3  A    between atoms: C3_4  and  C4_5 
REMARK    4  A    between atoms: N3_14  and  C9_16 
REMARK    5  A    between atoms: C10_21  and  N6_22 
REMARK    6  A    between atoms: N6_22  and  C11_24 
REMARK    7  A    between atoms: C11_24  and  C12_25 
REMARK    8  A    between atoms: C14_27  and  N7_28 
ROOT
HETATM    1  C9  UNL     1      31.246  40.820  17.505  1.00  0.00     0.714 A 
HETATM    2  N4  UNL     1      31.142  41.804  16.599  1.00  0.00    -0.117 N 
ATOM      3  H4  UNL     1      30.529  42.618  16.651  1.00  0.00     0.206 HD
HETATM    4  N5  UNL     1      31.987  41.514  15.625  1.00  0.00    -0.117 N 
ATOM      5  H5  UNL     1      32.134  42.080  14.789  1.00  0.00     0.206 HD
HETATM    6  C10 UNL     1      32.621  40.367  15.897  1.00  0.00     0.708 A 
HETATM    7  N8  UNL     1      32.180  39.912  17.063  1.00  0.00    -0.020 N 
ATOM      8  H8  UNL     1      32.475  39.058  17.537  1.00  0.00     0.203 HD
ENDROOT
BRANCH   1   9
HETATM    9  N3  UNL     1      30.632  40.683  18.616  1.00  0.00    -0.158 N 
HETATM   10  C1  UNL     1      30.431  41.707  19.527  1.00  0.00     0.236 C 
HETATM   11  O1  UNL     1      29.263  42.163  19.706  1.00  0.00    -0.273 OA
ATOM     12  H3  UNL     1      30.266  39.759  18.847  1.00  0.00     0.187 HD
BRANCH  10  13
HETATM   13  C2  UNL     1      31.535  42.272  20.296  1.00  0.00     0.118 C 
BRANCH  13  14
HETATM   14  C3  UNL     1      31.946  41.521  21.543  1.00  0.00    -0.002 A 
HETATM   15  C7  UNL     1      33.110  41.967  22.368  1.00  0.00     0.016 A 
HETATM   16  C8  UNL     1      33.294  40.850  21.381  1.00  0.00     0.016 A 
BRANCH  14  17
HETATM   17  C4  UNL     1      30.892  40.788  22.273  1.00  0.00    -0.015 A 
HETATM   18  C5  UNL     1      30.193  41.322  23.367  1.00  0.00     0.116 A 
HETATM   19  N1  UNL     1      29.344  40.398  23.769  1.00  0.00    -0.312 N 
HETATM   20  N2  UNL     1      29.448  39.327  23.023  1.00  0.00    -0.312 N 
ATOM     21  H1  UNL     1      28.698  40.502  24.550  1.00  0.00     0.186 HD
HETATM   22  C6  UNL     1      30.414  39.553  22.078  1.00  0.00     0.116 A 
ATOM     23  H2  UNL     1      28.903  38.471  23.128  1.00  0.00     0.186 HD
ENDBRANCH  14  17
ENDBRANCH  13  14
ENDBRANCH  10  13
ENDBRANCH   1   9
BRANCH   6  24
HETATM   24  N6  UNL     1      33.512  39.768  15.185  1.00  0.00    -0.218 N 
ATOM     25  H6  UNL     1      33.759  38.798  15.380  1.00  0.00     0.178 HD
BRANCH  24  26
HETATM   26  C11 UNL     1      34.150  40.471  14.122  1.00  0.00     0.203 C 
BRANCH  26  27
HETATM   27  C12 UNL     1      35.276  39.621  13.595  1.00  0.00     0.073 A 
HETATM   28  C13 UNL     1      36.445  39.999  13.043  1.00  0.00     0.072 A 
HETATM   29  C14 UNL     1      37.181  38.891  12.702  1.00  0.00     0.127 A 
HETATM   30  C15 UNL     1      36.363  37.818  13.094  1.00  0.00     0.178 A 
HETATM   31  O4  UNL     1      35.265  38.282  13.608  1.00  0.00    -0.323 OA
BRANCH  29  32
HETATM   32  N7  UNL     1      38.459  38.818  12.087  1.00  0.00    -0.114 N 
HETATM   33  O2  UNL     1      39.147  39.850  11.991  1.00  0.00    -0.532 OA
HETATM   34  O3  UNL     1      38.885  37.598  11.616  1.00  0.00    -0.532 OA
ENDBRANCH  29  32
ENDBRANCH  26  27
ENDBRANCH  24  26
ENDBRANCH   6  24
TORSDOF 8
ENDMDL
MODEL 4
REMARK VINA RESULT: -9.394396053      1.271      1.545
REMARK  8 active torsions:
REMARK  status: ('A' for Active; 'I' for Inactive)
REMARK    1  A    between atoms: C1_2  and  C2_3 
REMARK       I    between atoms: C1_2  and  N3_14 
REMARK    2  A    between atoms: C2_3  and  C3_4 
REMARK    3  A    between atoms: C3_4  and  C4_5 
REMARK    4  A    between atoms: N3_14  and  C9_16 
REMARK    5  A    between atoms: C10_21  and  N6_22 
REMARK    6  A    between atoms: N6_22  and  C11_24 
REMARK    7  A    between atoms: C11_24  and  C12_25 
REMARK    8  A    between atoms: C14_27  and  N7_28 
ROOT
HETATM    1  C9  UNL     1      30.918  40.174  17.265  1.00  0.00     0.714 A 
HETATM    2  N4  UNL     1      30.339  40.159  16.055  1.00  0.00    -0.117 N 
ATOM      3  H4  UNL     1      29.347  40.028  15.856  1.00  0.00     0.206 HD
HETATM    4  N5  UNL     1      31.303  40.347  15.171  1.00  0.00    -0.117 N 
ATOM      5  H5  UNL     1      31.172  40.385  14.160  1.00  0.00     0.206 HD
HETATM    6  C10 UNL     1      32.478  40.479  15.798  1.00  0.00     0.708 A 
HETATM    7  N8  UNL     1      32.269  40.377  17.104  1.00  0.00    -0.020 N 
ATOM      8  H8  UNL     1      32.971  40.436  17.842  1.00  0.00     0.203 HD
ENDROOT
BRANCH   1   9
HETATM    9  N3  UNL     1      30.379  40.045  18.415  1.00  0.00    -0.158 N 
HETATM   10  C1  UNL     1      29.777  41.079  19.115  1.00  0.00     0.236 C 
HETATM   11  O1  UNL     1      28.519  41.080  19.267  1.00  0.00    -0.273 OA
ATOM     12  H3  UNL     1      30.393  39.121  18.848  1.00  0.00     0.187 HD
BRANCH  10  13
HETATM   13  C2  UNL     1      30.558  42.169  19.688  1.00  0.00     0.118 C 
BRANCH  13  14
HETATM   14  C3  UNL     1      31.367  41.845  20.925  1.00  0.00    -0.002 A 
HETATM   15  C7  UNL     1      32.473  42.739  21.385  1.00  0.00     0.016 A 
HETATM   16  C8  UNL     1      32.804  41.509  20.590  1.00  0.00     0.016 A 
BRANCH  14  17
HETATM   17  C4  UNL     1      30.702  41.059  21.984  1.00  0.00    -0.015 A 
HETATM   18  C5  UNL     1      30.277  41.607  23.205  1.00  0.00     0.116 A 
HETATM   19  N1  UNL     1      29.741  40.625  23.900  1.00  0.00    -0.312 N 
HETATM   20  N2  UNL     1      29.792  39.505  23.225  1.00  0.00    -0.312 N 
ATOM     21  H1  UNL     1      29.343  40.723  24.834  1.00  0.00     0.186 HD
HETATM   22  C6  UNL     1      30.391  39.758  22.018  1.00  0.00     0.116 A 
ATOM     23  H2  UNL     1      29.445  38.600  23.541  1.00  0.00     0.186 HD
ENDBRANCH  14  17
ENDBRANCH  13  14
ENDBRANCH  10  13
ENDBRANCH   1   9
BRANCH   6  24
HETATM   24  N6  UNL     1      33.638  40.674  15.271  1.00  0.00    -0.218 N 
ATOM     25  H6  UNL     1      34.003  41.620  15.165  1.00  0.00     0.178 HD
BRANCH  24  26
HETATM   26  C11 UNL     1      34.408  39.554  14.838  1.00  0.00     0.203 C 
BRANCH  26  27
HETATM   27  C12 UNL     1      35.414  40.032  13.823  1.00  0.00     0.073 A 
HETATM   28  C13 UNL     1      36.393  39.345  13.204  1.00  0.00     0.072 A 
HETATM   29  C14 UNL     1      37.079  40.175  12.351  1.00  0.00     0.127 A 
HETATM   30  C15 UNL     1      36.433  41.414  12.507  1.00  0.00     0.178 A 
HETATM   31  O4  UNL     1      35.473  41.291  13.370  1.00  0.00    -0.323 OA
BRANCH  29  32
HETATM   32  N7  UNL     1      38.187  39.881  11.512  1.00  0.00    -0.114 N 
HETATM   33  O2  UNL     1      39.335  39.907  11.990  1.00  0.00    -0.532 OA
HETATM   34  O3  UNL     1      37.941  39.582  10.193  1.00  0.00    -0.532 OA
ENDBRANCH  29  32
ENDBRANCH  26  27
ENDBRANCH  24  26
ENDBRANCH   6  24
TORSDOF 8
ENDMDL
MODEL 5
REMARK VINA RESULT: -9.380677091      2.538      9.552
REMARK  8 active torsions:
REMARK  status: ('A' for Active; 'I' for Inactive)
REMARK    1  A    between atoms: C1_2  and  C2_3 
REMARK       I    between atoms: C1_2  and  N3_14 
REMARK    2  A    between atoms: C2_3  and  C3_4 
REMARK    3  A    between atoms: C3_4  and  C4_5 
REMARK    4  A    between atoms: N3_14  and  C9_16 
REMARK    5  A    between atoms: C10_21  and  N6_22 
REMARK    6  A    between atoms: N6_22  and  C11_24 
REMARK    7  A    between atoms: C11_24  and  C12_25 
REMARK    8  A    between atoms: C14_27  and  N7_28 
ROOT
HETATM    1  C9  UNL     1      33.755  39.136  14.784  1.00  0.00     0.714 A 
HETATM    2  N4  UNL     1      33.647  40.474  14.760  1.00  0.00    -0.117 N 
ATOM      3  H4  UNL     1      34.048  41.105  14.067  1.00  0.00     0.206 HD
HETATM    4  N5  UNL     1      32.920  40.813  15.811  1.00  0.00    -0.117 N 
ATOM      5  H5  UNL     1      32.665  41.769  16.061  1.00  0.00     0.206 HD
HETATM    6  C10 UNL     1      32.569  39.720  16.496  1.00  0.00     0.708 A 
HETATM    7  N8  UNL     1      33.075  38.659  15.880  1.00  0.00    -0.020 N 
ATOM      8  H8  UNL     1      32.978  37.684  16.163  1.00  0.00     0.203 HD
ENDROOT
BRANCH   1   9
HETATM    9  N3  UNL     1      34.355  38.364  13.963  1.00  0.00    -0.158 N 
HETATM   10  C1  UNL     1      35.568  37.744  14.219  1.00  0.00     0.236 C 
HETATM   11  O1  UNL     1      35.604  36.489  14.387  1.00  0.00    -0.273 OA
ATOM     12  H3  UNL     1      33.913  38.193  13.059  1.00  0.00     0.187 HD
BRANCH  10  13
HETATM   13  C2  UNL     1      36.811  38.502  14.296  1.00  0.00     0.118 C 
BRANCH  13  14
HETATM   14  C3  UNL     1      37.320  39.101  13.003  1.00  0.00    -0.002 A 
HETATM   15  C7  UNL     1      37.612  38.244  11.813  1.00  0.00     0.016 A 
HETATM   16  C8  UNL     1      38.742  38.677  12.703  1.00  0.00     0.016 A 
BRANCH  14  17
HETATM   17  C4  UNL     1      36.936  40.495  12.704  1.00  0.00    -0.015 A 
HETATM   18  C5  UNL     1      36.735  40.982  11.403  1.00  0.00     0.116 A 
HETATM   19  N1  UNL     1      36.415  42.255  11.513  1.00  0.00    -0.312 N 
HETATM   20  N2  UNL     1      36.397  42.614  12.772  1.00  0.00    -0.312 N 
ATOM     21  H1  UNL     1      36.210  42.874  10.729  1.00  0.00     0.186 HD
HETATM   22  C6  UNL     1      36.721  41.522  13.535  1.00  0.00     0.116 A 
ATOM     23  H2  UNL     1      36.179  43.545  13.125  1.00  0.00     0.186 HD
ENDBRANCH  14  17
ENDBRANCH  13  14
ENDBRANCH  10  13
ENDBRANCH   1   9
BRANCH   6  24
HETATM   24  N6  UNL     1      31.864  39.653  17.573  1.00  0.00    -0.218 N 
ATOM     25  H6  UNL     1      31.780  38.772  18.079  1.00  0.00     0.178 HD
BRANCH  24  26
HETATM   26  C11 UNL     1      31.203  40.823  18.052  1.00  0.00     0.203 C 
BRANCH  26  27
HETATM   27  C12 UNL     1      31.680  41.100  19.454  1.00  0.00     0.073 A 
HETATM   28  C13 UNL     1      30.965  41.416  20.550  1.00  0.00     0.072 A 
HETATM   29  C14 UNL     1      31.805  41.584  21.624  1.00  0.00     0.127 A 
HETATM   30  C15 UNL     1      33.080  41.342  21.085  1.00  0.00     0.178 A 
HETATM   31  O4  UNL     1      32.966  41.065  19.822  1.00  0.00    -0.323 OA
BRANCH  29  32
HETATM   32  N7  UNL     1      31.489  41.930  22.964  1.00  0.00    -0.114 N 
HETATM   33  O2  UNL     1      30.387  41.598  23.435  1.00  0.00    -0.532 OA
HETATM   34  O3  UNL     1      32.424  42.630  23.692  1.00  0.00    -0.532 OA
ENDBRANCH  29  32
ENDBRANCH  26  27
ENDBRANCH  24  26
ENDBRANCH   6  24
TORSDOF 8
ENDMDL
