MODEL 1
REMARK VINA RESULT: -7.290751530      0.000      0.000
REMARK  8 active torsions:
REMARK  status: ('A' for Active; 'I' for Inactive)
REMARK       I    between atoms: N1_2  and  C2_4 
REMARK    1  A    between atoms: C2_4  and  C3_6 
REMARK    2  A    between atoms: C4_10  and  C6_12 
REMARK    3  A    between atoms: C6_12  and  C7_13 
REMARK    4  A    between atoms: C7_13  and  C8_14 
REMARK    5  A    between atoms: C8_14  and  N3_15 
REMARK    6  A    between atoms: N3_15  and  C9_17 
REMARK    7  A    between atoms: C9_17  and  C10_18 
REMARK    8  A    between atoms: C10_18  and  O2_21 
ROOT
HETATM    1  C3  UNL     1      30.238  39.736  17.469  1.00  0.00     0.300 C 
HETATM    2  N2  UNL     1      30.831  40.785  18.273  1.00  0.00    -0.051 N 
ATOM      3  H21 UNL     1      31.019  41.615  17.710  1.00  0.00     0.279 HD
ATOM      4  H22 UNL     1      31.787  40.545  18.539  1.00  0.00     0.279 HD
HETATM    5  C4  UNL     1      30.039  41.119  19.438  1.00  0.00     0.136 C 
HETATM    6  C5  UNL     1      30.385  42.528  19.794  1.00  0.00     0.047 C 
HETATM    7  C13 UNL     1      28.553  41.137  19.098  1.00  0.00     0.179 C 
HETATM    8  S1  UNL     1      28.220  41.405  17.407  1.00  0.00     0.157 S 
HETATM    9  O3  UNL     1      28.327  42.871  17.046  1.00  0.00    -0.227 OA
HETATM   10  O4  UNL     1      26.819  41.001  17.022  1.00  0.00    -0.227 OA
HETATM   11  C14 UNL     1      29.395  40.484  16.446  1.00  0.00     0.094 C 
HETATM   12  C15 UNL     1      28.713  39.590  15.451  1.00  0.00     0.034 C 
HETATM   13  C16 UNL     1      30.280  41.481  15.711  1.00  0.00     0.034 C 
ENDROOT
BRANCH   5  14
HETATM   14  C6  UNL     1      30.213  40.092  20.503  1.00  0.00     0.041 C 
BRANCH  14  15
HETATM   15  C7  UNL     1      29.621  40.279  21.823  1.00  0.00     0.022 C 
BRANCH  15  16
HETATM   16  C8  UNL     1      30.346  41.181  22.807  1.00  0.00     0.119 C 
BRANCH  16  17
HETATM   17  N3  UNL     1      31.774  41.024  22.634  1.00  0.00    -0.399 N 
ATOM     18  H3  UNL     1      32.176  40.105  22.452  1.00  0.00     0.158 HD
BRANCH  17  19
HETATM   19  C9  UNL     1      32.591  42.153  22.721  1.00  0.00     0.092 C 
BRANCH  19  20
HETATM   20  C10 UNL     1      33.705  42.366  21.768  1.00  0.00     0.082 C 
HETATM   21  C11 UNL     1      35.062  42.553  22.368  1.00  0.00     0.051 C 
HETATM   22  C12 UNL     1      33.644  41.301  20.701  1.00  0.00     0.051 C 
BRANCH  20  23
HETATM   23  O2  UNL     1      33.414  43.623  21.129  1.00  0.00    -0.385 OA
ATOM     24  H2  UNL     1      34.254  44.059  21.049  1.00  0.00     0.211 HD
ENDBRANCH  20  23
ENDBRANCH  19  20
ENDBRANCH  17  19
ENDBRANCH  16  17
ENDBRANCH  15  16
ENDBRANCH  14  15
ENDBRANCH   5  14
BRANCH   1  25
HETATM   25  C2  UNL     1      31.360  38.986  16.846  1.00  0.00     0.249 C 
HETATM   26  N1  UNL     1      32.543  39.576  16.339  1.00  0.00    -0.364 N 
HETATM   27  C1  UNL     1      33.619  38.817  15.740  1.00  0.00     0.149 C 
ATOM     28  H1  UNL     1      32.642  40.589  16.399  1.00  0.00     0.161 HD
HETATM   29  O1  UNL     1      31.312  37.712  16.729  1.00  0.00    -0.271 OA
ENDBRANCH   1  25
TORSDOF 8
ENDMDL
MODEL 2
REMARK VINA RESULT: -7.157048889      5.202      8.311
REMARK  8 active torsions:
REMARK  status: ('A' for Active; 'I' for Inactive)
REMARK       I    between atoms: N1_2  and  C2_4 
REMARK    1  A    between atoms: C2_4  and  C3_6 
REMARK    2  A    between atoms: C4_10  and  C6_12 
REMARK    3  A    between atoms: C6_12  and  C7_13 
REMARK    4  A    between atoms: C7_13  and  C8_14 
REMARK    5  A    between atoms: C8_14  and  N3_15 
REMARK    6  A    between atoms: N3_15  and  C9_17 
REMARK    7  A    between atoms: C9_17  and  C10_18 
REMARK    8  A    between atoms: C10_18  and  O2_21 
ROOT
HETATM    1  C3  UNL     1      36.148  38.532  12.852  1.00  0.00     0.300 C 
HETATM    2  N2  UNL     1      36.453  39.597  13.787  1.00  0.00    -0.051 N 
ATOM      3  H21 UNL     1      37.432  39.560  14.073  1.00  0.00     0.279 HD
ATOM      4  H22 UNL     1      36.010  39.427  14.690  1.00  0.00     0.279 HD
HETATM    5  C4  UNL     1      36.110  40.908  13.280  1.00  0.00     0.136 C 
HETATM    6  C5  UNL     1      36.994  41.880  13.992  1.00  0.00     0.047 C 
HETATM    7  C13 UNL     1      36.472  41.034  11.805  1.00  0.00     0.179 C 
HETATM    8  S1  UNL     1      37.719  39.928  11.289  1.00  0.00     0.157 S 
HETATM    9  O3  UNL     1      39.096  40.425  11.675  1.00  0.00    -0.227 OA
HETATM   10  O4  UNL     1      37.762  39.762   9.790  1.00  0.00    -0.227 OA
HETATM   11  C14 UNL     1      37.434  38.354  12.059  1.00  0.00     0.094 C 
HETATM   12  C15 UNL     1      37.375  37.248  11.045  1.00  0.00     0.034 C 
HETATM   13  C16 UNL     1      38.579  38.094  13.028  1.00  0.00     0.034 C 
ENDROOT
BRANCH   5  14
HETATM   14  C6  UNL     1      34.642  41.140  13.373  1.00  0.00     0.041 C 
BRANCH  14  15
HETATM   15  C7  UNL     1      33.991  41.298  14.668  1.00  0.00     0.022 C 
BRANCH  15  16
HETATM   16  C8  UNL     1      33.325  40.079  15.284  1.00  0.00     0.119 C 
BRANCH  16  17
HETATM   17  N3  UNL     1      32.417  40.508  16.325  1.00  0.00    -0.399 N 
ATOM     18  H3  UNL     1      32.626  40.321  17.306  1.00  0.00     0.158 HD
BRANCH  17  19
HETATM   19  C9  UNL     1      31.249  41.183  15.964  1.00  0.00     0.092 C 
BRANCH  19  20
HETATM   20  C10 UNL     1      30.354  41.766  16.990  1.00  0.00     0.082 C 
HETATM   21  C11 UNL     1      29.850  43.148  16.720  1.00  0.00     0.051 C 
HETATM   22  C12 UNL     1      29.270  40.767  17.315  1.00  0.00     0.051 C 
BRANCH  20  23
HETATM   23  O2  UNL     1      31.171  41.901  18.167  1.00  0.00    -0.385 OA
ATOM     24  H2  UNL     1      31.761  42.621  17.976  1.00  0.00     0.211 HD
ENDBRANCH  20  23
ENDBRANCH  19  20
ENDBRANCH  17  19
ENDBRANCH  16  17
ENDBRANCH  15  16
ENDBRANCH  14  15
ENDBRANCH   5  14
BRANCH   1  25
HETATM   25  C2  UNL     1      35.805  37.335  13.661  1.00  0.00     0.249 C 
HETATM   26  N1  UNL     1      35.549  36.046  13.131  1.00  0.00    -0.364 N 
HETATM   27  C1  UNL     1      35.220  34.898  13.947  1.00  0.00     0.149 C 
ATOM     28  H1  UNL     1      35.600  35.922  12.120  1.00  0.00     0.161 HD
HETATM   29  O1  UNL     1      35.716  37.408  14.937  1.00  0.00    -0.271 OA
ENDBRANCH   1  25
TORSDOF 8
ENDMDL
MODEL 3
REMARK VINA RESULT: -7.142563642      5.182      8.549
REMARK  8 active torsions:
REMARK  status: ('A' for Active; 'I' for Inactive)
REMARK       I    between atoms: N1_2  and  C2_4 
REMARK    1  A    between atoms: C2_4  and  C3_6 
REMARK    2  A    between atoms: C4_10  and  C6_12 
REMARK    3  A    between atoms: C6_12  and  C7_13 
REMARK    4  A    between atoms: C7_13  and  C8_14 
REMARK    5  A    between atoms: C8_14  and  N3_15 
REMARK    6  A    between atoms: N3_15  and  C9_17 
REMARK    7  A    between atoms: C9_17  and  C10_18 
REMARK    8  A    between atoms: C10_18  and  O2_21 
ROOT
HETATM    1  C3  UNL     1      36.186  38.519  12.839  1.00  0.00     0.300 C 
HETATM    2  N2  UNL     1      36.499  39.578  13.778  1.00  0.00    -0.051 N 
ATOM      3  H21 UNL     1      37.478  39.536  14.062  1.00  0.00     0.279 HD
ATOM      4  H22 UNL     1      36.056  39.408  14.681  1.00  0.00     0.279 HD
HETATM    5  C4  UNL     1      36.162  40.894  13.277  1.00  0.00     0.136 C 
HETATM    6  C5  UNL     1      37.052  41.858  13.991  1.00  0.00     0.047 C 
HETATM    7  C13 UNL     1      36.522  41.023  11.801  1.00  0.00     0.179 C 
HETATM    8  S1  UNL     1      37.762  39.913  11.279  1.00  0.00     0.157 S 
HETATM    9  O3  UNL     1      39.141  40.401  11.664  1.00  0.00    -0.227 OA
HETATM   10  O4  UNL     1      37.800  39.753   9.779  1.00  0.00    -0.227 OA
HETATM   11  C14 UNL     1      37.470  38.337  12.043  1.00  0.00     0.094 C 
HETATM   12  C15 UNL     1      37.402  37.235  11.025  1.00  0.00     0.034 C 
HETATM   13  C16 UNL     1      38.615  38.068  13.009  1.00  0.00     0.034 C 
ENDROOT
BRANCH   5  14
HETATM   14  C6  UNL     1      34.695  41.132  13.373  1.00  0.00     0.041 C 
BRANCH  14  15
HETATM   15  C7  UNL     1      34.048  41.292  14.670  1.00  0.00     0.022 C 
BRANCH  15  16
HETATM   16  C8  UNL     1      33.401  40.070  15.299  1.00  0.00     0.119 C 
BRANCH  16  17
HETATM   17  N3  UNL     1      32.423  40.498  16.275  1.00  0.00    -0.399 N 
ATOM     18  H3  UNL     1      32.614  40.410  17.274  1.00  0.00     0.158 HD
BRANCH  17  19
HETATM   19  C9  UNL     1      31.214  41.034  15.828  1.00  0.00     0.092 C 
BRANCH  19  20
HETATM   20  C10 UNL     1      29.926  40.358  16.111  1.00  0.00     0.082 C 
HETATM   21  C11 UNL     1      29.266  40.709  17.406  1.00  0.00     0.051 C 
HETATM   22  C12 UNL     1      29.030  40.494  14.905  1.00  0.00     0.051 C 
BRANCH  20  23
HETATM   23  O2  UNL     1      30.256  38.963  16.237  1.00  0.00    -0.385 OA
ATOM     24  H2  UNL     1      29.765  38.661  16.993  1.00  0.00     0.211 HD
ENDBRANCH  20  23
ENDBRANCH  19  20
ENDBRANCH  17  19
ENDBRANCH  16  17
ENDBRANCH  15  16
ENDBRANCH  14  15
ENDBRANCH   5  14
BRANCH   1  25
HETATM   25  C2  UNL     1      35.838  37.320  13.645  1.00  0.00     0.249 C 
HETATM   26  N1  UNL     1      35.564  36.038  13.109  1.00  0.00    -0.364 N 
HETATM   27  C1  UNL     1      35.230  34.889  13.921  1.00  0.00     0.149 C 
ATOM     28  H1  UNL     1      35.604  35.919  12.097  1.00  0.00     0.161 HD
HETATM   29  O1  UNL     1      35.763  37.387  14.921  1.00  0.00    -0.271 OA
ENDBRANCH   1  25
TORSDOF 8
ENDMDL
MODEL 4
REMARK VINA RESULT: -7.103451697      2.064      3.607
REMARK  8 active torsions:
REMARK  status: ('A' for Active; 'I' for Inactive)
REMARK       I    between atoms: N1_2  and  C2_4 
REMARK    1  A    between atoms: C2_4  and  C3_6 
REMARK    2  A    between atoms: C4_10  and  C6_12 
REMARK    3  A    between atoms: C6_12  and  C7_13 
REMARK    4  A    between atoms: C7_13  and  C8_14 
REMARK    5  A    between atoms: C8_14  and  N3_15 
REMARK    6  A    between atoms: N3_15  and  C9_17 
REMARK    7  A    between atoms: C9_17  and  C10_18 
REMARK    8  A    between atoms: C10_18  and  O2_21 
ROOT
HETATM    1  C3  UNL     1      30.172  42.083  17.354  1.00  0.00     0.300 C 
HETATM    2  N2  UNL     1      29.318  41.482  18.359  1.00  0.00    -0.051 N 
ATOM      3  H21 UNL     1      28.802  40.691  17.973  1.00  0.00     0.279 HD
ATOM      4  H22 UNL     1      28.536  42.095  18.587  1.00  0.00     0.279 HD
HETATM    5  C4  UNL     1      30.039  41.097  19.554  1.00  0.00     0.136 C 
HETATM    6  C5  UNL     1      29.250  39.997  20.186  1.00  0.00     0.047 C 
HETATM    7  C13 UNL     1      31.388  40.481  19.201  1.00  0.00     0.179 C 
HETATM    8  S1  UNL     1      31.458  39.814  17.591  1.00  0.00     0.157 S 
HETATM    9  O3  UNL     1      30.811  38.447  17.528  1.00  0.00    -0.227 OA
HETATM   10  O4  UNL     1      32.873  39.606  17.112  1.00  0.00    -0.227 OA
HETATM   11  C14 UNL     1      30.606  40.910  16.486  1.00  0.00     0.094 C 
HETATM   12  C15 UNL     1      31.471  41.303  15.323  1.00  0.00     0.034 C 
HETATM   13  C16 UNL     1      29.366  40.188  15.976  1.00  0.00     0.034 C 
ENDROOT
BRANCH   5  14
HETATM   14  C6  UNL     1      30.330  42.289  20.398  1.00  0.00     0.041 C 
BRANCH  14  15
HETATM   15  C7  UNL     1      31.597  42.407  21.111  1.00  0.00     0.022 C 
BRANCH  15  16
HETATM   16  C8  UNL     1      31.595  42.170  22.611  1.00  0.00     0.119 C 
BRANCH  16  17
HETATM   17  N3  UNL     1      32.947  41.903  23.053  1.00  0.00    -0.399 N 
ATOM     18  H3  UNL     1      33.125  41.238  23.806  1.00  0.00     0.158 HD
BRANCH  17  19
HETATM   19  C9  UNL     1      34.003  42.571  22.431  1.00  0.00     0.092 C 
BRANCH  19  20
HETATM   20  C10 UNL     1      35.112  41.824  21.793  1.00  0.00     0.082 C 
HETATM   21  C11 UNL     1      36.493  42.180  22.242  1.00  0.00     0.051 C 
HETATM   22  C12 UNL     1      34.804  40.348  21.855  1.00  0.00     0.051 C 
BRANCH  20  23
HETATM   23  O2  UNL     1      35.071  42.206  20.406  1.00  0.00    -0.385 OA
ATOM     24  H2  UNL     1      35.533  41.515  19.946  1.00  0.00     0.211 HD
ENDBRANCH  20  23
ENDBRANCH  19  20
ENDBRANCH  17  19
ENDBRANCH  16  17
ENDBRANCH  15  16
ENDBRANCH  14  15
ENDBRANCH   5  14
BRANCH   1  25
HETATM   25  C2  UNL     1      29.338  43.064  16.613  1.00  0.00     0.249 C 
HETATM   26  N1  UNL     1      28.106  42.764  15.981  1.00  0.00    -0.364 N 
HETATM   27  C1  UNL     1      27.315  43.744  15.269  1.00  0.00     0.149 C 
ATOM     28  H1  UNL     1      27.758  41.807  16.032  1.00  0.00     0.161 HD
HETATM   29  O1  UNL     1      29.706  44.285  16.501  1.00  0.00    -0.271 OA
ENDBRANCH   1  25
TORSDOF 8
ENDMDL
MODEL 5
REMARK VINA RESULT: -6.978245426      2.275      3.542
REMARK  8 active torsions:
REMARK  status: ('A' for Active; 'I' for Inactive)
REMARK       I    between atoms: N1_2  and  C2_4 
REMARK    1  A    between atoms: C2_4  and  C3_6 
REMARK    2  A    between atoms: C4_10  and  C6_12 
REMARK    3  A    between atoms: C6_12  and  C7_13 
REMARK    4  A    between atoms: C7_13  and  C8_14 
REMARK    5  A    between atoms: C8_14  and  N3_15 
REMARK    6  A    between atoms: N3_15  and  C9_17 
REMARK    7  A    between atoms: C9_17  and  C10_18 
REMARK    8  A    between atoms: C10_18  and  O2_21 
ROOT
HETATM    1  C3  UNL     1      27.784  41.504  17.324  1.00  0.00     0.300 C 
HETATM    2  N2  UNL     1      28.814  40.576  17.748  1.00  0.00    -0.051 N 
ATOM      3  H21 UNL     1      29.339  40.224  16.947  1.00  0.00     0.279 HD
ATOM      4  H22 UNL     1      28.404  39.701  18.075  1.00  0.00     0.279 HD
HETATM    5  C4  UNL     1      29.701  41.136  18.745  1.00  0.00     0.136 C 
HETATM    6  C5  UNL     1      30.991  40.390  18.628  1.00  0.00     0.047 C 
HETATM    7  C13 UNL     1      30.039  42.587  18.420  1.00  0.00     0.179 C 
HETATM    8  S1  UNL     1      29.857  42.991  16.733  1.00  0.00     0.157 S 
HETATM    9  O3  UNL     1      31.045  42.526  15.920  1.00  0.00    -0.227 OA
HETATM   10  O4  UNL     1      29.773  44.479  16.501  1.00  0.00    -0.227 OA
HETATM   11  C14 UNL     1      28.389  42.205  16.117  1.00  0.00     0.094 C 
HETATM   12  C15 UNL     1      27.468  43.193  15.463  1.00  0.00     0.034 C 
HETATM   13  C16 UNL     1      28.815  41.155  15.099  1.00  0.00     0.034 C 
ENDROOT
BRANCH   5  14
HETATM   14  C6  UNL     1      29.048  41.147  20.083  1.00  0.00     0.041 C 
BRANCH  14  15
HETATM   15  C7  UNL     1      29.671  41.829  21.212  1.00  0.00     0.022 C 
BRANCH  15  16
HETATM   16  C8  UNL     1      30.045  40.997  22.427  1.00  0.00     0.119 C 
BRANCH  16  17
HETATM   17  N3  UNL     1      31.428  41.250  22.769  1.00  0.00    -0.399 N 
ATOM     18  H3  UNL     1      31.682  41.565  23.705  1.00  0.00     0.158 HD
BRANCH  17  19
HETATM   19  C9  UNL     1      32.409  41.057  21.794  1.00  0.00     0.092 C 
BRANCH  19  20
HETATM   20  C10 UNL     1      33.411  42.107  21.499  1.00  0.00     0.082 C 
HETATM   21  C11 UNL     1      32.951  43.522  21.649  1.00  0.00     0.051 C 
HETATM   22  C12 UNL     1      34.684  41.790  22.245  1.00  0.00     0.051 C 
BRANCH  20  23
HETATM   23  O2  UNL     1      33.698  41.966  20.095  1.00  0.00    -0.385 OA
ATOM     24  H2  UNL     1      32.849  41.976  19.668  1.00  0.00     0.211 HD
ENDBRANCH  20  23
ENDBRANCH  19  20
ENDBRANCH  17  19
ENDBRANCH  16  17
ENDBRANCH  15  16
ENDBRANCH  14  15
ENDBRANCH   5  14
BRANCH   1  25
HETATM   25  C2  UNL     1      26.591  40.690  16.974  1.00  0.00     0.249 C 
HETATM   26  N1  UNL     1      25.538  40.373  17.867  1.00  0.00    -0.364 N 
HETATM   27  C1  UNL     1      24.387  39.580  17.494  1.00  0.00     0.149 C 
ATOM     28  H1  UNL     1      25.593  40.724  18.823  1.00  0.00     0.161 HD
HETATM   29  O1  UNL     1      26.447  40.210  15.796  1.00  0.00    -0.271 OA
ENDBRANCH   1  25
TORSDOF 8
ENDMDL
