MODEL 1
REMARK VINA RESULT: -5.746089808      0.000      0.000
REMARK  4 active torsions:
REMARK  status: ('A' for Active; 'I' for Inactive)
REMARK    1  A    between atoms: C2_2  and  N1_3 
REMARK    2  A    between atoms: C2_2  and  C3_7 
REMARK       I    between atoms: C3_7  and  N2_9 
REMARK    3  A    between atoms: N2_9  and  N3_11 
REMARK       I    between atoms: N3_11  and  C4_13 
REMARK       I    between atoms: C4_13  and  N5_17 
REMARK    4  A    between atoms: N5_17  and  N6_19 
ROOT
HETATM    1  N3  UNL     1      -1.611   9.173   8.436  1.00  0.00    -0.129 N 
ATOM      2  H3  UNL     1      -2.201   8.762   7.711  1.00  0.00     0.205 HD
HETATM    3  C4  UNL     1      -1.671  10.571   8.608  1.00  0.00     0.704 C 
HETATM    4  N4  UNL     1      -2.703  11.071   9.173  1.00  0.00    -0.232 N 
ATOM      5  H41 UNL     1      -2.746  12.083   9.297  1.00  0.00     0.174 HD
ATOM      6  H42 UNL     1      -3.443  10.433   9.465  1.00  0.00     0.174 HD
HETATM    7  N5  UNL     1      -0.642  11.458   8.203  1.00  0.00    -0.138 N 
ATOM      8  H5  UNL     1      -0.090  11.225   7.377  1.00  0.00     0.205 HD
ENDROOT
BRANCH   1   9
HETATM    9  N2  UNL     1      -0.812   8.308   9.176  1.00  0.00    -0.254 N 
HETATM   10  C3  UNL     1      -1.155   8.024  10.529  1.00  0.00     0.266 C 
HETATM   11  O1  UNL     1      -2.178   8.550  11.077  1.00  0.00    -0.269 OA
ATOM     12  H2  UNL     1       0.012   7.881   8.753  1.00  0.00     0.190 HD
BRANCH  10  13
HETATM   13  C2  UNL     1      -0.302   7.097  11.335  1.00  0.00     0.272 C 
HETATM   14  C1  UNL     1      -1.038   6.863  12.650  1.00  0.00     0.050 C 
BRANCH  13  15
HETATM   15  N1  UNL     1       0.983   7.747  11.653  1.00  0.00    -0.067 N 
ATOM     16  H13 UNL     1       0.910   8.416  12.419  1.00  0.00     0.275 HD
ATOM     17  H12 UNL     1       1.651   7.113  12.091  1.00  0.00     0.275 HD
ATOM     18  H11 UNL     1       1.338   8.166  10.793  1.00  0.00     0.275 HD
ENDBRANCH  13  15
ENDBRANCH  10  13
ENDBRANCH   1   9
BRANCH   7  19
HETATM   19  N6  UNL     1      -0.355  12.640   8.892  1.00  0.00    -0.331 N 
ATOM     20  H62 UNL     1      -0.032  12.561   9.856  1.00  0.00     0.177 HD
ATOM     21  H61 UNL     1      -0.459  13.561   8.466  1.00  0.00     0.177 HD
ENDBRANCH   7  19
TORSDOF 4
ENDMDL
MODEL 2
REMARK VINA RESULT: -5.679969727      2.272      5.011
REMARK  4 active torsions:
REMARK  status: ('A' for Active; 'I' for Inactive)
REMARK    1  A    between atoms: C2_2  and  N1_3 
REMARK    2  A    between atoms: C2_2  and  C3_7 
REMARK       I    between atoms: C3_7  and  N2_9 
REMARK    3  A    between atoms: N2_9  and  N3_11 
REMARK       I    between atoms: N3_11  and  C4_13 
REMARK       I    between atoms: C4_13  and  N5_17 
REMARK    4  A    between atoms: N5_17  and  N6_19 
ROOT
HETATM    1  N3  UNL     1      -1.463   9.606  12.108  1.00  0.00    -0.129 N 
ATOM      2  H3  UNL     1      -2.154  10.291  12.414  1.00  0.00     0.205 HD
HETATM    3  C4  UNL     1      -1.319   8.437  12.883  1.00  0.00     0.704 C 
HETATM    4  N4  UNL     1      -2.230   7.542  12.810  1.00  0.00    -0.232 N 
ATOM      5  H41 UNL     1      -2.126   6.697  13.372  1.00  0.00     0.174 HD
ATOM      6  H42 UNL     1      -3.027   7.721  12.200  1.00  0.00     0.174 HD
HETATM    7  N5  UNL     1      -0.211   8.187  13.732  1.00  0.00    -0.138 N 
ATOM      8  H5  UNL     1       0.242   8.977  14.191  1.00  0.00     0.205 HD
ENDROOT
BRANCH   1   9
HETATM    9  N2  UNL     1      -0.738   9.899  10.958  1.00  0.00    -0.254 N 
HETATM   10  C3  UNL     1      -1.429  10.289   9.775  1.00  0.00     0.266 C 
HETATM   11  O1  UNL     1      -2.701  10.370   9.748  1.00  0.00    -0.269 OA
ATOM     12  H2  UNL     1       0.280   9.836  10.963  1.00  0.00     0.190 HD
BRANCH  10  13
HETATM   13  C2  UNL     1      -0.659  10.605   8.533  1.00  0.00     0.272 C 
HETATM   14  C1  UNL     1      -0.299  12.085   8.611  1.00  0.00     0.050 C 
BRANCH  13  15
HETATM   15  N1  UNL     1      -1.518  10.417   7.349  1.00  0.00    -0.067 N 
ATOM     16  H13 UNL     1      -1.366  11.127   6.632  1.00  0.00     0.275 HD
ATOM     17  H12 UNL     1      -1.255   9.605   6.792  1.00  0.00     0.275 HD
ATOM     18  H11 UNL     1      -2.485  10.381   7.673  1.00  0.00     0.275 HD
ENDBRANCH  13  15
ENDBRANCH  10  13
ENDBRANCH   1   9
BRANCH   7  19
HETATM   19  N6  UNL     1       0.283   6.900  13.961  1.00  0.00    -0.331 N 
ATOM     20  H62 UNL     1       1.010   6.552  13.336  1.00  0.00     0.177 HD
ATOM     21  H61 UNL     1      -0.056   6.311  14.721  1.00  0.00     0.177 HD
ENDBRANCH   7  19
TORSDOF 4
ENDMDL
MODEL 3
REMARK VINA RESULT: -5.662169155      1.515      2.217
REMARK  4 active torsions:
REMARK  status: ('A' for Active; 'I' for Inactive)
REMARK    1  A    between atoms: C2_2  and  N1_3 
REMARK    2  A    between atoms: C2_2  and  C3_7 
REMARK       I    between atoms: C3_7  and  N2_9 
REMARK    3  A    between atoms: N2_9  and  N3_11 
REMARK       I    between atoms: N3_11  and  C4_13 
REMARK       I    between atoms: C4_13  and  N5_17 
REMARK    4  A    between atoms: N5_17  and  N6_19 
ROOT
HETATM    1  N3  UNL     1      -1.329  10.616  10.884  1.00  0.00    -0.129 N 
ATOM      2  H3  UNL     1      -1.458  11.382  11.545  1.00  0.00     0.205 HD
HETATM    3  C4  UNL     1      -2.012  10.697   9.652  1.00  0.00     0.704 C 
HETATM    4  N4  UNL     1      -1.583  11.521   8.772  1.00  0.00    -0.232 N 
ATOM      5  H41 UNL     1      -2.077  11.581   7.882  1.00  0.00     0.174 HD
ATOM      6  H42 UNL     1      -0.770  12.090   9.008  1.00  0.00     0.174 HD
HETATM    7  N5  UNL     1      -3.141   9.906   9.325  1.00  0.00    -0.138 N 
ATOM      8  H5  UNL     1      -3.783   9.636  10.070  1.00  0.00     0.205 HD
ENDROOT
BRANCH   1   9
HETATM    9  N2  UNL     1      -0.493   9.573  11.268  1.00  0.00    -0.254 N 
HETATM   10  C3  UNL     1      -1.054   8.420  11.891  1.00  0.00     0.266 C 
HETATM   11  O1  UNL     1      -2.307   8.328  12.106  1.00  0.00    -0.269 OA
ATOM     12  H2  UNL     1       0.512   9.632  11.106  1.00  0.00     0.190 HD
BRANCH  10  13
HETATM   13  C2  UNL     1      -0.165   7.293  12.309  1.00  0.00     0.272 C 
HETATM   14  C1  UNL     1       0.008   7.415  13.820  1.00  0.00     0.050 C 
BRANCH  13  15
HETATM   15  N1  UNL     1       1.166   7.451  11.695  1.00  0.00    -0.067 N 
ATOM     16  H13 UNL     1       1.253   8.310  11.151  1.00  0.00     0.275 HD
ATOM     17  H12 UNL     1       1.898   7.648  12.377  1.00  0.00     0.275 HD
ATOM     18  H11 UNL     1       1.353   6.612  11.144  1.00  0.00     0.275 HD
ENDBRANCH  13  15
ENDBRANCH  10  13
ENDBRANCH   1   9
BRANCH   7  19
HETATM   19  N6  UNL     1      -3.408   9.483   8.020  1.00  0.00    -0.331 N 
ATOM     20  H62 UNL     1      -3.501   8.480   7.856  1.00  0.00     0.177 HD
ATOM     21  H61 UNL     1      -3.509  10.135   7.243  1.00  0.00     0.177 HD
ENDBRANCH   7  19
TORSDOF 4
ENDMDL
MODEL 4
REMARK VINA RESULT: -5.608608526      2.724      5.120
REMARK  4 active torsions:
REMARK  status: ('A' for Active; 'I' for Inactive)
REMARK    1  A    between atoms: C2_2  and  N1_3 
REMARK    2  A    between atoms: C2_2  and  C3_7 
REMARK       I    between atoms: C3_7  and  N2_9 
REMARK    3  A    between atoms: N2_9  and  N3_11 
REMARK       I    between atoms: N3_11  and  C4_13 
REMARK       I    between atoms: C4_13  and  N5_17 
REMARK    4  A    between atoms: N5_17  and  N6_19 
ROOT
HETATM    1  N3  UNL     1      -1.105   9.091  11.987  1.00  0.00    -0.129 N 
ATOM      2  H3  UNL     1      -0.119   9.355  11.966  1.00  0.00     0.205 HD
HETATM    3  C4  UNL     1      -1.574   8.423  13.137  1.00  0.00     0.704 C 
HETATM    4  N4  UNL     1      -1.738   9.099  14.210  1.00  0.00    -0.232 N 
ATOM      5  H41 UNL     1      -2.077   8.616  15.042  1.00  0.00     0.174 HD
ATOM      6  H42 UNL     1      -1.512  10.093  14.186  1.00  0.00     0.174 HD
HETATM    7  N5  UNL     1      -1.890   7.041  13.170  1.00  0.00    -0.138 N 
ATOM      8  H5  UNL     1      -1.357   6.402  12.580  1.00  0.00     0.205 HD
ENDROOT
BRANCH   1   9
HETATM    9  N2  UNL     1      -1.879   9.418  10.880  1.00  0.00    -0.254 N 
HETATM   10  C3  UNL     1      -1.374  10.344   9.922  1.00  0.00     0.266 C 
HETATM   11  O1  UNL     1      -0.227  10.882  10.062  1.00  0.00    -0.269 OA
ATOM     12  H2  UNL     1      -2.800   8.999  10.754  1.00  0.00     0.190 HD
BRANCH  10  13
HETATM   13  C2  UNL     1      -2.199  10.704   8.727  1.00  0.00     0.272 C 
HETATM   14  C1  UNL     1      -3.397   9.760   8.727  1.00  0.00     0.050 C 
BRANCH  13  15
HETATM   15  N1  UNL     1      -1.432  10.451   7.494  1.00  0.00    -0.067 N 
ATOM     16  H13 UNL     1      -1.747   9.620   6.994  1.00  0.00     0.275 HD
ATOM     17  H12 UNL     1      -1.625  11.131   6.759  1.00  0.00     0.275 HD
ATOM     18  H11 UNL     1      -0.444  10.410   7.748  1.00  0.00     0.275 HD
ENDBRANCH  13  15
ENDBRANCH  10  13
ENDBRANCH   1   9
BRANCH   7  19
HETATM   19  N6  UNL     1      -2.903   6.522  13.980  1.00  0.00    -0.331 N 
ATOM     20  H62 UNL     1      -3.166   7.053  14.810  1.00  0.00     0.177 HD
ATOM     21  H61 UNL     1      -3.378   5.645  13.769  1.00  0.00     0.177 HD
ENDBRANCH   7  19
TORSDOF 4
ENDMDL
MODEL 5
REMARK VINA RESULT: -5.574604830      0.926      1.192
REMARK  4 active torsions:
REMARK  status: ('A' for Active; 'I' for Inactive)
REMARK    1  A    between atoms: C2_2  and  N1_3 
REMARK    2  A    between atoms: C2_2  and  C3_7 
REMARK       I    between atoms: C3_7  and  N2_9 
REMARK    3  A    between atoms: N2_9  and  N3_11 
REMARK       I    between atoms: N3_11  and  C4_13 
REMARK       I    between atoms: C4_13  and  N5_17 
REMARK    4  A    between atoms: N5_17  and  N6_19 
ROOT
HETATM    1  N3  UNL     1      -1.549   9.145   8.477  1.00  0.00    -0.129 N 
ATOM      2  H3  UNL     1      -2.123   8.702   7.759  1.00  0.00     0.205 HD
HETATM    3  C4  UNL     1      -1.653  10.545   8.619  1.00  0.00     0.704 C 
HETATM    4  N4  UNL     1      -2.703  11.024   9.170  1.00  0.00    -0.232 N 
ATOM      5  H41 UNL     1      -2.778  12.036   9.273  1.00  0.00     0.174 HD
ATOM      6  H42 UNL     1      -3.423  10.369   9.473  1.00  0.00     0.174 HD
HETATM    7  N5  UNL     1      -0.651  11.455   8.198  1.00  0.00    -0.138 N 
ATOM      8  H5  UNL     1      -0.089  11.222   7.380  1.00  0.00     0.205 HD
ENDROOT
BRANCH   1   9
HETATM    9  N2  UNL     1      -0.726   8.322   9.238  1.00  0.00    -0.254 N 
HETATM   10  C3  UNL     1      -1.072   8.045  10.592  1.00  0.00     0.266 C 
HETATM   11  O1  UNL     1      -2.121   8.540  11.121  1.00  0.00    -0.269 OA
ATOM     12  H2  UNL     1       0.118   7.921   8.830  1.00  0.00     0.190 HD
BRANCH  10  13
HETATM   13  C2  UNL     1      -0.194   7.162  11.420  1.00  0.00     0.272 C 
HETATM   14  C1  UNL     1       1.077   6.933  10.609  1.00  0.00     0.050 C 
BRANCH  13  15
HETATM   15  N1  UNL     1      -0.841   5.852  11.614  1.00  0.00    -0.067 N 
ATOM     16  H13 UNL     1      -0.326   5.245  12.252  1.00  0.00     0.275 HD
ATOM     17  H12 UNL     1      -1.705   5.911  12.152  1.00  0.00     0.275 HD
ATOM     18  H11 UNL     1      -0.975   5.435  10.692  1.00  0.00     0.275 HD
ENDBRANCH  13  15
ENDBRANCH  10  13
ENDBRANCH   1   9
BRANCH   7  19
HETATM   19  N6  UNL     1      -0.404  12.659   8.863  1.00  0.00    -0.331 N 
ATOM     20  H62 UNL     1      -0.178  12.616   9.857  1.00  0.00     0.177 HD
ATOM     21  H61 UNL     1      -0.443  13.563   8.392  1.00  0.00     0.177 HD
ENDBRANCH   7  19
TORSDOF 4
ENDMDL
