MODEL 1
REMARK VINA RESULT: -5.967679761      0.000      0.000
REMARK  3 active torsions:
REMARK  status: ('A' for Active; 'I' for Inactive)
REMARK    1  A    between atoms: N1_1  and  O1_4 
REMARK    2  A    between atoms: O1_4  and  C1_5 
REMARK       I    between atoms: C1_5  and  N2_7 
REMARK       I    between atoms: C2_9  and  N4_11 
REMARK    3  A    between atoms: N4_11  and  N5_13 
ROOT
HETATM    1  C1  UNL     1      -0.267   7.008  10.140  1.00  0.00     0.388 C 
HETATM    2  O2  UNL     1      -0.768   6.199  10.966  1.00  0.00    -0.236 OA
HETATM    3  N2  UNL     1      -0.679   8.360  10.097  1.00  0.00    -0.274 N 
ATOM      4  H2  UNL     1      -0.672   8.829   9.191  1.00  0.00     0.173 HD
HETATM    5  C2  UNL     1      -1.058   9.035  11.106  1.00  0.00     0.211 C 
HETATM    6  N3  UNL     1      -1.076   8.407  12.381  1.00  0.00    -0.062 NA
HETATM    7  N4  UNL     1      -1.468  10.392  11.042  1.00  0.00    -0.271 N 
ATOM      8  H4  UNL     1      -2.320  10.706  11.508  1.00  0.00     0.189 HD
ENDROOT
BRANCH   7   9
HETATM    9  N5  UNL     1      -0.678  11.276  10.328  1.00  0.00    -0.274 N 
HETATM   10  C3  UNL     1      -0.832  11.547   9.081  1.00  0.00     0.215 C 
HETATM   11  N6  UNL     1      -1.854  10.942   8.322  1.00  0.00    -0.065 NA
HETATM   12  N7  UNL     1       0.058  12.475   8.488  1.00  0.00    -0.065 NA
ATOM     13  H5  UNL     1       0.078  11.745  10.827  1.00  0.00     0.189 HD
ENDBRANCH   7   9
BRANCH   1  14
HETATM   14  O1  UNL     1       0.702   6.543   9.269  1.00  0.00    -0.188 OA
BRANCH  14  15
HETATM   15  N1  UNL     1       0.429   5.750   8.182  1.00  0.00    -0.301 N 
ATOM     16  H12 UNL     1       0.843   6.024   7.291  1.00  0.00     0.184 HD
ATOM     17  H11 UNL     1      -0.156   4.916   8.224  1.00  0.00     0.184 HD
ENDBRANCH  14  15
ENDBRANCH   1  14
TORSDOF 3
ENDMDL
MODEL 2
REMARK VINA RESULT: -5.884215285      1.901      2.684
REMARK  3 active torsions:
REMARK  status: ('A' for Active; 'I' for Inactive)
REMARK    1  A    between atoms: N1_1  and  O1_4 
REMARK    2  A    between atoms: O1_4  and  C1_5 
REMARK       I    between atoms: C1_5  and  N2_7 
REMARK       I    between atoms: C2_9  and  N4_11 
REMARK    3  A    between atoms: N4_11  and  N5_13 
ROOT
HETATM    1  C1  UNL     1       0.674   4.911   8.514  1.00  0.00     0.388 C 
HETATM    2  O2  UNL     1       1.165   4.279   9.489  1.00  0.00    -0.236 OA
HETATM    3  N2  UNL     1      -0.086   6.087   8.713  1.00  0.00    -0.274 N 
ATOM      4  H2  UNL     1      -0.843   6.278   8.056  1.00  0.00     0.173 HD
HETATM    5  C2  UNL     1       0.105   6.924   9.651  1.00  0.00     0.211 C 
HETATM    6  N3  UNL     1       1.153   6.684  10.579  1.00  0.00    -0.062 NA
HETATM    7  N4  UNL     1      -0.670   8.099   9.833  1.00  0.00    -0.271 N 
ATOM      8  H4  UNL     1      -1.033   8.351  10.753  1.00  0.00     0.189 HD
ENDROOT
BRANCH   7   9
HETATM    9  N5  UNL     1      -0.919   8.891   8.726  1.00  0.00    -0.274 N 
HETATM   10  C3  UNL     1      -0.638  10.143   8.649  1.00  0.00     0.215 C 
HETATM   11  N6  UNL     1      -0.034  10.825   9.725  1.00  0.00    -0.065 NA
HETATM   12  N7  UNL     1      -0.953  10.822   7.447  1.00  0.00    -0.065 NA
ATOM     13  H5  UNL     1      -1.354   8.451   7.916  1.00  0.00     0.189 HD
ENDBRANCH   7   9
BRANCH   1  14
HETATM   14  O1  UNL     1       0.896   4.428   7.238  1.00  0.00    -0.188 OA
BRANCH  14  15
HETATM   15  N1  UNL     1      -0.053   4.437   6.246  1.00  0.00    -0.301 N 
ATOM     16  H12 UNL     1      -0.495   5.331   6.034  1.00  0.00     0.184 HD
ATOM     17  H11 UNL     1      -0.330   3.608   5.722  1.00  0.00     0.184 HD
ENDBRANCH  14  15
ENDBRANCH   1  14
TORSDOF 3
ENDMDL
MODEL 3
REMARK VINA RESULT: -5.879107890      1.745      1.751
REMARK  3 active torsions:
REMARK  status: ('A' for Active; 'I' for Inactive)
REMARK    1  A    between atoms: N1_1  and  O1_4 
REMARK    2  A    between atoms: O1_4  and  C1_5 
REMARK       I    between atoms: C1_5  and  N2_7 
REMARK       I    between atoms: C2_9  and  N4_11 
REMARK    3  A    between atoms: N4_11  and  N5_13 
ROOT
HETATM    1  C1  UNL     1       0.126   6.987  11.666  1.00  0.00     0.388 C 
HETATM    2  O2  UNL     1      -0.724   6.157  12.089  1.00  0.00    -0.236 OA
HETATM    3  N2  UNL     1      -0.271   8.248  11.163  1.00  0.00    -0.274 N 
ATOM      4  H2  UNL     1       0.289   8.657  10.415  1.00  0.00     0.173 HD
HETATM    5  C2  UNL     1      -1.276   8.909  11.576  1.00  0.00     0.211 C 
HETATM    6  N3  UNL     1      -2.073   8.364  12.618  1.00  0.00    -0.062 NA
HETATM    7  N4  UNL     1      -1.658  10.174  11.057  1.00  0.00    -0.271 N 
ATOM      8  H4  UNL     1      -2.628  10.371  10.813  1.00  0.00     0.189 HD
ENDROOT
BRANCH   7   9
HETATM    9  N5  UNL     1      -0.673  11.133  10.893  1.00  0.00    -0.274 N 
HETATM   10  C3  UNL     1       0.047  11.264   9.836  1.00  0.00     0.215 C 
HETATM   11  N6  UNL     1      -0.121  10.411   8.727  1.00  0.00    -0.065 NA
HETATM   12  N7  UNL     1       1.018  12.295   9.817  1.00  0.00    -0.065 NA
ATOM     13  H5  UNL     1      -0.507  11.780  11.664  1.00  0.00     0.189 HD
ENDBRANCH   7   9
BRANCH   1  14
HETATM   14  O1  UNL     1       1.463   6.638  11.704  1.00  0.00    -0.188 OA
BRANCH  14  15
HETATM   15  N1  UNL     1       1.908   5.348  11.859  1.00  0.00    -0.301 N 
ATOM     16  H12 UNL     1       1.279   4.601  11.567  1.00  0.00     0.184 HD
ATOM     17  H11 UNL     1       2.820   5.108  12.245  1.00  0.00     0.184 HD
ENDBRANCH  14  15
ENDBRANCH   1  14
TORSDOF 3
ENDMDL
MODEL 4
REMARK VINA RESULT: -5.808024189      2.020      3.229
REMARK  3 active torsions:
REMARK  status: ('A' for Active; 'I' for Inactive)
REMARK    1  A    between atoms: N1_1  and  O1_4 
REMARK    2  A    between atoms: O1_4  and  C1_5 
REMARK       I    between atoms: C1_5  and  N2_7 
REMARK       I    between atoms: C2_9  and  N4_11 
REMARK    3  A    between atoms: N4_11  and  N5_13 
ROOT
HETATM    1  C1  UNL     1       0.797   7.125  12.062  1.00  0.00     0.388 C 
HETATM    2  O2  UNL     1       1.650   6.221  11.855  1.00  0.00    -0.236 OA
HETATM    3  N2  UNL     1       0.297   7.915  11.001  1.00  0.00    -0.274 N 
ATOM      4  H2  UNL     1       0.045   8.882  11.209  1.00  0.00     0.173 HD
HETATM    5  C2  UNL     1       0.138   7.509   9.807  1.00  0.00     0.211 C 
HETATM    6  N3  UNL     1       0.479   6.167   9.490  1.00  0.00    -0.062 NA
HETATM    7  N4  UNL     1      -0.365   8.319   8.755  1.00  0.00    -0.271 N 
ATOM      8  H4  UNL     1       0.095   8.344   7.845  1.00  0.00     0.189 HD
ENDROOT
BRANCH   7   9
HETATM    9  N5  UNL     1      -1.498   9.074   9.003  1.00  0.00    -0.274 N 
HETATM   10  C3  UNL     1      -1.769  10.192   8.427  1.00  0.00     0.215 C 
HETATM   11  N6  UNL     1      -0.900  10.748   7.467  1.00  0.00    -0.065 NA
HETATM   12  N7  UNL     1      -2.970  10.850   8.786  1.00  0.00    -0.065 NA
ATOM     13  H5  UNL     1      -2.164   8.720   9.689  1.00  0.00     0.189 HD
ENDBRANCH   7   9
BRANCH   1  14
HETATM   14  O1  UNL     1       0.355   7.330  13.356  1.00  0.00    -0.188 OA
BRANCH  14  15
HETATM   15  N1  UNL     1      -0.498   8.344  13.717  1.00  0.00    -0.301 N 
ATOM     16  H12 UNL     1      -0.666   9.077  13.028  1.00  0.00     0.184 HD
ATOM     17  H11 UNL     1      -0.960   8.397  14.624  1.00  0.00     0.184 HD
ENDBRANCH  14  15
ENDBRANCH   1  14
TORSDOF 3
ENDMDL
MODEL 5
REMARK VINA RESULT: -5.676513611      2.837      4.712
REMARK  3 active torsions:
REMARK  status: ('A' for Active; 'I' for Inactive)
REMARK    1  A    between atoms: N1_1  and  O1_4 
REMARK    2  A    between atoms: O1_4  and  C1_5 
REMARK       I    between atoms: C1_5  and  N2_7 
REMARK       I    between atoms: C2_9  and  N4_11 
REMARK    3  A    between atoms: N4_11  and  N5_13 
ROOT
HETATM    1  C1  UNL     1      -1.733  10.211   8.111  1.00  0.00     0.388 C 
HETATM    2  O2  UNL     1      -0.955  10.728   7.265  1.00  0.00    -0.236 OA
HETATM    3  N2  UNL     1      -1.236   9.455   9.197  1.00  0.00    -0.274 N 
ATOM      4  H2  UNL     1      -1.807   8.681   9.536  1.00  0.00     0.173 HD
HETATM    5  C2  UNL     1      -0.129   9.671   9.783  1.00  0.00     0.211 C 
HETATM    6  N3  UNL     1       0.686  10.744   9.334  1.00  0.00    -0.062 NA
HETATM    7  N4  UNL     1       0.354   8.900  10.874  1.00  0.00    -0.271 N 
ATOM      8  H4  UNL     1       1.316   8.562  10.893  1.00  0.00     0.189 HD
ENDROOT
BRANCH   7   9
HETATM    9  N5  UNL     1      -0.522   8.621  11.908  1.00  0.00    -0.274 N 
HETATM   10  C3  UNL     1      -1.069   7.475  12.111  1.00  0.00     0.215 C 
HETATM   11  N6  UNL     1      -0.807   6.380  11.262  1.00  0.00    -0.065 NA
HETATM   12  N7  UNL     1      -1.946   7.343  13.215  1.00  0.00    -0.065 NA
ATOM     13  H5  UNL     1      -0.748   9.376  12.556  1.00  0.00     0.189 HD
ENDBRANCH   7   9
BRANCH   1  14
HETATM   14  O1  UNL     1      -3.095  10.399   7.953  1.00  0.00    -0.188 OA
BRANCH  14  15
HETATM   15  N1  UNL     1      -4.039   9.860   8.792  1.00  0.00    -0.301 N 
ATOM     16  H12 UNL     1      -4.783  10.478   9.112  1.00  0.00     0.184 HD
ATOM     17  H11 UNL     1      -4.029   8.889   9.103  1.00  0.00     0.184 HD
ENDBRANCH  14  15
ENDBRANCH   1  14
TORSDOF 3
ENDMDL
