MODEL 1
REMARK VINA RESULT: -6.340407968      0.000      0.000
REMARK  3 active torsions:
REMARK  status: ('A' for Active; 'I' for Inactive)
REMARK    1  A    between atoms: N1_1  and  N2_4 
REMARK    2  A    between atoms: C1_6  and  N3_7 
REMARK       I    between atoms: N3_7  and  C2_9 
REMARK       I    between atoms: C2_9  and  N4_11 
REMARK    3  A    between atoms: N4_11  and  C3_13 
ROOT
HETATM    1  N3  UNL     1      -1.133   7.648   9.772  1.00  0.00    -0.303 N 
ATOM      2  H3  UNL     1      -0.897   7.870   8.805  1.00  0.00     0.171 HD
HETATM    3  C2  UNL     1      -1.905   8.567  10.524  1.00  0.00     0.339 C 
HETATM    4  O1  UNL     1      -2.179   8.267  11.713  1.00  0.00    -0.246 OA
HETATM    5  N4  UNL     1      -2.364   9.788   9.978  1.00  0.00    -0.138 N 
ATOM      6  H4  UNL     1      -3.352   9.906   9.751  1.00  0.00     0.189 HD
ENDROOT
BRANCH   5   7
HETATM    7  C3  UNL     1      -1.526  10.760   9.767  1.00  0.00     0.717 A 
HETATM    8  N5  UNL     1      -0.463  11.071  10.531  1.00  0.00    -0.115 N 
HETATM    9  N6  UNL     1       0.147  12.129   9.985  1.00  0.00    -0.213 N 
ATOM     10  H5  UNL     1      -0.173  10.584  11.379  1.00  0.00     0.207 HD
HETATM   11  N7  UNL     1      -0.510  12.486   8.900  1.00  0.00    -0.213 N 
ATOM     12  H6  UNL     1       0.984  12.585  10.350  1.00  0.00     0.210 HD
HETATM   13  N8  UNL     1      -1.527  11.649   8.772  1.00  0.00    -0.115 N 
ATOM     14  H7  UNL     1      -0.278  13.259   8.277  1.00  0.00     0.210 HD
ATOM     15  H8  UNL     1      -2.216  11.680   8.019  1.00  0.00     0.207 HD
ENDBRANCH   5   7
BRANCH   1  16
HETATM   16  C1  UNL     1      -0.678   6.425  10.331  1.00  0.00     0.200 C 
HETATM   17  N2  UNL     1       0.322   6.419  11.144  1.00  0.00    -0.303 N 
ATOM     18  H2  UNL     1       0.648   5.540  11.545  1.00  0.00     0.187 HD
BRANCH  17  19
HETATM   19  N1  UNL     1       0.961   7.616  11.476  1.00  0.00    -0.344 N 
ATOM     20  H12 UNL     1       0.487   8.272  12.097  1.00  0.00     0.176 HD
ATOM     21  H11 UNL     1       1.886   7.823  11.100  1.00  0.00     0.176 HD
ENDBRANCH  17  19
ENDBRANCH   1  16
TORSDOF 3
ENDMDL
MODEL 2
REMARK VINA RESULT: -6.319668492      0.020      1.025
REMARK  3 active torsions:
REMARK  status: ('A' for Active; 'I' for Inactive)
REMARK    1  A    between atoms: N1_1  and  N2_4 
REMARK    2  A    between atoms: C1_6  and  N3_7 
REMARK       I    between atoms: N3_7  and  C2_9 
REMARK       I    between atoms: C2_9  and  N4_11 
REMARK    3  A    between atoms: N4_11  and  C3_13 
ROOT
HETATM    1  N3  UNL     1      -1.123   7.644   9.780  1.00  0.00    -0.303 N 
ATOM      2  H3  UNL     1      -0.885   7.870   8.813  1.00  0.00     0.171 HD
HETATM    3  C2  UNL     1      -1.895   8.562  10.533  1.00  0.00     0.339 C 
HETATM    4  O1  UNL     1      -2.173   8.257  11.721  1.00  0.00    -0.246 OA
HETATM    5  N4  UNL     1      -2.351   9.786   9.992  1.00  0.00    -0.138 N 
ATOM      6  H4  UNL     1      -3.338   9.906   9.763  1.00  0.00     0.189 HD
ENDROOT
BRANCH   5   7
HETATM    7  C3  UNL     1      -1.511  10.758   9.787  1.00  0.00     0.717 A 
HETATM    8  N5  UNL     1      -1.553  11.642   8.774  1.00  0.00    -0.115 N 
HETATM    9  N6  UNL     1      -0.520  12.482   8.912  1.00  0.00    -0.213 N 
ATOM     10  H5  UNL     1      -2.252  11.668   8.031  1.00  0.00     0.207 HD
HETATM   11  N7  UNL     1       0.165  12.142   9.985  1.00  0.00    -0.213 N 
ATOM     12  H6  UNL     1      -0.299  13.258   8.287  1.00  0.00     0.210 HD
HETATM   13  N8  UNL     1      -0.443  11.091  10.514  1.00  0.00    -0.115 N 
ATOM     14  H7  UNL     1       1.003  12.601  10.340  1.00  0.00     0.210 HD
ATOM     15  H8  UNL     1      -0.137  10.606  11.357  1.00  0.00     0.207 HD
ENDBRANCH   5   7
BRANCH   1  16
HETATM   16  C1  UNL     1      -0.671   6.418  10.334  1.00  0.00     0.200 C 
HETATM   17  N2  UNL     1       0.332   6.407  11.144  1.00  0.00    -0.303 N 
ATOM     18  H2  UNL     1       0.655   5.525  11.542  1.00  0.00     0.187 HD
BRANCH  17  19
HETATM   19  N1  UNL     1       0.976   7.600  11.477  1.00  0.00    -0.344 N 
ATOM     20  H12 UNL     1       1.373   8.171  10.731  1.00  0.00     0.176 HD
ATOM     21  H11 UNL     1       1.044   7.889  12.453  1.00  0.00     0.176 HD
ENDBRANCH  17  19
ENDBRANCH   1  16
TORSDOF 3
ENDMDL
MODEL 3
REMARK VINA RESULT: -6.306826220      2.032      4.470
REMARK  3 active torsions:
REMARK  status: ('A' for Active; 'I' for Inactive)
REMARK    1  A    between atoms: N1_1  and  N2_4 
REMARK    2  A    between atoms: C1_6  and  N3_7 
REMARK       I    between atoms: N3_7  and  C2_9 
REMARK       I    between atoms: C2_9  and  N4_11 
REMARK    3  A    between atoms: N4_11  and  C3_13 
ROOT
HETATM    1  N3  UNL     1      -1.654  10.513   9.658  1.00  0.00    -0.303 N 
ATOM      2  H3  UNL     1      -2.430  10.601  10.315  1.00  0.00     0.171 HD
HETATM    3  C2  UNL     1      -0.917   9.305   9.619  1.00  0.00     0.339 C 
HETATM    4  O1  UNL     1       0.034   9.225   8.801  1.00  0.00    -0.246 OA
HETATM    5  N4  UNL     1      -1.219   8.210  10.461  1.00  0.00    -0.138 N 
ATOM      6  H4  UNL     1      -1.658   7.375  10.074  1.00  0.00     0.189 HD
ENDROOT
BRANCH   5   7
HETATM    7  C3  UNL     1      -0.935   8.269  11.729  1.00  0.00     0.717 A 
HETATM    8  N5  UNL     1       0.117   7.689  12.334  1.00  0.00    -0.115 N 
HETATM    9  N6  UNL     1       0.061   7.981  13.639  1.00  0.00    -0.213 N 
ATOM     10  H5  UNL     1       0.834   7.124  11.878  1.00  0.00     0.207 HD
HETATM   11  N7  UNL     1      -1.001   8.730  13.862  1.00  0.00    -0.213 N 
ATOM     12  H6  UNL     1       0.730   7.675  14.345  1.00  0.00     0.210 HD
HETATM   13  N8  UNL     1      -1.603   8.902  12.696  1.00  0.00    -0.115 N 
ATOM     14  H7  UNL     1      -1.300   9.105  14.761  1.00  0.00     0.210 HD
ATOM     15  H8  UNL     1      -2.458   9.441  12.556  1.00  0.00     0.207 HD
ENDBRANCH   5   7
BRANCH   1  16
HETATM   16  C1  UNL     1      -1.341  11.606   8.807  1.00  0.00     0.200 C 
HETATM   17  N2  UNL     1      -0.372  12.400   9.107  1.00  0.00    -0.303 N 
ATOM     18  H2  UNL     1      -0.148  13.185   8.495  1.00  0.00     0.187 HD
BRANCH  17  19
HETATM   19  N1  UNL     1       0.372  12.189  10.270  1.00  0.00    -0.344 N 
ATOM     20  H12 UNL     1       0.011  12.541  11.157  1.00  0.00     0.176 HD
ATOM     21  H11 UNL     1       1.261  11.690  10.225  1.00  0.00     0.176 HD
ENDBRANCH  17  19
ENDBRANCH   1  16
TORSDOF 3
ENDMDL
MODEL 4
REMARK VINA RESULT: -6.259676123      0.964      1.132
REMARK  3 active torsions:
REMARK  status: ('A' for Active; 'I' for Inactive)
REMARK    1  A    between atoms: N1_1  and  N2_4 
REMARK    2  A    between atoms: C1_6  and  N3_7 
REMARK       I    between atoms: N3_7  and  C2_9 
REMARK       I    between atoms: C2_9  and  N4_11 
REMARK    3  A    between atoms: N4_11  and  C3_13 
ROOT
HETATM    1  N3  UNL     1      -1.297   7.679   9.760  1.00  0.00    -0.303 N 
ATOM      2  H3  UNL     1      -1.066   7.897   8.790  1.00  0.00     0.171 HD
HETATM    3  C2  UNL     1      -2.019   8.626  10.527  1.00  0.00     0.339 C 
HETATM    4  O1  UNL     1      -2.289   8.331  11.719  1.00  0.00    -0.246 OA
HETATM    5  N4  UNL     1      -2.434   9.869   9.994  1.00  0.00    -0.138 N 
ATOM      6  H4  UNL     1      -3.419  10.029   9.782  1.00  0.00     0.189 HD
ENDROOT
BRANCH   5   7
HETATM    7  C3  UNL     1      -1.558  10.806   9.776  1.00  0.00     0.717 A 
HETATM    8  N5  UNL     1      -0.482  11.078  10.537  1.00  0.00    -0.115 N 
HETATM    9  N6  UNL     1       0.168  12.109   9.984  1.00  0.00    -0.213 N 
ATOM     10  H5  UNL     1      -0.210  10.584  11.387  1.00  0.00     0.207 HD
HETATM   11  N7  UNL     1      -0.477  12.485   8.898  1.00  0.00    -0.213 N 
ATOM     12  H6  UNL     1       1.023  12.533  10.344  1.00  0.00     0.210 HD
HETATM   13  N8  UNL     1      -1.527  11.689   8.777  1.00  0.00    -0.115 N 
ATOM     14  H7  UNL     1      -0.216  13.246   8.270  1.00  0.00     0.210 HD
ATOM     15  H8  UNL     1      -2.215  11.743   8.025  1.00  0.00     0.207 HD
ENDBRANCH   5   7
BRANCH   1  16
HETATM   16  C1  UNL     1      -0.886   6.435  10.306  1.00  0.00     0.200 C 
HETATM   17  N2  UNL     1      -0.087   5.672   9.643  1.00  0.00    -0.303 N 
ATOM     18  H2  UNL     1       0.207   4.778  10.036  1.00  0.00     0.187 HD
BRANCH  17  19
HETATM   19  N1  UNL     1       0.376   6.067   8.386  1.00  0.00    -0.344 N 
ATOM     20  H12 UNL     1      -0.302   6.299   7.660  1.00  0.00     0.176 HD
ATOM     21  H11 UNL     1       1.379   6.121   8.205  1.00  0.00     0.176 HD
ENDBRANCH  17  19
ENDBRANCH   1  16
TORSDOF 3
ENDMDL
MODEL 5
REMARK VINA RESULT: -6.242476814      1.252      1.553
REMARK  3 active torsions:
REMARK  status: ('A' for Active; 'I' for Inactive)
REMARK    1  A    between atoms: N1_1  and  N2_4 
REMARK    2  A    between atoms: C1_6  and  N3_7 
REMARK       I    between atoms: N3_7  and  C2_9 
REMARK       I    between atoms: C2_9  and  N4_11 
REMARK    3  A    between atoms: N4_11  and  C3_13 
ROOT
HETATM    1  N3  UNL     1      -0.094   7.650   9.102  1.00  0.00    -0.303 N 
ATOM      2  H3  UNL     1       0.059   8.060   8.180  1.00  0.00     0.171 HD
HETATM    3  C2  UNL     1      -1.028   8.254   9.979  1.00  0.00     0.339 C 
HETATM    4  O1  UNL     1      -1.195   7.727  11.108  1.00  0.00    -0.246 OA
HETATM    5  N4  UNL     1      -1.760   9.409   9.622  1.00  0.00    -0.138 N 
ATOM      6  H4  UNL     1      -2.755   9.337   9.410  1.00  0.00     0.189 HD
ENDROOT
BRANCH   5   7
HETATM    7  C3  UNL     1      -1.163  10.563   9.565  1.00  0.00     0.717 A 
HETATM    8  N5  UNL     1      -0.224  11.014  10.416  1.00  0.00    -0.115 N 
HETATM    9  N6  UNL     1       0.142  12.239  10.023  1.00  0.00    -0.213 N 
ATOM     10  H5  UNL     1       0.145  10.509  11.222  1.00  0.00     0.207 HD
HETATM   11  N7  UNL     1      -0.547  12.564   8.947  1.00  0.00    -0.213 N 
ATOM     12  H6  UNL     1       0.839  12.826  10.481  1.00  0.00     0.210 HD
HETATM   13  N8  UNL     1      -1.339  11.540   8.673  1.00  0.00    -0.115 N 
ATOM     14  H7  UNL     1      -0.480  13.438   8.425  1.00  0.00     0.210 HD
ATOM     15  H8  UNL     1      -1.993  11.503   7.890  1.00  0.00     0.207 HD
ENDBRANCH   5   7
BRANCH   1  16
HETATM   16  C1  UNL     1       0.635   6.490   9.472  1.00  0.00     0.200 C 
HETATM   17  N2  UNL     1       0.077   5.330   9.407  1.00  0.00    -0.303 N 
ATOM     18  H2  UNL     1       0.602   4.497   9.673  1.00  0.00     0.187 HD
BRANCH  17  19
HETATM   19  N1  UNL     1      -1.245   5.212   8.974  1.00  0.00    -0.344 N 
ATOM     20  H12 UNL     1      -1.626   5.926   8.353  1.00  0.00     0.176 HD
ATOM     21  H11 UNL     1      -1.814   4.422   9.279  1.00  0.00     0.176 HD
ENDBRANCH  17  19
ENDBRANCH   1  16
TORSDOF 3
ENDMDL
