MODEL 1
REMARK VINA RESULT: -6.874637711      0.000      0.000
REMARK  3 active torsions:
REMARK  status: ('A' for Active; 'I' for Inactive)
REMARK    1  A    between atoms: N1_1  and  N2_4 
REMARK       I    between atoms: N2_4  and  C1_6 
REMARK    2  A    between atoms: C1_6  and  C2_8 
REMARK    3  A    between atoms: C2_8  and  N3_9 
ROOT
HETATM    1  C2  UNL     1      -1.055   9.510   9.907  1.00  0.00     0.337 A 
HETATM    2  N4  UNL     1       0.230  10.088  10.198  1.00  0.00    -0.296 N 
ATOM      3  H4  UNL     1       1.015   9.625  10.655  1.00  0.00     0.167 HD
HETATM    4  C3  UNL     1       0.194  11.424   9.729  1.00  0.00     0.324 A 
HETATM    5  O2  UNL     1       1.135  12.276   9.797  1.00  0.00    -0.247 OA
HETATM    6  N5  UNL     1      -1.089  11.628   9.173  1.00  0.00    -0.296 N 
ATOM      7  H5  UNL     1      -1.401  12.505   8.757  1.00  0.00     0.171 HD
HETATM    8  C4  UNL     1      -1.810  10.576   9.257  1.00  0.00     0.164 A 
HETATM    9  N6  UNL     1      -3.153  10.561   8.752  1.00  0.00    -0.082 NA
ENDROOT
BRANCH   1  10
HETATM   10  C1  UNL     1      -1.698   9.061  11.184  1.00  0.00     0.300 C 
HETATM   11  N2  UNL     1      -1.076   9.224  12.437  1.00  0.00    -0.273 N 
ATOM     12  H2  UNL     1      -0.156   9.660  12.500  1.00  0.00     0.189 HD
HETATM   13  O1  UNL     1      -2.826   8.528  11.096  1.00  0.00    -0.266 OA
BRANCH  11  14
HETATM   14  N1  UNL     1      -1.718   8.790  13.583  1.00  0.00    -0.342 N 
ATOM     15  H12 UNL     1      -2.320   7.968  13.534  1.00  0.00     0.176 HD
ATOM     16  H11 UNL     1      -1.584   9.295  14.460  1.00  0.00     0.176 HD
ENDBRANCH  11  14
ENDBRANCH   1  10
BRANCH   1  17
HETATM   17  N3  UNL     1      -0.862   8.365   9.019  1.00  0.00    -0.036 N 
ATOM     18  H33 UNL     1      -1.735   7.869   8.838  1.00  0.00     0.278 HD
ATOM     19  H32 UNL     1      -0.654   8.652   8.063  1.00  0.00     0.278 HD
ATOM     20  H31 UNL     1      -0.144   7.748   9.400  1.00  0.00     0.278 HD
ENDBRANCH   1  17
TORSDOF 3
ENDMDL
MODEL 2
REMARK VINA RESULT: -6.549031320      1.228      1.228
REMARK  3 active torsions:
REMARK  status: ('A' for Active; 'I' for Inactive)
REMARK    1  A    between atoms: N1_1  and  N2_4 
REMARK       I    between atoms: N2_4  and  C1_6 
REMARK    2  A    between atoms: C1_6  and  C2_8 
REMARK    3  A    between atoms: C2_8  and  N3_9 
ROOT
HETATM    1  C2  UNL     1      -0.921   9.338   9.675  1.00  0.00     0.337 A 
HETATM    2  N4  UNL     1       0.075  10.345   9.418  1.00  0.00    -0.296 N 
ATOM      3  H4  UNL     1       1.084  10.244   9.535  1.00  0.00     0.167 HD
HETATM    4  C3  UNL     1      -0.613  11.500   8.973  1.00  0.00     0.324 A 
HETATM    5  O2  UNL     1      -0.092  12.611   8.643  1.00  0.00    -0.247 OA
HETATM    6  N5  UNL     1      -1.989  11.179   8.969  1.00  0.00    -0.296 N 
ATOM      7  H5  UNL     1      -2.728  11.826   8.693  1.00  0.00     0.171 HD
HETATM    8  C4  UNL     1      -2.193   9.978   9.356  1.00  0.00     0.164 A 
HETATM    9  N6  UNL     1      -3.522   9.443   9.427  1.00  0.00    -0.082 NA
ENDROOT
BRANCH   1  10
HETATM   10  C1  UNL     1      -0.845   8.920  11.112  1.00  0.00     0.300 C 
HETATM   11  N2  UNL     1      -1.649   9.505  12.110  1.00  0.00    -0.273 N 
ATOM     12  H2  UNL     1      -2.312  10.241  11.868  1.00  0.00     0.189 HD
HETATM   13  O1  UNL     1      -0.029   8.016  11.399  1.00  0.00    -0.266 OA
BRANCH  11  14
HETATM   14  N1  UNL     1      -1.534   9.077  13.420  1.00  0.00    -0.342 N 
ATOM     15  H12 UNL     1      -0.707   8.550  13.701  1.00  0.00     0.176 HD
ATOM     16  H11 UNL     1      -2.275   9.292  14.089  1.00  0.00     0.176 HD
ENDBRANCH  11  14
ENDBRANCH   1  10
BRANCH   1  17
HETATM   17  N3  UNL     1      -0.661   8.190   8.809  1.00  0.00    -0.036 N 
ATOM     18  H33 UNL     1       0.333   8.084   8.603  1.00  0.00     0.278 HD
ATOM     19  H32 UNL     1      -0.807   7.305   9.293  1.00  0.00     0.278 HD
ATOM     20  H31 UNL     1      -1.223   8.261   7.961  1.00  0.00     0.278 HD
ENDBRANCH   1  17
TORSDOF 3
ENDMDL
MODEL 3
REMARK VINA RESULT: -6.384568009      2.268      3.131
REMARK  3 active torsions:
REMARK  status: ('A' for Active; 'I' for Inactive)
REMARK    1  A    between atoms: N1_1  and  N2_4 
REMARK       I    between atoms: N2_4  and  C1_6 
REMARK    2  A    between atoms: C1_6  and  C2_8 
REMARK    3  A    between atoms: C2_8  and  N3_9 
ROOT
HETATM    1  C2  UNL     1      -1.046  10.043   9.966  1.00  0.00     0.337 A 
HETATM    2  N4  UNL     1      -2.404   9.605   9.776  1.00  0.00    -0.296 N 
ATOM      3  H4  UNL     1      -2.970   9.076  10.440  1.00  0.00     0.167 HD
HETATM    4  C3  UNL     1      -2.803  10.050   8.492  1.00  0.00     0.324 A 
HETATM    5  O2  UNL     1      -3.935   9.867   7.945  1.00  0.00    -0.247 OA
HETATM    6  N5  UNL     1      -1.699  10.736   7.936  1.00  0.00    -0.296 N 
ATOM      7  H5  UNL     1      -1.698  11.166   7.012  1.00  0.00     0.171 HD
HETATM    8  C4  UNL     1      -0.703  10.749   8.736  1.00  0.00     0.164 A 
HETATM    9  N6  UNL     1       0.525  11.395   8.372  1.00  0.00    -0.082 NA
ENDROOT
BRANCH   1  10
HETATM   10  C1  UNL     1      -0.169   8.850  10.195  1.00  0.00     0.300 C 
HETATM   11  N2  UNL     1       0.223   8.440  11.485  1.00  0.00    -0.273 N 
ATOM     12  H2  UNL     1      -0.091   8.960  12.305  1.00  0.00     0.189 HD
HETATM   13  O1  UNL     1       0.210   8.219   9.184  1.00  0.00    -0.266 OA
BRANCH  11  14
HETATM   14  N1  UNL     1       1.034   7.331  11.635  1.00  0.00    -0.342 N 
ATOM     15  H12 UNL     1       1.941   7.436  12.092  1.00  0.00     0.176 HD
ATOM     16  H11 UNL     1       0.720   6.424  11.289  1.00  0.00     0.176 HD
ENDBRANCH  11  14
ENDBRANCH   1  10
BRANCH   1  17
HETATM   17  N3  UNL     1      -0.998  10.926  11.129  1.00  0.00    -0.036 N 
ATOM     18  H33 UNL     1      -1.677  10.658  11.842  1.00  0.00     0.278 HD
ATOM     19  H32 UNL     1      -0.147  10.792  11.677  1.00  0.00     0.278 HD
ATOM     20  H31 UNL     1      -1.114  11.896  10.834  1.00  0.00     0.278 HD
ENDBRANCH   1  17
TORSDOF 3
ENDMDL
MODEL 4
REMARK VINA RESULT: -6.365551632      1.758      3.660
REMARK  3 active torsions:
REMARK  status: ('A' for Active; 'I' for Inactive)
REMARK    1  A    between atoms: N1_1  and  N2_4 
REMARK       I    between atoms: N2_4  and  C1_6 
REMARK    2  A    between atoms: C1_6  and  C2_8 
REMARK    3  A    between atoms: C2_8  and  N3_9 
ROOT
HETATM    1  C2  UNL     1      -0.971   9.548   9.287  1.00  0.00     0.337 A 
HETATM    2  N4  UNL     1      -1.854   9.825   8.185  1.00  0.00    -0.296 N 
ATOM      3  H4  UNL     1      -1.581  10.026   7.223  1.00  0.00     0.167 HD
HETATM    4  C3  UNL     1      -3.175   9.765   8.692  1.00  0.00     0.324 A 
HETATM    5  O2  UNL     1      -4.248   9.952   8.037  1.00  0.00    -0.247 OA
HETATM    6  N5  UNL     1      -3.071   9.459  10.068  1.00  0.00    -0.296 N 
ATOM      7  H5  UNL     1      -3.869   9.353  10.694  1.00  0.00     0.171 HD
HETATM    8  C4  UNL     1      -1.852   9.331  10.430  1.00  0.00     0.164 A 
HETATM    9  N6  UNL     1      -1.516   9.018  11.789  1.00  0.00    -0.082 NA
ENDROOT
BRANCH   1  10
HETATM   10  C1  UNL     1      -0.055  10.715   9.494  1.00  0.00     0.300 C 
HETATM   11  N2  UNL     1      -0.197  11.600  10.581  1.00  0.00    -0.273 N 
ATOM     12  H2  UNL     1      -0.942  11.458  11.263  1.00  0.00     0.189 HD
HETATM   13  O1  UNL     1       0.857  10.879   8.654  1.00  0.00    -0.266 OA
BRANCH  11  14
HETATM   14  N1  UNL     1       0.680  12.660  10.721  1.00  0.00    -0.342 N 
ATOM     15  H12 UNL     1       0.867  13.031  11.653  1.00  0.00     0.176 HD
ATOM     16  H11 UNL     1       1.127  13.059   9.895  1.00  0.00     0.176 HD
ENDBRANCH  11  14
ENDBRANCH   1  10
BRANCH   1  17
HETATM   17  N3  UNL     1      -0.190   8.354   8.971  1.00  0.00    -0.036 N 
ATOM     18  H33 UNL     1      -0.721   7.685   8.413  1.00  0.00     0.278 HD
ATOM     19  H32 UNL     1       0.553   8.548   8.300  1.00  0.00     0.278 HD
ATOM     20  H31 UNL     1       0.169   7.937   9.830  1.00  0.00     0.278 HD
ENDBRANCH   1  17
TORSDOF 3
ENDMDL
MODEL 5
REMARK VINA RESULT: -6.268390917      2.035      2.412
REMARK  3 active torsions:
REMARK  status: ('A' for Active; 'I' for Inactive)
REMARK    1  A    between atoms: N1_1  and  N2_4 
REMARK       I    between atoms: N2_4  and  C1_6 
REMARK    2  A    between atoms: C1_6  and  C2_8 
REMARK    3  A    between atoms: C2_8  and  N3_9 
ROOT
HETATM    1  C2  UNL     1      -0.545   9.228   9.589  1.00  0.00     0.337 A 
HETATM    2  N4  UNL     1       0.336  10.262   9.114  1.00  0.00    -0.296 N 
ATOM      3  H4  UNL     1       0.962  10.205   8.311  1.00  0.00     0.167 HD
HETATM    4  C3  UNL     1       0.167  11.373   9.976  1.00  0.00     0.324 A 
HETATM    5  O2  UNL     1       0.767  12.491   9.897  1.00  0.00    -0.247 OA
HETATM    6  N5  UNL     1      -0.796  11.000  10.941  1.00  0.00    -0.296 N 
ATOM      7  H5  UNL     1      -1.117  11.606  11.694  1.00  0.00     0.171 HD
HETATM    8  C4  UNL     1      -1.213   9.807  10.750  1.00  0.00     0.164 A 
HETATM    9  N6  UNL     1      -2.197   9.224  11.616  1.00  0.00    -0.082 NA
ENDROOT
BRANCH   1  10
HETATM   10  C1  UNL     1       0.259   8.016   9.946  1.00  0.00     0.300 C 
HETATM   11  N2  UNL     1       0.737   7.787  11.252  1.00  0.00    -0.273 N 
ATOM     12  H2  UNL     1       0.539   8.458  11.994  1.00  0.00     0.189 HD
HETATM   13  O1  UNL     1       0.496   7.199   9.029  1.00  0.00    -0.266 OA
BRANCH  11  14
HETATM   14  N1  UNL     1       1.475   6.649  11.522  1.00  0.00    -0.342 N 
ATOM     15  H12 UNL     1       2.131   6.656  12.304  1.00  0.00     0.176 HD
ATOM     16  H11 UNL     1       1.356   5.819  10.941  1.00  0.00     0.176 HD
ENDBRANCH  11  14
ENDBRANCH   1  10
BRANCH   1  17
HETATM   17  N3  UNL     1      -1.494   8.899   8.527  1.00  0.00    -0.036 N 
ATOM     18  H33 UNL     1      -2.029   8.057   8.740  1.00  0.00     0.278 HD
ATOM     19  H32 UNL     1      -2.269   9.561   8.487  1.00  0.00     0.278 HD
ATOM     20  H31 UNL     1      -1.005   8.827   7.635  1.00  0.00     0.278 HD
ENDBRANCH   1  17
TORSDOF 3
ENDMDL
