MODEL 1
REMARK VINA RESULT: -6.902814581      0.000      0.000
REMARK  1 active torsions:
REMARK  status: ('A' for Active; 'I' for Inactive)
REMARK       I    between atoms: C1_4  and  N3_6 
REMARK    1  A    between atoms: N3_6  and  N4_8 
ROOT
HETATM    1  N4  UNL     1      -1.938   8.656  10.587  1.00  0.00    -0.278 N 
ATOM      2  H4  UNL     1      -2.876   8.405  10.276  1.00  0.00     0.189 HD
HETATM    3  C2  UNL     1      -1.391   9.732  10.176  1.00  0.00     0.193 A 
HETATM    4  N5  UNL     1      -0.109  10.250  10.490  1.00  0.00    -0.289 N 
ATOM      5  H5  UNL     1       0.572   9.814  11.111  1.00  0.00     0.172 HD
HETATM    6  C3  UNL     1       0.068  11.463   9.806  1.00  0.00     0.328 A 
HETATM    7  O1  UNL     1       1.108  12.210   9.854  1.00  0.00    -0.247 OA
HETATM    8  N6  UNL     1      -1.077  11.748   9.049  1.00  0.00    -0.272 N 
ATOM      9  H6  UNL     1      -1.221  12.566   8.456  1.00  0.00     0.174 HD
HETATM   10  C4  UNL     1      -2.001  10.688   9.261  1.00  0.00     0.295 A 
HETATM   11  O2  UNL     1      -3.160  10.613   8.726  1.00  0.00    -0.264 OA
ENDROOT
BRANCH   1  12
HETATM   12  N3  UNL     1      -1.239   7.825  11.467  1.00  0.00    -0.272 N 
HETATM   13  C1  UNL     1      -1.476   7.945  12.850  1.00  0.00     0.200 C 
HETATM   14  N1  UNL     1      -0.676   8.519  13.681  1.00  0.00    -0.372 N 
HETATM   15  N2  UNL     1      -2.681   7.393  13.369  1.00  0.00    -0.062 NA
ATOM     16  H12 UNL     1      -0.847   8.606  14.682  1.00  0.00     0.158 HD
ATOM     17  H11 UNL     1       0.188   8.914  13.309  1.00  0.00     0.158 HD
ATOM     18  H3  UNL     1      -0.568   7.143  11.113  1.00  0.00     0.189 HD
ENDBRANCH   1  12
TORSDOF 1
ENDMDL
MODEL 2
REMARK VINA RESULT: -6.715165726      1.095      1.459
REMARK  1 active torsions:
REMARK  status: ('A' for Active; 'I' for Inactive)
REMARK       I    between atoms: C1_4  and  N3_6 
REMARK    1  A    between atoms: N3_6  and  N4_8 
ROOT
HETATM    1  N4  UNL     1      -1.897   9.453  11.252  1.00  0.00    -0.278 N 
ATOM      2  H4  UNL     1      -2.893   9.239  11.211  1.00  0.00     0.189 HD
HETATM    3  C2  UNL     1      -1.342  10.117  10.314  1.00  0.00     0.193 A 
HETATM    4  N5  UNL     1       0.014  10.510  10.191  1.00  0.00    -0.289 N 
ATOM      5  H5  UNL     1       0.755  10.308  10.862  1.00  0.00     0.172 HD
HETATM    6  C3  UNL     1       0.169  11.226   8.993  1.00  0.00     0.328 A 
HETATM    7  O1  UNL     1       1.260  11.735   8.556  1.00  0.00    -0.247 OA
HETATM    8  N6  UNL     1      -1.064  11.307   8.330  1.00  0.00    -0.272 N 
ATOM      9  H6  UNL     1      -1.241  11.770   7.439  1.00  0.00     0.174 HD
HETATM   10  C4  UNL     1      -2.022  10.626   9.131  1.00  0.00     0.295 A 
HETATM   11  O2  UNL     1      -3.259  10.498   8.836  1.00  0.00    -0.264 OA
ENDROOT
BRANCH   1  12
HETATM   12  N3  UNL     1      -1.126   9.023  12.336  1.00  0.00    -0.272 N 
HETATM   13  C1  UNL     1      -0.614   7.710  12.329  1.00  0.00     0.200 C 
HETATM   14  N1  UNL     1      -1.087   6.739  13.030  1.00  0.00    -0.372 N 
HETATM   15  N2  UNL     1       0.505   7.437  11.491  1.00  0.00    -0.062 NA
ATOM     16  H12 UNL     1      -0.716   5.789  13.026  1.00  0.00     0.158 HD
ATOM     17  H11 UNL     1      -1.888   6.935  13.630  1.00  0.00     0.158 HD
ATOM     18  H3  UNL     1      -0.937   9.649  13.118  1.00  0.00     0.189 HD
ENDBRANCH   1  12
TORSDOF 1
ENDMDL
MODEL 3
REMARK VINA RESULT: -6.668977799      1.761      1.832
REMARK  1 active torsions:
REMARK  status: ('A' for Active; 'I' for Inactive)
REMARK       I    between atoms: C1_4  and  N3_6 
REMARK    1  A    between atoms: N3_6  and  N4_8 
ROOT
HETATM    1  N4  UNL     1      -0.888   8.309   8.938  1.00  0.00    -0.278 N 
ATOM      2  H4  UNL     1      -1.743   7.968   8.498  1.00  0.00     0.189 HD
HETATM    3  C2  UNL     1      -0.705   9.560   9.105  1.00  0.00     0.193 A 
HETATM    4  N5  UNL     1       0.404  10.222   9.690  1.00  0.00    -0.289 N 
ATOM      5  H5  UNL     1       1.234   9.768  10.069  1.00  0.00     0.172 HD
HETATM    6  C3  UNL     1       0.169  11.606   9.661  1.00  0.00     0.328 A 
HETATM    7  O1  UNL     1       0.958  12.513  10.105  1.00  0.00    -0.247 OA
HETATM    8  N6  UNL     1      -1.076  11.860   9.068  1.00  0.00    -0.272 N 
ATOM      9  H6  UNL     1      -1.498  12.777   8.918  1.00  0.00     0.174 HD
HETATM   10  C4  UNL     1      -1.642  10.605   8.712  1.00  0.00     0.295 A 
HETATM   11  O2  UNL     1      -2.777  10.451   8.147  1.00  0.00    -0.264 OA
ENDROOT
BRANCH   1  12
HETATM   12  N3  UNL     1       0.095   7.410   9.362  1.00  0.00    -0.272 N 
HETATM   13  C1  UNL     1       0.117   7.013  10.714  1.00  0.00     0.200 C 
HETATM   14  N1  UNL     1       0.961   7.444  11.586  1.00  0.00    -0.372 N 
HETATM   15  N2  UNL     1      -0.858   6.071  11.148  1.00  0.00    -0.062 NA
ATOM     16  H12 UNL     1       0.978   7.157  12.565  1.00  0.00     0.158 HD
ATOM     17  H11 UNL     1       1.660   8.118  11.276  1.00  0.00     0.158 HD
ATOM     18  H3  UNL     1       0.784   7.046   8.704  1.00  0.00     0.189 HD
ENDBRANCH   1  12
TORSDOF 1
ENDMDL
MODEL 4
REMARK VINA RESULT: -6.625605393      2.718      4.768
REMARK  1 active torsions:
REMARK  status: ('A' for Active; 'I' for Inactive)
REMARK       I    between atoms: C1_4  and  N3_6 
REMARK    1  A    between atoms: N3_6  and  N4_8 
ROOT
HETATM    1  N4  UNL     1      -0.790   8.323   9.284  1.00  0.00    -0.278 N 
ATOM      2  H4  UNL     1      -0.051   7.909   8.715  1.00  0.00     0.189 HD
HETATM    3  C2  UNL     1      -0.744   8.245  10.556  1.00  0.00     0.193 A 
HETATM    4  N5  UNL     1      -1.664   8.751  11.508  1.00  0.00    -0.289 N 
ATOM      5  H5  UNL     1      -2.518   9.265  11.294  1.00  0.00     0.172 HD
HETATM    6  C3  UNL     1      -1.205   8.428  12.794  1.00  0.00     0.328 A 
HETATM    7  O1  UNL     1      -1.784   8.728  13.898  1.00  0.00    -0.247 OA
HETATM    8  N6  UNL     1       0.001   7.719  12.700  1.00  0.00    -0.272 N 
ATOM      9  H6  UNL     1       0.554   7.362  13.479  1.00  0.00     0.174 HD
HETATM   10  C4  UNL     1       0.311   7.591  11.318  1.00  0.00     0.295 A 
HETATM   11  O2  UNL     1       1.345   6.998  10.855  1.00  0.00    -0.264 OA
ENDROOT
BRANCH   1  12
HETATM   12  N3  UNL     1      -1.863   8.981   8.676  1.00  0.00    -0.272 N 
HETATM   13  C1  UNL     1      -1.766  10.366   8.437  1.00  0.00     0.200 C 
HETATM   14  N1  UNL     1      -2.364  11.270   9.134  1.00  0.00    -0.372 N 
HETATM   15  N2  UNL     1      -0.953  10.799   7.351  1.00  0.00    -0.062 NA
ATOM     16  H12 UNL     1      -2.294  12.273   8.961  1.00  0.00     0.158 HD
ATOM     17  H11 UNL     1      -2.946  10.960   9.912  1.00  0.00     0.158 HD
ATOM     18  H3  UNL     1      -2.703   8.467   8.409  1.00  0.00     0.189 HD
ENDBRANCH   1  12
TORSDOF 1
ENDMDL
MODEL 5
REMARK VINA RESULT: -6.588655844      1.664      2.394
REMARK  1 active torsions:
REMARK  status: ('A' for Active; 'I' for Inactive)
REMARK       I    between atoms: C1_4  and  N3_6 
REMARK    1  A    between atoms: N3_6  and  N4_8 
ROOT
HETATM    1  N4  UNL     1      -1.822   8.390  10.041  1.00  0.00    -0.278 N 
ATOM      2  H4  UNL     1      -2.770   8.177   9.733  1.00  0.00     0.189 HD
HETATM    3  C2  UNL     1      -1.320   9.544   9.832  1.00  0.00     0.193 A 
HETATM    4  N5  UNL     1      -0.034  10.027  10.180  1.00  0.00    -0.289 N 
ATOM      5  H5  UNL     1       0.689   9.495  10.665  1.00  0.00     0.172 HD
HETATM    6  C3  UNL     1       0.080  11.358   9.750  1.00  0.00     0.328 A 
HETATM    7  O1  UNL     1       1.106  12.112   9.897  1.00  0.00    -0.247 OA
HETATM    8  N6  UNL     1      -1.111  11.755   9.125  1.00  0.00    -0.272 N 
ATOM      9  H6  UNL     1      -1.304  12.670   8.719  1.00  0.00     0.174 HD
HETATM   10  C4  UNL     1      -2.000  10.645   9.163  1.00  0.00     0.295 A 
HETATM   11  O2  UNL     1      -3.185  10.644   8.683  1.00  0.00    -0.264 OA
ENDROOT
BRANCH   1  12
HETATM   12  N3  UNL     1      -1.058   7.420  10.698  1.00  0.00    -0.272 N 
HETATM   13  C1  UNL     1      -0.368   6.462   9.930  1.00  0.00     0.200 C 
HETATM   14  N1  UNL     1      -0.737   5.236   9.788  1.00  0.00    -0.372 N 
HETATM   15  N2  UNL     1       0.822   6.874   9.266  1.00  0.00    -0.062 NA
ATOM     16  H12 UNL     1      -0.237   4.543   9.233  1.00  0.00     0.158 HD
ATOM     17  H11 UNL     1      -1.589   4.941  10.264  1.00  0.00     0.158 HD
ATOM     18  H3  UNL     1      -1.002   7.407  11.716  1.00  0.00     0.189 HD
ENDBRANCH   1  12
TORSDOF 1
ENDMDL
