MODEL 1
REMARK VINA RESULT: -6.523219051      0.000      0.000
REMARK  3 active torsions:
REMARK  status: ('A' for Active; 'I' for Inactive)
REMARK    1  A    between atoms: C3_5  and  N2_6 
REMARK       I    between atoms: N2_6  and  C4_8 
REMARK    2  A    between atoms: N4_10  and  N5_12 
REMARK    3  A    between atoms: N5_12  and  N6_14 
ROOT
HETATM    1  N2  UNL     1      -0.962   8.780  12.563  1.00  0.00    -0.161 N 
ATOM      2  H2  UNL     1       0.043   8.616  12.614  1.00  0.00     0.187 HD
HETATM    3  C4  UNL     1      -1.801   8.357  13.632  1.00  0.00     0.222 C 
HETATM    4  N3  UNL     1      -2.528   7.139  13.602  1.00  0.00    -0.061 NA
HETATM    5  N4  UNL     1      -1.909   9.109  14.675  1.00  0.00    -0.259 N 
ATOM      6  H4  UNL     1      -1.387   9.985  14.697  1.00  0.00     0.191 HD
ENDROOT
BRANCH   1   7
HETATM    7  C3  UNL     1      -1.471   9.377  11.515  1.00  0.00     0.700 A 
HETATM    8  N1  UNL     1      -2.392   8.879  10.672  1.00  0.00    -0.178 N 
HETATM    9  C2  UNL     1      -2.669   9.782   9.716  1.00  0.00     0.108 A 
ATOM     10  H1  UNL     1      -2.817   7.954  10.748  1.00  0.00     0.185 HD
HETATM   11  C1  UNL     1      -3.631   9.661   8.569  1.00  0.00     0.091 C 
HETATM   12  N8  UNL     1      -1.892  10.846   9.999  1.00  0.00    -0.275 N 
HETATM   13  N7  UNL     1      -1.164  10.617  11.083  1.00  0.00    -0.131 N 
ATOM     14  H8  UNL     1      -1.868  11.708   9.455  1.00  0.00     0.189 HD
ATOM     15  H7  UNL     1      -0.495  11.258  11.510  1.00  0.00     0.205 HD
ENDBRANCH   1   7
BRANCH   5  16
HETATM   16  N5  UNL     1      -2.700   8.785  15.766  1.00  0.00    -0.247 N 
ATOM     17  H5  UNL     1      -3.551   9.316  15.947  1.00  0.00     0.207 HD
BRANCH  16  18
HETATM   18  N6  UNL     1      -2.345   7.738  16.621  1.00  0.00    -0.331 N 
ATOM     19  H62 UNL     1      -1.631   7.076  16.313  1.00  0.00     0.178 HD
ATOM     20  H61 UNL     1      -2.789   7.635  17.533  1.00  0.00     0.178 HD
ENDBRANCH  16  18
ENDBRANCH   5  16
TORSDOF 3
ENDMDL
MODEL 2
REMARK VINA RESULT: -6.296214524      1.916      5.373
REMARK  3 active torsions:
REMARK  status: ('A' for Active; 'I' for Inactive)
REMARK    1  A    between atoms: C3_5  and  N2_6 
REMARK       I    between atoms: N2_6  and  C4_8 
REMARK    2  A    between atoms: N4_10  and  N5_12 
REMARK    3  A    between atoms: N5_12  and  N6_14 
ROOT
HETATM    1  N2  UNL     1      -1.723   9.142  11.402  1.00  0.00    -0.161 N 
ATOM      2  H2  UNL     1      -2.728   9.108  11.232  1.00  0.00     0.187 HD
HETATM    3  C4  UNL     1      -0.888   9.913  10.547  1.00  0.00     0.222 C 
HETATM    4  N3  UNL     1      -0.156   9.347   9.472  1.00  0.00    -0.061 NA
HETATM    5  N4  UNL     1      -0.788  11.183  10.754  1.00  0.00    -0.259 N 
ATOM      6  H4  UNL     1      -1.313  11.592  11.527  1.00  0.00     0.191 HD
ENDROOT
BRANCH   1   7
HETATM    7  C3  UNL     1      -1.212   8.474  12.406  1.00  0.00     0.700 A 
HETATM    8  N1  UNL     1      -1.860   8.052  13.506  1.00  0.00    -0.178 N 
HETATM    9  C2  UNL     1      -1.006   7.400  14.315  1.00  0.00     0.108 A 
ATOM     10  H1  UNL     1      -2.851   8.203  13.697  1.00  0.00     0.185 HD
HETATM   11  C1  UNL     1      -1.284   6.761  15.644  1.00  0.00     0.091 C 
HETATM   12  N8  UNL     1       0.181   7.435  13.677  1.00  0.00    -0.275 N 
HETATM   13  N7  UNL     1       0.072   8.080  12.523  1.00  0.00    -0.131 N 
ATOM     14  H8  UNL     1       1.043   7.024  14.033  1.00  0.00     0.189 HD
ATOM     15  H7  UNL     1       0.820   8.247  11.850  1.00  0.00     0.205 HD
ENDBRANCH   1   7
BRANCH   5  16
HETATM   16  N5  UNL     1      -0.001  12.019   9.977  1.00  0.00    -0.247 N 
ATOM     17  H5  UNL     1       0.940  12.259  10.289  1.00  0.00     0.207 HD
BRANCH  16  18
HETATM   18  N6  UNL     1      -0.481  12.535   8.771  1.00  0.00    -0.331 N 
ATOM     19  H62 UNL     1      -0.676  11.889   8.005  1.00  0.00     0.178 HD
ATOM     20  H61 UNL     1      -0.633  13.537   8.655  1.00  0.00     0.178 HD
ENDBRANCH  16  18
ENDBRANCH   5  16
TORSDOF 3
ENDMDL
MODEL 3
REMARK VINA RESULT: -6.244134169      2.883      5.406
REMARK  3 active torsions:
REMARK  status: ('A' for Active; 'I' for Inactive)
REMARK    1  A    between atoms: C3_5  and  N2_6 
REMARK       I    between atoms: N2_6  and  C4_8 
REMARK    2  A    between atoms: N4_10  and  N5_12 
REMARK    3  A    between atoms: N5_12  and  N6_14 
ROOT
HETATM    1  N2  UNL     1      -1.073   9.435  11.615  1.00  0.00    -0.161 N 
ATOM      2  H2  UNL     1      -1.337   9.696  12.565  1.00  0.00     0.187 HD
HETATM    3  C4  UNL     1      -1.222  10.375  10.558  1.00  0.00     0.222 C 
HETATM    4  N3  UNL     1      -2.339  10.378   9.684  1.00  0.00    -0.061 NA
HETATM    5  N4  UNL     1      -0.303  11.264  10.381  1.00  0.00    -0.259 N 
ATOM      6  H4  UNL     1       0.501  11.263  11.007  1.00  0.00     0.191 HD
ENDROOT
BRANCH   1   7
HETATM    7  C3  UNL     1      -0.600   8.237  11.379  1.00  0.00     0.700 A 
HETATM    8  N1  UNL     1       0.499   7.684  11.922  1.00  0.00    -0.178 N 
HETATM    9  C2  UNL     1       0.668   6.440  11.438  1.00  0.00     0.108 A 
ATOM     10  H1  UNL     1       1.112   8.140  12.598  1.00  0.00     0.185 HD
HETATM   11  C1  UNL     1       1.754   5.455  11.759  1.00  0.00     0.091 C 
HETATM   12  N8  UNL     1      -0.359   6.250  10.587  1.00  0.00    -0.275 N 
HETATM   13  N7  UNL     1      -1.133   7.325  10.541  1.00  0.00    -0.131 N 
ATOM     14  H8  UNL     1      -0.518   5.396  10.052  1.00  0.00     0.189 HD
ATOM     15  H7  UNL     1      -1.975   7.442   9.977  1.00  0.00     0.205 HD
ENDBRANCH   1   7
BRANCH   5  16
HETATM   16  N5  UNL     1      -0.357  12.221   9.379  1.00  0.00    -0.247 N 
ATOM     17  H5  UNL     1      -0.525  13.197   9.624  1.00  0.00     0.207 HD
BRANCH  16  18
HETATM   18  N6  UNL     1      -0.184  11.865   8.039  1.00  0.00    -0.331 N 
ATOM     19  H62 UNL     1      -0.068  12.606   7.348  1.00  0.00     0.178 HD
ATOM     20  H61 UNL     1      -0.173  10.885   7.756  1.00  0.00     0.178 HD
ENDBRANCH  16  18
ENDBRANCH   5  16
TORSDOF 3
ENDMDL
MODEL 4
REMARK VINA RESULT: -6.208789209      2.259      5.446
REMARK  3 active torsions:
REMARK  status: ('A' for Active; 'I' for Inactive)
REMARK    1  A    between atoms: C3_5  and  N2_6 
REMARK       I    between atoms: N2_6  and  C4_8 
REMARK    2  A    between atoms: N4_10  and  N5_12 
REMARK    3  A    between atoms: N5_12  and  N6_14 
ROOT
HETATM    1  N2  UNL     1      -1.405   9.008  11.158  1.00  0.00    -0.161 N 
ATOM      2  H2  UNL     1      -2.423   8.965  11.103  1.00  0.00     0.187 HD
HETATM    3  C4  UNL     1      -0.692   9.908  10.318  1.00  0.00     0.222 C 
HETATM    4  N3  UNL     1      -0.085   9.506   9.100  1.00  0.00    -0.061 NA
HETATM    5  N4  UNL     1      -0.588  11.144  10.675  1.00  0.00    -0.259 N 
ATOM      6  H4  UNL     1      -1.023  11.434  11.551  1.00  0.00     0.191 HD
ENDROOT
BRANCH   1   7
HETATM    7  C3  UNL     1      -0.766   8.235  11.999  1.00  0.00     0.700 A 
HETATM    8  N1  UNL     1      -0.072   7.122  11.702  1.00  0.00    -0.178 N 
HETATM    9  C2  UNL     1       0.446   6.596  12.827  1.00  0.00     0.108 A 
ATOM     10  H1  UNL     1       0.045   6.736  10.765  1.00  0.00     0.185 HD
HETATM   11  C1  UNL     1       1.288   5.363  12.977  1.00  0.00     0.091 C 
HETATM   12  N8  UNL     1       0.050   7.419  13.817  1.00  0.00    -0.275 N 
HETATM   13  N7  UNL     1      -0.682   8.413  13.333  1.00  0.00    -0.131 N 
ATOM     14  H8  UNL     1       0.280   7.294  14.803  1.00  0.00     0.189 HD
ATOM     15  H7  UNL     1      -1.104   9.172  13.869  1.00  0.00     0.205 HD
ENDBRANCH   1   7
BRANCH   5  16
HETATM   16  N5  UNL     1       0.086  12.096   9.926  1.00  0.00    -0.247 N 
ATOM     17  H5  UNL     1       1.008  12.413  10.226  1.00  0.00     0.207 HD
BRANCH  16  18
HETATM   18  N6  UNL     1      -0.482  12.626   8.764  1.00  0.00    -0.331 N 
ATOM     19  H62 UNL     1      -1.437  12.981   8.806  1.00  0.00     0.178 HD
ATOM     20  H61 UNL     1       0.046  12.657   7.892  1.00  0.00     0.178 HD
ENDBRANCH  16  18
ENDBRANCH   5  16
TORSDOF 3
ENDMDL
MODEL 5
REMARK VINA RESULT: -6.121336572      2.884      5.137
REMARK  3 active torsions:
REMARK  status: ('A' for Active; 'I' for Inactive)
REMARK    1  A    between atoms: C3_5  and  N2_6 
REMARK       I    between atoms: N2_6  and  C4_8 
REMARK    2  A    between atoms: N4_10  and  N5_12 
REMARK    3  A    between atoms: N5_12  and  N6_14 
ROOT
HETATM    1  N2  UNL     1      -1.111   9.460  11.595  1.00  0.00    -0.161 N 
ATOM      2  H2  UNL     1      -1.372   9.721  12.546  1.00  0.00     0.187 HD
HETATM    3  C4  UNL     1      -1.234  10.410  10.543  1.00  0.00     0.222 C 
HETATM    4  N3  UNL     1      -2.349  10.446   9.666  1.00  0.00    -0.061 NA
HETATM    5  N4  UNL     1      -0.294  11.278  10.374  1.00  0.00    -0.259 N 
ATOM      6  H4  UNL     1       0.509  11.253  11.003  1.00  0.00     0.191 HD
ENDROOT
BRANCH   1   7
HETATM    7  C3  UNL     1      -0.666   8.252  11.352  1.00  0.00     0.700 A 
HETATM    8  N1  UNL     1      -1.187   7.361  10.490  1.00  0.00    -0.178 N 
HETATM    9  C2  UNL     1      -0.460   6.230  10.512  1.00  0.00     0.108 A 
ATOM     10  H1  UNL     1      -2.010   7.519   9.908  1.00  0.00     0.185 HD
HETATM   11  C1  UNL     1      -0.668   4.972   9.719  1.00  0.00     0.091 C 
HETATM   12  N8  UNL     1       0.520   6.457  11.409  1.00  0.00    -0.275 N 
HETATM   13  N7  UNL     1       0.408   7.673  11.924  1.00  0.00    -0.131 N 
ATOM     14  H8  UNL     1       1.245   5.785  11.658  1.00  0.00     0.189 HD
ATOM     15  H7  UNL     1       1.021   8.093  12.623  1.00  0.00     0.205 HD
ENDBRANCH   1   7
BRANCH   5  16
HETATM   16  N5  UNL     1      -0.322  12.242   9.379  1.00  0.00    -0.247 N 
ATOM     17  H5  UNL     1      -0.453  13.222   9.631  1.00  0.00     0.207 HD
BRANCH  16  18
HETATM   18  N6  UNL     1      -0.171  11.889   8.035  1.00  0.00    -0.331 N 
ATOM     19  H62 UNL     1      -0.394  10.934   7.753  1.00  0.00     0.178 HD
ATOM     20  H61 UNL     1       0.154  12.570   7.349  1.00  0.00     0.178 HD
ENDBRANCH  16  18
ENDBRANCH   5  16
TORSDOF 3
ENDMDL
