MODEL 1
REMARK VINA RESULT: -6.462839140      0.000      0.000
REMARK  2 active torsions:
REMARK  status: ('A' for Active; 'I' for Inactive)
REMARK       I    between atoms: C1_2  and  N3_4 
REMARK    1  A    between atoms: N3_4  and  N4_6 
REMARK    2  A    between atoms: N4_6  and  C2_8 
ROOT
HETATM    1  C2  UNL     1      -1.212  10.204  10.797  1.00  0.00     0.715 A 
HETATM    2  N5  UNL     1      -2.058  10.839   9.957  1.00  0.00    -0.127 N 
ATOM      3  H5  UNL     1      -3.072  10.862  10.056  1.00  0.00     0.206 HD
HETATM    4  N6  UNL     1      -1.379  11.423   8.990  1.00  0.00    -0.237 N 
ATOM      5  H6  UNL     1      -1.781  11.968   8.226  1.00  0.00     0.192 HD
HETATM    6  C3  UNL     1      -0.075  11.183   9.176  1.00  0.00     0.353 A 
HETATM    7  O1  UNL     1       0.889  11.587   8.440  1.00  0.00    -0.245 OA
HETATM    8  N7  UNL     1       0.013  10.432  10.290  1.00  0.00    -0.137 N 
ATOM      9  H7  UNL     1       0.884  10.087  10.692  1.00  0.00     0.189 HD
ENDROOT
BRANCH   1  10
HETATM   10  N4  UNL     1      -1.443   9.523  11.850  1.00  0.00    -0.128 N 
ATOM     11  H4  UNL     1      -2.266   9.785  12.393  1.00  0.00     0.205 HD
BRANCH  10  12
HETATM   12  N3  UNL     1      -0.698   8.476  12.326  1.00  0.00    -0.262 N 
HETATM   13  C1  UNL     1      -0.902   8.028  13.499  1.00  0.00     0.216 C 
HETATM   14  N1  UNL     1      -1.895   8.603  14.313  1.00  0.00    -0.065 NA
HETATM   15  N2  UNL     1      -0.134   6.956  13.981  1.00  0.00    -0.065 NA
ATOM     16  H3  UNL     1       0.022   8.056  11.739  1.00  0.00     0.190 HD
ENDBRANCH  10  12
ENDBRANCH   1  10
TORSDOF 2
ENDMDL
MODEL 2
REMARK VINA RESULT: -6.316359650      1.171      1.499
REMARK  2 active torsions:
REMARK  status: ('A' for Active; 'I' for Inactive)
REMARK       I    between atoms: C1_2  and  N3_4 
REMARK    1  A    between atoms: N3_4  and  N4_6 
REMARK    2  A    between atoms: N4_6  and  C2_8 
ROOT
HETATM    1  C2  UNL     1      -1.179   9.840  10.443  1.00  0.00     0.715 A 
HETATM    2  N5  UNL     1      -2.165  10.753  10.305  1.00  0.00    -0.127 N 
ATOM      3  H5  UNL     1      -2.781  11.065  11.054  1.00  0.00     0.206 HD
HETATM    4  N6  UNL     1      -2.213  11.181   9.059  1.00  0.00    -0.237 N 
ATOM      5  H6  UNL     1      -2.867  11.873   8.692  1.00  0.00     0.192 HD
HETATM    6  C3  UNL     1      -1.261  10.556   8.355  1.00  0.00     0.353 A 
HETATM    7  O1  UNL     1      -1.003  10.711   7.112  1.00  0.00    -0.245 OA
HETATM    8  N7  UNL     1      -0.634   9.735   9.218  1.00  0.00    -0.137 N 
ATOM      9  H7  UNL     1       0.145   9.121   8.976  1.00  0.00     0.189 HD
ENDROOT
BRANCH   1  10
HETATM   10  N4  UNL     1      -0.793   9.183  11.465  1.00  0.00    -0.128 N 
ATOM     11  H4  UNL     1       0.090   8.680  11.379  1.00  0.00     0.205 HD
BRANCH  10  12
HETATM   12  N3  UNL     1      -1.444   9.086  12.667  1.00  0.00    -0.262 N 
HETATM   13  C1  UNL     1      -1.237   8.086  13.426  1.00  0.00     0.216 C 
HETATM   14  N1  UNL     1      -0.338   7.076  13.037  1.00  0.00    -0.065 NA
HETATM   15  N2  UNL     1      -1.908   7.993  14.656  1.00  0.00    -0.065 NA
ATOM     16  H3  UNL     1      -2.095   9.817  12.954  1.00  0.00     0.190 HD
ENDBRANCH  10  12
ENDBRANCH   1  10
TORSDOF 2
ENDMDL
MODEL 3
REMARK VINA RESULT: -6.191605383      0.713      1.043
REMARK  2 active torsions:
REMARK  status: ('A' for Active; 'I' for Inactive)
REMARK       I    between atoms: C1_2  and  N3_4 
REMARK    1  A    between atoms: N3_4  and  N4_6 
REMARK    2  A    between atoms: N4_6  and  C2_8 
ROOT
HETATM    1  C2  UNL     1      -1.429  10.048  10.571  1.00  0.00     0.715 A 
HETATM    2  N5  UNL     1      -2.113  10.925   9.805  1.00  0.00    -0.127 N 
ATOM      3  H5  UNL     1      -3.126  11.043   9.814  1.00  0.00     0.206 HD
HETATM    4  N6  UNL     1      -1.280  11.605   9.043  1.00  0.00    -0.237 N 
ATOM      5  H6  UNL     1      -1.542  12.330   8.374  1.00  0.00     0.192 HD
HETATM    6  C3  UNL     1      -0.033  11.188   9.294  1.00  0.00     0.353 A 
HETATM    7  O1  UNL     1       1.041  11.615   8.747  1.00  0.00    -0.245 OA
HETATM    8  N7  UNL     1      -0.139  10.231  10.234  1.00  0.00    -0.137 N 
ATOM      9  H7  UNL     1       0.646   9.718  10.635  1.00  0.00     0.189 HD
ENDROOT
BRANCH   1  10
HETATM   10  N4  UNL     1      -1.838   9.207  11.437  1.00  0.00    -0.128 N 
ATOM     11  H4  UNL     1      -2.694   8.699  11.214  1.00  0.00     0.205 HD
BRANCH  10  12
HETATM   12  N3  UNL     1      -1.244   8.915  12.637  1.00  0.00    -0.262 N 
HETATM   13  C1  UNL     1      -0.885   7.723  12.899  1.00  0.00     0.216 C 
HETATM   14  N1  UNL     1      -1.094   6.698  11.959  1.00  0.00    -0.065 NA
HETATM   15  N2  UNL     1      -0.278   7.432  14.131  1.00  0.00    -0.065 NA
ATOM     16  H3  UNL     1      -1.090   9.655  13.321  1.00  0.00     0.190 HD
ENDBRANCH  10  12
ENDBRANCH   1  10
TORSDOF 2
ENDMDL
MODEL 4
REMARK VINA RESULT: -6.182543529      1.967      2.314
REMARK  2 active torsions:
REMARK  status: ('A' for Active; 'I' for Inactive)
REMARK       I    between atoms: C1_2  and  N3_4 
REMARK    1  A    between atoms: N3_4  and  N4_6 
REMARK    2  A    between atoms: N4_6  and  C2_8 
ROOT
HETATM    1  C2  UNL     1      -1.613   9.711  10.800  1.00  0.00     0.715 A 
HETATM    2  N5  UNL     1      -1.438  10.961  10.319  1.00  0.00    -0.127 N 
ATOM      3  H5  UNL     1      -0.789  11.648  10.702  1.00  0.00     0.206 HD
HETATM    4  N6  UNL     1      -2.227  11.162   9.283  1.00  0.00    -0.237 N 
ATOM      5  H6  UNL     1      -2.288  12.024   8.739  1.00  0.00     0.192 HD
HETATM    6  C3  UNL     1      -2.937  10.049   9.064  1.00  0.00     0.353 A 
HETATM    7  O1  UNL     1      -3.807   9.865   8.145  1.00  0.00    -0.245 OA
HETATM    8  N7  UNL     1      -2.550   9.165  10.003  1.00  0.00    -0.137 N 
ATOM      9  H7  UNL     1      -2.915   8.217  10.096  1.00  0.00     0.189 HD
ENDROOT
BRANCH   1  10
HETATM   10  N4  UNL     1      -1.059   9.112  11.778  1.00  0.00    -0.128 N 
ATOM     11  H4  UNL     1      -0.204   8.594  11.573  1.00  0.00     0.205 HD
BRANCH  10  12
HETATM   12  N3  UNL     1      -1.493   9.094  13.078  1.00  0.00    -0.262 N 
HETATM   13  C1  UNL     1      -1.757   7.988  13.648  1.00  0.00     0.216 C 
HETATM   14  N1  UNL     1      -1.602   6.777  12.948  1.00  0.00    -0.065 NA
HETATM   15  N2  UNL     1      -2.203   7.977  14.979  1.00  0.00    -0.065 NA
ATOM     16  H3  UNL     1      -1.606   9.969  13.589  1.00  0.00     0.190 HD
ENDBRANCH  10  12
ENDBRANCH   1  10
TORSDOF 2
ENDMDL
MODEL 5
REMARK VINA RESULT: -6.124322881      1.065      1.170
REMARK  2 active torsions:
REMARK  status: ('A' for Active; 'I' for Inactive)
REMARK       I    between atoms: C1_2  and  N3_4 
REMARK    1  A    between atoms: N3_4  and  N4_6 
REMARK    2  A    between atoms: N4_6  and  C2_8 
ROOT
HETATM    1  C2  UNL     1      -1.003  10.356  10.635  1.00  0.00     0.715 A 
HETATM    2  N5  UNL     1      -0.478  11.595  10.522  1.00  0.00    -0.127 N 
ATOM      3  H5  UNL     1      -0.188  12.180  11.305  1.00  0.00     0.206 HD
HETATM    4  N6  UNL     1      -0.396  11.937   9.252  1.00  0.00    -0.237 N 
ATOM      5  H6  UNL     1      -0.034  12.823   8.896  1.00  0.00     0.192 HD
HETATM    6  C3  UNL     1      -0.866  10.930   8.506  1.00  0.00     0.353 A 
HETATM    7  O1  UNL     1      -0.946  10.895   7.231  1.00  0.00    -0.245 OA
HETATM    8  N7  UNL     1      -1.235   9.965   9.369  1.00  0.00    -0.137 N 
ATOM      9  H7  UNL     1      -1.634   9.065   9.100  1.00  0.00     0.189 HD
ENDROOT
BRANCH   1  10
HETATM   10  N4  UNL     1      -1.252   9.651  11.667  1.00  0.00    -0.128 N 
ATOM     11  H4  UNL     1      -1.889  10.054  12.354  1.00  0.00     0.205 HD
BRANCH  10  12
HETATM   12  N3  UNL     1      -0.751   8.406  11.947  1.00  0.00    -0.262 N 
HETATM   13  C1  UNL     1      -0.993   7.857  13.069  1.00  0.00     0.216 C 
HETATM   14  N1  UNL     1      -1.777   8.524  14.028  1.00  0.00    -0.065 NA
HETATM   15  N2  UNL     1      -0.475   6.582  13.349  1.00  0.00    -0.065 NA
ATOM     16  H3  UNL     1      -0.182   7.919  11.254  1.00  0.00     0.190 HD
ENDBRANCH  10  12
ENDBRANCH   1  10
TORSDOF 2
ENDMDL
