MODEL 1
REMARK VINA RESULT: -6.646938172      0.000      0.000
REMARK  3 active torsions:
REMARK  status: ('A' for Active; 'I' for Inactive)
REMARK       I    between atoms: N1_1  and  C1_4 
REMARK       I    between atoms: C1_4  and  N3_6 
REMARK    1  A    between atoms: N3_6  and  N4_8 
REMARK    2  A    between atoms: N4_8  and  C2_10 
REMARK    3  A    between atoms: N5_13  and  N6_14 
ROOT
HETATM    1  C2  UNL     1      -1.730   9.166  10.611  1.00  0.00     0.137 A 
HETATM    2  C3  UNL     1      -1.345   8.593  11.805  1.00  0.00     0.072 A 
HETATM    3  C4  UNL     1      -0.960   7.263  11.794  1.00  0.00     0.141 A 
HETATM    4  N5  UNL     1      -0.944   6.510  10.677  1.00  0.00    -0.200 N 
HETATM    5  N7  UNL     1      -1.323   7.112   9.561  1.00  0.00    -0.221 N 
ATOM      6  H7  UNL     1      -1.323   6.574   8.694  1.00  0.00     0.210 HD
HETATM    7  N8  UNL     1      -1.703   8.387   9.516  1.00  0.00    -0.268 N 
ATOM      8  H8  UNL     1      -1.983   8.787   8.620  1.00  0.00     0.190 HD
ENDROOT
BRANCH   1   9
HETATM    9  N4  UNL     1      -2.111  10.392  10.487  1.00  0.00    -0.282 N 
ATOM     10  H4  UNL     1      -2.249  10.939  11.336  1.00  0.00     0.188 HD
BRANCH   9  11
HETATM   11  N3  UNL     1      -2.343  11.011   9.274  1.00  0.00    -0.272 N 
HETATM   12  C1  UNL     1      -1.247  11.439   8.499  1.00  0.00     0.200 C 
HETATM   13  N1  UNL     1      -0.601  12.484   8.827  1.00  0.00    -0.372 N 
HETATM   14  N2  UNL     1      -0.880  10.699   7.360  1.00  0.00    -0.062 NA
ATOM     15  H12 UNL     1       0.192  12.793   8.266  1.00  0.00     0.158 HD
ATOM     16  H11 UNL     1      -0.867  13.020   9.653  1.00  0.00     0.158 HD
ATOM     17  H3  UNL     1      -3.297  11.157   8.943  1.00  0.00     0.189 HD
ENDBRANCH   9  11
ENDBRANCH   1   9
BRANCH   4  18
HETATM   18  N6  UNL     1      -0.547   5.158  10.692  1.00  0.00    -0.323 N 
ATOM     19  H62 UNL     1       0.182   4.820  11.320  1.00  0.00     0.179 HD
ATOM     20  H61 UNL     1      -0.970   4.462  10.079  1.00  0.00     0.179 HD
ENDBRANCH   4  18
TORSDOF 3
ENDMDL
MODEL 2
REMARK VINA RESULT: -6.532409482      1.222      1.240
REMARK  3 active torsions:
REMARK  status: ('A' for Active; 'I' for Inactive)
REMARK       I    between atoms: N1_1  and  C1_4 
REMARK       I    between atoms: C1_4  and  N3_6 
REMARK    1  A    between atoms: N3_6  and  N4_8 
REMARK    2  A    between atoms: N4_8  and  C2_10 
REMARK    3  A    between atoms: N5_13  and  N6_14 
ROOT
HETATM    1  C2  UNL     1      -1.349   9.553  11.080  1.00  0.00     0.137 A 
HETATM    2  C3  UNL     1      -1.986   8.561  11.796  1.00  0.00     0.072 A 
HETATM    3  C4  UNL     1      -1.292   7.390  12.043  1.00  0.00     0.141 A 
HETATM    4  N5  UNL     1      -0.031   7.176  11.619  1.00  0.00    -0.200 N 
HETATM    5  N7  UNL     1       0.531   8.163  10.938  1.00  0.00    -0.221 N 
ATOM      6  H7  UNL     1       1.485   8.038  10.601  1.00  0.00     0.210 HD
HETATM    7  N8  UNL     1      -0.092   9.309  10.672  1.00  0.00    -0.268 N 
ATOM      8  H8  UNL     1       0.402  10.026  10.141  1.00  0.00     0.190 HD
ENDROOT
BRANCH   1   9
HETATM    9  N4  UNL     1      -1.884  10.689  10.783  1.00  0.00    -0.282 N 
ATOM     10  H4  UNL     1      -2.068  11.344  11.543  1.00  0.00     0.188 HD
BRANCH   9  11
HETATM   11  N3  UNL     1      -2.224  11.073   9.500  1.00  0.00    -0.272 N 
HETATM   12  C1  UNL     1      -1.204  11.431   8.597  1.00  0.00     0.200 C 
HETATM   13  N1  UNL     1      -0.623  12.557   8.703  1.00  0.00    -0.372 N 
HETATM   14  N2  UNL     1      -0.841  10.531   7.578  1.00  0.00    -0.062 NA
ATOM     15  H12 UNL     1       0.115  12.815   8.049  1.00  0.00     0.158 HD
ATOM     16  H11 UNL     1      -0.887  13.209   9.442  1.00  0.00     0.158 HD
ATOM     17  H3  UNL     1      -3.202  11.096   9.210  1.00  0.00     0.189 HD
ENDBRANCH   9  11
ENDBRANCH   1   9
BRANCH   4  18
HETATM   18  N6  UNL     1       0.654   5.974  11.884  1.00  0.00    -0.323 N 
ATOM     19  H62 UNL     1       0.752   5.245  11.178  1.00  0.00     0.179 HD
ATOM     20  H61 UNL     1       1.081   5.782  12.790  1.00  0.00     0.179 HD
ENDBRANCH   4  18
TORSDOF 3
ENDMDL
MODEL 3
REMARK VINA RESULT: -6.527476784      1.112      1.219
REMARK  3 active torsions:
REMARK  status: ('A' for Active; 'I' for Inactive)
REMARK       I    between atoms: N1_1  and  C1_4 
REMARK       I    between atoms: C1_4  and  N3_6 
REMARK    1  A    between atoms: N3_6  and  N4_8 
REMARK    2  A    between atoms: N4_8  and  C2_10 
REMARK    3  A    between atoms: N5_13  and  N6_14 
ROOT
HETATM    1  C2  UNL     1      -1.862   9.581   9.901  1.00  0.00     0.137 A 
HETATM    2  C3  UNL     1      -1.940   9.132  11.203  1.00  0.00     0.072 A 
HETATM    3  C4  UNL     1      -1.447   7.870  11.486  1.00  0.00     0.141 A 
HETATM    4  N5  UNL     1      -0.899   7.066  10.554  1.00  0.00    -0.200 N 
HETATM    5  N7  UNL     1      -0.849   7.549   9.323  1.00  0.00    -0.221 N 
ATOM      6  H7  UNL     1      -0.440   6.970   8.590  1.00  0.00     0.210 HD
HETATM    7  N8  UNL     1      -1.309   8.755   8.996  1.00  0.00    -0.268 N 
ATOM      8  H8  UNL     1      -1.239   9.063   8.026  1.00  0.00     0.190 HD
ENDROOT
BRANCH   1   9
HETATM    9  N4  UNL     1      -2.284  10.735   9.506  1.00  0.00    -0.282 N 
ATOM     10  H4  UNL     1      -3.288  10.909   9.528  1.00  0.00     0.188 HD
BRANCH   9  11
HETATM   11  N3  UNL     1      -1.460  11.748   9.056  1.00  0.00    -0.272 N 
HETATM   12  C1  UNL     1      -0.105  11.754   9.439  1.00  0.00     0.200 C 
HETATM   13  N1  UNL     1       0.224  12.107  10.616  1.00  0.00    -0.372 N 
HETATM   14  N2  UNL     1       0.875  11.370   8.507  1.00  0.00    -0.062 NA
ATOM     15  H12 UNL     1       1.206  12.111  10.893  1.00  0.00     0.158 HD
ATOM     16  H11 UNL     1      -0.486  12.385  11.292  1.00  0.00     0.158 HD
ATOM     17  H3  UNL     1      -1.829  12.483   8.452  1.00  0.00     0.189 HD
ENDBRANCH   9  11
ENDBRANCH   1   9
BRANCH   4  18
HETATM   18  N6  UNL     1      -0.404   5.785  10.869  1.00  0.00    -0.323 N 
ATOM     19  H62 UNL     1       0.534   5.491  10.596  1.00  0.00     0.179 HD
ATOM     20  H61 UNL     1      -0.959   5.100  11.382  1.00  0.00     0.179 HD
ENDBRANCH   4  18
TORSDOF 3
ENDMDL
MODEL 4
REMARK VINA RESULT: -6.463726424      1.389      1.639
REMARK  3 active torsions:
REMARK  status: ('A' for Active; 'I' for Inactive)
REMARK       I    between atoms: N1_1  and  C1_4 
REMARK       I    between atoms: C1_4  and  N3_6 
REMARK    1  A    between atoms: N3_6  and  N4_8 
REMARK    2  A    between atoms: N4_8  and  C2_10 
REMARK    3  A    between atoms: N5_13  and  N6_14 
ROOT
HETATM    1  C2  UNL     1      -1.304   9.316  11.217  1.00  0.00     0.137 A 
HETATM    2  C3  UNL     1      -1.130   8.294  10.308  1.00  0.00     0.072 A 
HETATM    3  C4  UNL     1      -1.014   7.003  10.795  1.00  0.00     0.141 A 
HETATM    4  N5  UNL     1      -1.062   6.703  12.108  1.00  0.00    -0.200 N 
HETATM    5  N7  UNL     1      -1.231   7.724  12.934  1.00  0.00    -0.221 N 
ATOM      6  H7  UNL     1      -1.273   7.536  13.936  1.00  0.00     0.210 HD
HETATM    7  N8  UNL     1      -1.348   8.983  12.519  1.00  0.00    -0.268 N 
ATOM      8  H8  UNL     1      -1.475   9.721  13.212  1.00  0.00     0.190 HD
ENDROOT
BRANCH   1   9
HETATM    9  N4  UNL     1      -1.425  10.559  10.894  1.00  0.00    -0.282 N 
ATOM     10  H4  UNL     1      -1.074  11.259  11.547  1.00  0.00     0.188 HD
BRANCH   9  11
HETATM   11  N3  UNL     1      -2.000  11.001   9.718  1.00  0.00    -0.272 N 
HETATM   12  C1  UNL     1      -1.170  11.456   8.675  1.00  0.00     0.200 C 
HETATM   13  N1  UNL     1      -0.618  12.599   8.751  1.00  0.00    -0.372 N 
HETATM   14  N2  UNL     1      -0.963  10.634   7.552  1.00  0.00    -0.062 NA
ATOM     15  H12 UNL     1      -0.016  12.928   7.995  1.00  0.00     0.158 HD
ATOM     16  H11 UNL     1      -0.767  13.194   9.565  1.00  0.00     0.158 HD
ATOM     17  H3  UNL     1      -3.014  10.997   9.606  1.00  0.00     0.189 HD
ENDBRANCH   9  11
ENDBRANCH   1   9
BRANCH   4  18
HETATM   18  N6  UNL     1      -0.942   5.380  12.579  1.00  0.00    -0.323 N 
ATOM     19  H62 UNL     1      -0.083   4.845  12.459  1.00  0.00     0.179 HD
ATOM     20  H61 UNL     1      -1.706   4.904  13.058  1.00  0.00     0.179 HD
ENDBRANCH   4  18
TORSDOF 3
ENDMDL
MODEL 5
REMARK VINA RESULT: -6.377058359      1.587      1.967
REMARK  3 active torsions:
REMARK  status: ('A' for Active; 'I' for Inactive)
REMARK       I    between atoms: N1_1  and  C1_4 
REMARK       I    between atoms: C1_4  and  N3_6 
REMARK    1  A    between atoms: N3_6  and  N4_8 
REMARK    2  A    between atoms: N4_8  and  C2_10 
REMARK    3  A    between atoms: N5_13  and  N6_14 
ROOT
HETATM    1  C2  UNL     1      -1.552   8.937   9.714  1.00  0.00     0.137 A 
HETATM    2  C3  UNL     1      -2.365   9.005  10.826  1.00  0.00     0.072 A 
HETATM    3  C4  UNL     1      -1.852   8.567  12.035  1.00  0.00     0.141 A 
HETATM    4  N5  UNL     1      -0.603   8.081  12.173  1.00  0.00    -0.200 N 
HETATM    5  N7  UNL     1       0.132   8.040  11.073  1.00  0.00    -0.221 N 
ATOM      6  H7  UNL     1       1.084   7.679  11.138  1.00  0.00     0.210 HD
HETATM    7  N8  UNL     1      -0.312   8.447   9.886  1.00  0.00    -0.268 N 
ATOM      8  H8  UNL     1       0.310   8.386   9.079  1.00  0.00     0.190 HD
ENDROOT
BRANCH   1   9
HETATM    9  N4  UNL     1      -1.909   9.311   8.533  1.00  0.00    -0.282 N 
ATOM     10  H4  UNL     1      -2.764   8.914   8.143  1.00  0.00     0.188 HD
BRANCH   9  11
HETATM   11  N3  UNL     1      -1.206  10.217   7.762  1.00  0.00    -0.272 N 
HETATM   12  C1  UNL     1      -0.565  11.302   8.389  1.00  0.00     0.200 C 
HETATM   13  N1  UNL     1      -1.245  12.293   8.804  1.00  0.00    -0.372 N 
HETATM   14  N2  UNL     1       0.833  11.277   8.548  1.00  0.00    -0.062 NA
ATOM     15  H12 UNL     1      -0.780  13.079   9.258  1.00  0.00     0.158 HD
ATOM     16  H11 UNL     1      -2.258  12.311   8.689  1.00  0.00     0.158 HD
ATOM     17  H3  UNL     1      -1.151  10.100   6.750  1.00  0.00     0.189 HD
ENDBRANCH   9  11
ENDBRANCH   1   9
BRANCH   4  18
HETATM   18  N6  UNL     1      -0.104   7.642  13.415  1.00  0.00    -0.323 N 
ATOM     19  H62 UNL     1      -0.626   6.995  14.005  1.00  0.00     0.179 HD
ATOM     20  H61 UNL     1       0.799   7.951  13.777  1.00  0.00     0.179 HD
ENDBRANCH   4  18
TORSDOF 3
ENDMDL
