MODEL 1
REMARK VINA RESULT: -6.421313743      0.000      0.000
REMARK  3 active torsions:
REMARK  status: ('A' for Active; 'I' for Inactive)
REMARK    1  A    between atoms: C2_2  and  N1_3 
REMARK    2  A    between atoms: C2_2  and  C3_7 
REMARK       I    between atoms: C3_7  and  N2_9 
REMARK    3  A    between atoms: N2_9  and  N3_11 
ROOT
HETATM    1  C3  UNL     1      -1.224   8.914  11.116  1.00  0.00     0.267 C 
HETATM    2  O1  UNL     1      -0.798   8.258  10.135  1.00  0.00    -0.269 OA
HETATM    3  N2  UNL     1      -1.448  10.295  10.954  1.00  0.00    -0.244 N 
ATOM      4  H2  UNL     1      -1.795  10.848  11.738  1.00  0.00     0.192 HD
ENDROOT
BRANCH   3   5
HETATM    5  N3  UNL     1      -1.196  10.912   9.728  1.00  0.00    -0.124 N 
HETATM    6  N4  UNL     1      -2.021  10.966   8.580  1.00  0.00     0.019 NA
HETATM    7  N5  UNL     1      -1.123  10.880   7.532  1.00  0.00    -0.003 NA
HETATM    8  N6  UNL     1       0.030  11.572   7.912  1.00  0.00    -0.234 N 
HETATM    9  C4  UNL     1      -0.032  11.641   9.341  1.00  0.00     0.371 C 
ATOM     10  H6  UNL     1       0.757  11.947   7.304  1.00  0.00     0.189 HD
HETATM   11  O2  UNL     1       0.770  12.220  10.098  1.00  0.00    -0.242 OA
ENDBRANCH   3   5
BRANCH   1  12
HETATM   12  C2  UNL     1      -1.466   8.189  12.385  1.00  0.00     0.272 C 
HETATM   13  C1  UNL     1      -0.385   7.176  12.698  1.00  0.00     0.050 C 
BRANCH  12  14
HETATM   14  N1  UNL     1      -1.527   9.117  13.493  1.00  0.00    -0.067 N 
ATOM     15  H13 UNL     1      -0.999   8.800  14.307  1.00  0.00     0.275 HD
ATOM     16  H12 UNL     1      -1.004   9.976  13.321  1.00  0.00     0.275 HD
ATOM     17  H11 UNL     1      -2.511   9.285  13.699  1.00  0.00     0.275 HD
ENDBRANCH  12  14
ENDBRANCH   1  12
TORSDOF 3
ENDMDL
MODEL 2
REMARK VINA RESULT: -6.413748783      1.203      1.286
REMARK  3 active torsions:
REMARK  status: ('A' for Active; 'I' for Inactive)
REMARK    1  A    between atoms: C2_2  and  N1_3 
REMARK    2  A    between atoms: C2_2  and  C3_7 
REMARK       I    between atoms: C3_7  and  N2_9 
REMARK    3  A    between atoms: N2_9  and  N3_11 
ROOT
HETATM    1  C3  UNL     1      -0.122   8.204  10.474  1.00  0.00     0.267 C 
HETATM    2  O1  UNL     1       0.203   7.892   9.303  1.00  0.00    -0.269 OA
HETATM    3  N2  UNL     1      -0.627   9.497  10.709  1.00  0.00    -0.244 N 
ATOM      4  H2  UNL     1      -0.899   9.772  11.653  1.00  0.00     0.192 HD
ENDROOT
BRANCH   3   5
HETATM    5  N3  UNL     1      -0.756  10.406   9.658  1.00  0.00    -0.124 N 
HETATM    6  N4  UNL     1      -1.735  10.444   8.637  1.00  0.00     0.019 NA
HETATM    7  N5  UNL     1      -1.027  10.864   7.526  1.00  0.00    -0.003 NA
HETATM    8  N6  UNL     1      -0.070  11.782   7.963  1.00  0.00    -0.234 N 
HETATM    9  C4  UNL     1       0.081  11.524   9.364  1.00  0.00     0.371 C 
ATOM     10  H6  UNL     1       0.417  12.484   7.406  1.00  0.00     0.189 HD
HETATM   11  O2  UNL     1       0.798  12.149  10.167  1.00  0.00    -0.242 OA
ENDBRANCH   3   5
BRANCH   1  12
HETATM   12  C2  UNL     1       0.046   7.185  11.536  1.00  0.00     0.272 C 
HETATM   13  C1  UNL     1       1.368   6.452  11.444  1.00  0.00     0.050 C 
BRANCH  12  14
HETATM   14  N1  UNL     1      -0.019   7.803  12.843  1.00  0.00    -0.067 N 
ATOM     15  H13 UNL     1      -0.958   7.794  13.241  1.00  0.00     0.275 HD
ATOM     16  H12 UNL     1       0.438   7.249  13.567  1.00  0.00     0.275 HD
ATOM     17  H11 UNL     1       0.367   8.743  12.758  1.00  0.00     0.275 HD
ENDBRANCH  12  14
ENDBRANCH   1  12
TORSDOF 3
ENDMDL
MODEL 3
REMARK VINA RESULT: -6.385938897      1.498      1.697
REMARK  3 active torsions:
REMARK  status: ('A' for Active; 'I' for Inactive)
REMARK    1  A    between atoms: C2_2  and  N1_3 
REMARK    2  A    between atoms: C2_2  and  C3_7 
REMARK       I    between atoms: C3_7  and  N2_9 
REMARK    3  A    between atoms: N2_9  and  N3_11 
ROOT
HETATM    1  C3  UNL     1      -1.529   8.667  11.350  1.00  0.00     0.267 C 
HETATM    2  O1  UNL     1      -1.552   7.880  10.374  1.00  0.00    -0.269 OA
HETATM    3  N2  UNL     1      -1.108   9.994  11.133  1.00  0.00    -0.244 N 
ATOM      4  H2  UNL     1      -1.082  10.651  11.912  1.00  0.00     0.192 HD
ENDROOT
BRANCH   3   5
HETATM    5  N3  UNL     1      -0.726  10.413   9.858  1.00  0.00    -0.124 N 
HETATM    6  N4  UNL     1       0.539  10.302   9.233  1.00  0.00     0.019 NA
HETATM    7  N5  UNL     1       0.643  11.475   8.507  1.00  0.00    -0.003 NA
HETATM    8  N6  UNL     1      -0.632  11.786   8.030  1.00  0.00    -0.234 N 
HETATM    9  C4  UNL     1      -1.533  11.061   8.875  1.00  0.00     0.371 C 
ATOM     10  H6  UNL     1      -0.871  12.398   7.250  1.00  0.00     0.189 HD
HETATM   11  O2  UNL     1      -2.772  11.005   8.775  1.00  0.00    -0.242 OA
ENDBRANCH   3   5
BRANCH   1  12
HETATM   12  C2  UNL     1      -1.947   8.147  12.672  1.00  0.00     0.272 C 
HETATM   13  C1  UNL     1      -1.513   6.715  12.905  1.00  0.00     0.050 C 
BRANCH  12  14
HETATM   14  N1  UNL     1      -1.381   8.951  13.734  1.00  0.00    -0.067 N 
ATOM     15  H13 UNL     1      -2.054   9.599  14.145  1.00  0.00     0.275 HD
ATOM     16  H12 UNL     1      -1.181   8.413  14.577  1.00  0.00     0.275 HD
ATOM     17  H11 UNL     1      -0.557   9.421  13.357  1.00  0.00     0.275 HD
ENDBRANCH  12  14
ENDBRANCH   1  12
TORSDOF 3
ENDMDL
MODEL 4
REMARK VINA RESULT: -6.220715753      1.336      1.474
REMARK  3 active torsions:
REMARK  status: ('A' for Active; 'I' for Inactive)
REMARK    1  A    between atoms: C2_2  and  N1_3 
REMARK    2  A    between atoms: C2_2  and  C3_7 
REMARK       I    between atoms: C3_7  and  N2_9 
REMARK    3  A    between atoms: N2_9  and  N3_11 
ROOT
HETATM    1  C3  UNL     1      -1.736   8.955  11.670  1.00  0.00     0.267 C 
HETATM    2  O1  UNL     1      -2.059   8.051  10.863  1.00  0.00    -0.269 OA
HETATM    3  N2  UNL     1      -1.540  10.259  11.174  1.00  0.00    -0.244 N 
ATOM      4  H2  UNL     1      -1.278  11.010  11.812  1.00  0.00     0.192 HD
ENDROOT
BRANCH   3   5
HETATM    5  N3  UNL     1      -1.700  10.528   9.814  1.00  0.00    -0.124 N 
HETATM    6  N4  UNL     1      -2.878  10.892   9.118  1.00  0.00     0.019 NA
HETATM    7  N5  UNL     1      -2.747  10.246   7.903  1.00  0.00    -0.003 NA
HETATM    8  N6  UNL     1      -1.392  10.268   7.562  1.00  0.00    -0.234 N 
HETATM    9  C4  UNL     1      -0.702  10.499   8.796  1.00  0.00     0.371 C 
ATOM     10  H6  UNL     1      -0.983  10.145   6.636  1.00  0.00     0.189 HD
HETATM   11  O2  UNL     1       0.525  10.645   8.951  1.00  0.00    -0.242 OA
ENDBRANCH   3   5
BRANCH   1  12
HETATM   12  C2  UNL     1      -1.583   8.591  13.098  1.00  0.00     0.272 C 
HETATM   13  C1  UNL     1      -2.558   7.520  13.539  1.00  0.00     0.050 C 
BRANCH  12  14
HETATM   14  N1  UNL     1      -0.248   8.096  13.352  1.00  0.00    -0.067 N 
ATOM     15  H13 UNL     1      -0.079   7.896  14.338  1.00  0.00     0.275 HD
ATOM     16  H12 UNL     1      -0.100   7.151  12.998  1.00  0.00     0.275 HD
ATOM     17  H11 UNL     1       0.410   8.773  12.966  1.00  0.00     0.275 HD
ENDBRANCH  12  14
ENDBRANCH   1  12
TORSDOF 3
ENDMDL
MODEL 5
REMARK VINA RESULT: -6.153659294      1.981      2.206
REMARK  3 active torsions:
REMARK  status: ('A' for Active; 'I' for Inactive)
REMARK    1  A    between atoms: C2_2  and  N1_3 
REMARK    2  A    between atoms: C2_2  and  C3_7 
REMARK       I    between atoms: C3_7  and  N2_9 
REMARK    3  A    between atoms: N2_9  and  N3_11 
ROOT
HETATM    1  C3  UNL     1      -1.328   8.528  11.841  1.00  0.00     0.267 C 
HETATM    2  O1  UNL     1      -1.305   7.506  11.113  1.00  0.00    -0.269 OA
HETATM    3  N2  UNL     1      -1.252   9.793  11.226  1.00  0.00    -0.244 N 
ATOM      4  H2  UNL     1      -1.270  10.637  11.798  1.00  0.00     0.192 HD
ENDROOT
BRANCH   3   5
HETATM    5  N3  UNL     1      -1.151   9.897   9.838  1.00  0.00    -0.124 N 
HETATM    6  N4  UNL     1       0.011  10.047   9.045  1.00  0.00     0.019 NA
HETATM    7  N5  UNL     1      -0.398  10.890   8.028  1.00  0.00    -0.003 NA
HETATM    8  N6  UNL     1      -1.724  10.568   7.727  1.00  0.00    -0.234 N 
HETATM    9  C4  UNL     1      -2.211   9.877   8.883  1.00  0.00     0.371 C 
ATOM     10  H6  UNL     1      -2.234  10.780   6.869  1.00  0.00     0.189 HD
HETATM   11  O2  UNL     1      -3.335   9.362   9.028  1.00  0.00    -0.242 OA
ENDBRANCH   3   5
BRANCH   1  12
HETATM   12  C2  UNL     1      -1.435   8.336  13.306  1.00  0.00     0.272 C 
HETATM   13  C1  UNL     1      -2.549   7.386  13.694  1.00  0.00     0.050 C 
BRANCH  12  14
HETATM   14  N1  UNL     1      -0.201   7.798  13.836  1.00  0.00    -0.067 N 
ATOM     15  H13 UNL     1      -0.318   7.361  14.750  1.00  0.00     0.275 HD
ATOM     16  H12 UNL     1       0.121   6.971  13.333  1.00  0.00     0.275 HD
ATOM     17  H11 UNL     1       0.485   8.552  13.841  1.00  0.00     0.275 HD
ENDBRANCH  12  14
ENDBRANCH   1  12
TORSDOF 3
ENDMDL
