MODEL 1
REMARK VINA RESULT: -6.372072598      0.000      0.000
REMARK  4 active torsions:
REMARK  status: ('A' for Active; 'I' for Inactive)
REMARK    1  A    between atoms: N1_1  and  N2_4 
REMARK       I    between atoms: N2_4  and  C1_6 
REMARK       I    between atoms: C1_6  and  N3_8 
REMARK    2  A    between atoms: N3_8  and  N4_9 
REMARK    3  A    between atoms: N4_9  and  C2_10 
REMARK    4  A    between atoms: N8_17  and  O2_18 
ROOT
HETATM    1  C2  UNL     1      -0.122  10.261   9.416  1.00  0.00     0.355 A 
HETATM    2  N5  UNL     1       0.269  11.156  10.390  1.00  0.00    -0.238 N 
ATOM      3  H5  UNL     1       0.705  10.911  11.279  1.00  0.00     0.193 HD
HETATM    4  N6  UNL     1      -0.004  12.351   9.998  1.00  0.00    -0.222 N 
ATOM      5  H6  UNL     1       0.176  13.208  10.520  1.00  0.00     0.210 HD
HETATM    6  N7  UNL     1      -0.547  12.277   8.826  1.00  0.00    -0.197 N 
ATOM      7  H7  UNL     1      -0.858  13.089   8.293  1.00  0.00     0.212 HD
HETATM    8  N8  UNL     1      -0.652  11.056   8.405  1.00  0.00    -0.095 N 
ENDROOT
BRANCH   1   9
HETATM    9  N4  UNL     1      -0.072   9.070   9.396  1.00  0.00    -0.200 NA
BRANCH   9  10
HETATM   10  N3  UNL     1      -0.030   7.831   9.416  1.00  0.00    -0.180 NA
HETATM   11  C1  UNL     1       0.017   6.475   9.438  1.00  0.00     0.442 C 
HETATM   12  N2  UNL     1       0.344   5.831   8.207  1.00  0.00    -0.244 N 
HETATM   13  O1  UNL     1      -0.197   5.717  10.408  1.00  0.00    -0.226 OA
ATOM     14  H2  UNL     1       0.533   6.372   7.363  1.00  0.00     0.192 HD
BRANCH  12  15
HETATM   15  N1  UNL     1       0.398   4.445   8.196  1.00  0.00    -0.340 N 
ATOM     16  H12 UNL     1      -0.458   3.898   8.289  1.00  0.00     0.177 HD
ATOM     17  H11 UNL     1       1.312   4.005   8.092  1.00  0.00     0.177 HD
ENDBRANCH  12  15
ENDBRANCH   9  10
ENDBRANCH   1   9
BRANCH   8  18
HETATM   18  O2  UNL     1      -1.160  10.525   7.247  1.00  0.00    -0.263 OA
ATOM     19  H2  UNL     1      -2.042  10.712   6.948  1.00  0.00     0.247 HD
ENDBRANCH   8  18
TORSDOF 4
ENDMDL
MODEL 2
REMARK VINA RESULT: -6.208941498      1.129      1.129
REMARK  4 active torsions:
REMARK  status: ('A' for Active; 'I' for Inactive)
REMARK    1  A    between atoms: N1_1  and  N2_4 
REMARK       I    between atoms: N2_4  and  C1_6 
REMARK       I    between atoms: C1_6  and  N3_8 
REMARK    2  A    between atoms: N3_8  and  N4_9 
REMARK    3  A    between atoms: N4_9  and  C2_10 
REMARK    4  A    between atoms: N8_17  and  O2_18 
ROOT
HETATM    1  C2  UNL     1      -0.100  10.228   9.387  1.00  0.00     0.355 A 
HETATM    2  N5  UNL     1       0.279  11.096  10.391  1.00  0.00    -0.238 N 
ATOM      3  H5  UNL     1       0.722  10.828  11.269  1.00  0.00     0.193 HD
HETATM    4  N6  UNL     1      -0.017  12.299  10.040  1.00  0.00    -0.222 N 
ATOM      5  H6  UNL     1       0.150  13.140  10.591  1.00  0.00     0.210 HD
HETATM    6  N7  UNL     1      -0.563  12.254   8.868  1.00  0.00    -0.197 N 
ATOM      7  H7  UNL     1      -0.889  13.079   8.363  1.00  0.00     0.212 HD
HETATM    8  N8  UNL     1      -0.648  11.047   8.405  1.00  0.00    -0.095 N 
ENDROOT
BRANCH   1   9
HETATM    9  N4  UNL     1      -0.029   9.039   9.327  1.00  0.00    -0.200 NA
BRANCH   9  10
HETATM   10  N3  UNL     1       0.060   7.803   9.302  1.00  0.00    -0.180 NA
HETATM   11  C1  UNL     1       0.159   6.450   9.276  1.00  0.00     0.442 C 
HETATM   12  N2  UNL     1      -0.504   5.743  10.324  1.00  0.00    -0.244 N 
HETATM   13  O1  UNL     1       0.765   5.742   8.443  1.00  0.00    -0.226 OA
ATOM     14  H2  UNL     1      -1.022   6.240  11.049  1.00  0.00     0.192 HD
BRANCH  12  15
HETATM   15  N1  UNL     1      -0.421   4.359  10.326  1.00  0.00    -0.340 N 
ATOM     16  H12 UNL     1       0.218   3.883   9.689  1.00  0.00     0.177 HD
ATOM     17  H11 UNL     1      -1.014   3.847  10.979  1.00  0.00     0.177 HD
ENDBRANCH  12  15
ENDBRANCH   9  10
ENDBRANCH   1   9
BRANCH   8  18
HETATM   18  O2  UNL     1      -1.150  10.547   7.232  1.00  0.00    -0.263 OA
ATOM     19  H2  UNL     1      -2.061  10.296   7.137  1.00  0.00     0.247 HD
ENDBRANCH   8  18
TORSDOF 4
ENDMDL
MODEL 3
REMARK VINA RESULT: -5.957751387      1.440      1.590
REMARK  4 active torsions:
REMARK  status: ('A' for Active; 'I' for Inactive)
REMARK    1  A    between atoms: N1_1  and  N2_4 
REMARK       I    between atoms: N2_4  and  C1_6 
REMARK       I    between atoms: C1_6  and  N3_8 
REMARK    2  A    between atoms: N3_8  and  N4_9 
REMARK    3  A    between atoms: N4_9  and  C2_10 
REMARK    4  A    between atoms: N8_17  and  O2_18 
ROOT
HETATM    1  C2  UNL     1      -0.600   8.915   9.966  1.00  0.00     0.355 A 
HETATM    2  N5  UNL     1      -0.714   9.430  11.241  1.00  0.00    -0.238 N 
ATOM      3  H5  UNL     1      -0.471   8.940  12.102  1.00  0.00     0.193 HD
HETATM    4  N6  UNL     1      -1.175  10.630  11.170  1.00  0.00    -0.222 N 
ATOM      5  H6  UNL     1      -1.360  11.248  11.960  1.00  0.00     0.210 HD
HETATM    6  N7  UNL     1      -1.362  10.917   9.922  1.00  0.00    -0.197 N 
ATOM      7  H7  UNL     1      -1.723  11.813   9.595  1.00  0.00     0.212 HD
HETATM    8  N8  UNL     1      -1.039   9.940   9.135  1.00  0.00    -0.095 N 
ENDROOT
BRANCH   1   9
HETATM    9  N4  UNL     1      -0.243   7.838   9.598  1.00  0.00    -0.200 NA
BRANCH   9  10
HETATM   10  N3  UNL     1       0.090   6.712   9.201  1.00  0.00    -0.180 NA
HETATM   11  C1  UNL     1       0.454   5.479   8.767  1.00  0.00     0.442 C 
HETATM   12  N2  UNL     1       0.241   5.204   7.383  1.00  0.00    -0.244 N 
HETATM   13  O1  UNL     1       0.951   4.548   9.436  1.00  0.00    -0.226 OA
ATOM     14  H2  UNL     1      -0.162   5.906   6.762  1.00  0.00     0.192 HD
BRANCH  12  15
HETATM   15  N1  UNL     1       0.601   3.951   6.909  1.00  0.00    -0.340 N 
ATOM     16  H12 UNL     1       0.110   3.119   7.235  1.00  0.00     0.177 HD
ATOM     17  H11 UNL     1       1.363   3.899   6.233  1.00  0.00     0.177 HD
ENDBRANCH  12  15
ENDBRANCH   9  10
ENDBRANCH   1   9
BRANCH   8  18
HETATM   18  O2  UNL     1      -1.080   9.809   7.771  1.00  0.00    -0.263 OA
ATOM     19  H2  UNL     1      -0.525   9.195   7.304  1.00  0.00     0.247 HD
ENDBRANCH   8  18
TORSDOF 4
ENDMDL
MODEL 4
REMARK VINA RESULT: -5.884074636      3.058      3.686
REMARK  4 active torsions:
REMARK  status: ('A' for Active; 'I' for Inactive)
REMARK    1  A    between atoms: N1_1  and  N2_4 
REMARK       I    between atoms: N2_4  and  C1_6 
REMARK       I    between atoms: C1_6  and  N3_8 
REMARK    2  A    between atoms: N3_8  and  N4_9 
REMARK    3  A    between atoms: N4_9  and  C2_10 
REMARK    4  A    between atoms: N8_17  and  O2_18 
ROOT
HETATM    1  C2  UNL     1      -1.129  10.076   9.630  1.00  0.00     0.355 A 
HETATM    2  N5  UNL     1      -1.593   9.735   8.375  1.00  0.00    -0.238 N 
ATOM      3  H5  UNL     1      -2.112   8.888   8.147  1.00  0.00     0.193 HD
HETATM    4  N6  UNL     1      -1.265  10.659   7.540  1.00  0.00    -0.222 N 
ATOM      5  H6  UNL     1      -1.478  10.666   6.543  1.00  0.00     0.210 HD
HETATM    6  N7  UNL     1      -0.619  11.575   8.186  1.00  0.00    -0.197 N 
ATOM      7  H7  UNL     1      -0.248  12.420   7.750  1.00  0.00     0.212 HD
HETATM    8  N8  UNL     1      -0.496  11.301   9.446  1.00  0.00    -0.095 N 
ENDROOT
BRANCH   1   9
HETATM    9  N4  UNL     1      -1.197   9.488  10.664  1.00  0.00    -0.200 NA
BRANCH   9  10
HETATM   10  N3  UNL     1      -1.272   8.841  11.719  1.00  0.00    -0.180 NA
HETATM   11  C1  UNL     1      -1.354   8.132  12.873  1.00  0.00     0.442 C 
HETATM   12  N2  UNL     1      -0.118   7.726  13.460  1.00  0.00    -0.244 N 
HETATM   13  O1  UNL     1      -2.386   7.786  13.488  1.00  0.00    -0.226 OA
ATOM     14  H2  UNL     1       0.774   7.964  13.025  1.00  0.00     0.192 HD
BRANCH  12  15
HETATM   15  N1  UNL     1      -0.168   6.999  14.640  1.00  0.00    -0.340 N 
ATOM     16  H12 UNL     1      -0.881   7.206  15.339  1.00  0.00     0.177 HD
ATOM     17  H11 UNL     1       0.525   6.263  14.775  1.00  0.00     0.177 HD
ENDBRANCH  12  15
ENDBRANCH   9  10
ENDBRANCH   1   9
BRANCH   8  18
HETATM   18  O2  UNL     1       0.106  11.975  10.477  1.00  0.00    -0.263 OA
ATOM     19  H2  UNL     1       0.543  12.809  10.351  1.00  0.00     0.247 HD
ENDBRANCH   8  18
TORSDOF 4
ENDMDL
MODEL 5
REMARK VINA RESULT: -5.822461737      3.282      3.619
REMARK  4 active torsions:
REMARK  status: ('A' for Active; 'I' for Inactive)
REMARK    1  A    between atoms: N1_1  and  N2_4 
REMARK       I    between atoms: N2_4  and  C1_6 
REMARK       I    between atoms: C1_6  and  N3_8 
REMARK    2  A    between atoms: N3_8  and  N4_9 
REMARK    3  A    between atoms: N4_9  and  C2_10 
REMARK    4  A    between atoms: N8_17  and  O2_18 
ROOT
HETATM    1  C2  UNL     1      -1.223  10.508  10.382  1.00  0.00     0.355 A 
HETATM    2  N5  UNL     1      -0.241  11.458  10.188  1.00  0.00    -0.238 N 
ATOM      3  H5  UNL     1       0.579  11.591  10.779  1.00  0.00     0.193 HD
HETATM    4  N6  UNL     1      -0.527  12.150   9.141  1.00  0.00    -0.222 N 
ATOM      5  H6  UNL     1       0.025  12.921   8.764  1.00  0.00     0.210 HD
HETATM    6  N7  UNL     1      -1.635  11.698   8.648  1.00  0.00    -0.197 N 
ATOM      7  H7  UNL     1      -2.079  12.077   7.812  1.00  0.00     0.212 HD
HETATM    8  N8  UNL     1      -2.116  10.710   9.335  1.00  0.00    -0.095 N 
ENDROOT
BRANCH   1   9
HETATM    9  N4  UNL     1      -1.349   9.693  11.242  1.00  0.00    -0.200 NA
BRANCH   9  10
HETATM   10  N3  UNL     1      -1.448   8.862  12.157  1.00  0.00    -0.180 NA
HETATM   11  C1  UNL     1      -1.556   7.952  13.158  1.00  0.00     0.442 C 
HETATM   12  N2  UNL     1      -0.373   7.694  13.913  1.00  0.00    -0.244 N 
HETATM   13  O1  UNL     1      -2.570   7.306  13.499  1.00  0.00    -0.226 OA
ATOM     14  H2  UNL     1       0.501   8.175  13.703  1.00  0.00     0.192 HD
BRANCH  12  15
HETATM   15  N1  UNL     1      -0.450   6.768  14.943  1.00  0.00    -0.340 N 
ATOM     16  H12 UNL     1      -1.235   6.791  15.594  1.00  0.00     0.177 HD
ATOM     17  H11 UNL     1       0.295   6.076  15.018  1.00  0.00     0.177 HD
ENDBRANCH  12  15
ENDBRANCH   9  10
ENDBRANCH   1   9
BRANCH   8  18
HETATM   18  O2  UNL     1      -3.246   9.950   9.180  1.00  0.00    -0.263 OA
ATOM     19  H2  UNL     1      -3.803  10.020   8.414  1.00  0.00     0.247 HD
ENDBRANCH   8  18
TORSDOF 4
ENDMDL
