MODEL 1
REMARK VINA RESULT: -6.469762946      0.000      0.000
REMARK  5 active torsions:
REMARK  status: ('A' for Active; 'I' for Inactive)
REMARK    1  A    between atoms: N1_1  and  C1_4 
REMARK    2  A    between atoms: C2_7  and  C3_8 
REMARK    3  A    between atoms: C3_8  and  N3_9 
REMARK    4  A    between atoms: C3_8  and  N4_13 
REMARK    5  A    between atoms: C5_21  and  N6_22 
ROOT
HETATM    1  C1  UNL     1       0.207   9.516  11.462  1.00  0.00     0.690 C 
HETATM    2  N2  UNL     1       0.545  10.670  10.818  1.00  0.00    -0.186 N 
ATOM      3  H2  UNL     1       0.716  11.468  11.430  1.00  0.00     0.184 HD
HETATM    4  C2  UNL     1       0.689  10.924   9.507  1.00  0.00     0.152 C 
HETATM    5  C4  UNL     1       0.302  10.084   8.486  1.00  0.00     0.286 C 
HETATM    6  O1  UNL     1       0.348  10.556   7.325  1.00  0.00    -0.265 OA
HETATM    7  N5  UNL     1      -0.134   8.799   8.514  1.00  0.00    -0.154 N 
ATOM      8  H5  UNL     1      -0.504   8.415   7.645  1.00  0.00     0.187 HD
HETATM    9  C5  UNL     1      -0.121   7.982   9.589  1.00  0.00     0.693 C 
HETATM   10  N7  UNL     1      -0.048   8.323  10.898  1.00  0.00    -0.023 N 
ATOM     11  H7  UNL     1      -0.212   7.559  11.553  1.00  0.00     0.203 HD
ENDROOT
BRANCH   4  12
HETATM   12  C3  UNL     1       1.316  12.211   9.112  1.00  0.00     0.433 C 
BRANCH  12  13
HETATM   13  N3  UNL     1       1.779  12.933  10.309  1.00  0.00    -0.045 N 
ATOM     14  H33 UNL     1       1.825  12.327  11.128  1.00  0.00     0.277 HD
ATOM     15  H32 UNL     1       2.767  13.178  10.250  1.00  0.00     0.277 HD
ATOM     16  H31 UNL     1       1.191  13.751  10.471  1.00  0.00     0.277 HD
ENDBRANCH  12  13
BRANCH  12  17
HETATM   17  N4  UNL     1       0.385  13.046   8.389  1.00  0.00    -0.045 N 
ATOM     18  H43 UNL     1      -0.517  12.585   8.270  1.00  0.00     0.277 HD
ATOM     19  H42 UNL     1       0.080  13.841   8.950  1.00  0.00     0.277 HD
ATOM     20  H41 UNL     1       0.775  13.345   7.495  1.00  0.00     0.277 HD
ENDBRANCH  12  17
ENDBRANCH   4  12
BRANCH   1  21
HETATM   21  N1  UNL     1       0.118   9.551  12.749  1.00  0.00    -0.234 N 
ATOM     22  H12 UNL     1      -0.172  10.445  13.145  1.00  0.00     0.174 HD
ATOM     23  H11 UNL     1       0.341   8.698  13.263  1.00  0.00     0.174 HD
ENDBRANCH   1  21
BRANCH   9  24
HETATM   24  N6  UNL     1      -0.184   6.704   9.386  1.00  0.00    -0.234 N 
ATOM     25  H62 UNL     1      -1.101   6.304   9.583  1.00  0.00     0.174 HD
ATOM     26  H61 UNL     1       0.656   6.227   9.058  1.00  0.00     0.174 HD
ENDBRANCH   9  24
TORSDOF 5
ENDMDL
MODEL 2
REMARK VINA RESULT: -6.468344540      1.596      3.834
REMARK  5 active torsions:
REMARK  status: ('A' for Active; 'I' for Inactive)
REMARK    1  A    between atoms: N1_1  and  C1_4 
REMARK    2  A    between atoms: C2_7  and  C3_8 
REMARK    3  A    between atoms: C3_8  and  N3_9 
REMARK    4  A    between atoms: C3_8  and  N4_13 
REMARK    5  A    between atoms: C5_21  and  N6_22 
ROOT
HETATM    1  C1  UNL     1       0.963  11.544   9.958  1.00  0.00     0.690 C 
HETATM    2  N2  UNL     1       0.861  10.530  10.864  1.00  0.00    -0.186 N 
ATOM      3  H2  UNL     1       1.222  10.747  11.793  1.00  0.00     0.184 HD
HETATM    4  C2  UNL     1       0.360   9.291  10.729  1.00  0.00     0.152 C 
HETATM    5  C4  UNL     1       0.023   8.693   9.534  1.00  0.00     0.286 C 
HETATM    6  O1  UNL     1      -0.261   7.473   9.579  1.00  0.00    -0.265 OA
HETATM    7  N5  UNL     1      -0.058   9.206   8.280  1.00  0.00    -0.154 N 
ATOM      8  H5  UNL     1      -0.189   8.544   7.515  1.00  0.00     0.187 HD
HETATM    9  C5  UNL     1       0.019  10.514   7.953  1.00  0.00     0.693 C 
HETATM   10  N7  UNL     1       0.548  11.528   8.678  1.00  0.00    -0.023 N 
ATOM     11  H7  UNL     1       0.647  12.411   8.179  1.00  0.00     0.203 HD
ENDROOT
BRANCH   4  12
HETATM   12  C3  UNL     1       0.145   8.489  11.961  1.00  0.00     0.433 C 
BRANCH  12  13
HETATM   13  N3  UNL     1      -1.297   8.362  12.233  1.00  0.00    -0.045 N 
ATOM     14  H33 UNL     1      -1.483   8.149  13.213  1.00  0.00     0.277 HD
ATOM     15  H32 UNL     1      -1.776   9.261  12.183  1.00  0.00     0.277 HD
ATOM     16  H31 UNL     1      -1.710   7.672  11.605  1.00  0.00     0.277 HD
ENDBRANCH  12  13
BRANCH  12  17
HETATM   17  N4  UNL     1       0.787   9.101  13.101  1.00  0.00    -0.045 N 
ATOM     18  H43 UNL     1       1.413   9.855  12.819  1.00  0.00     0.277 HD
ATOM     19  H42 UNL     1       0.127   9.645  13.656  1.00  0.00     0.277 HD
ATOM     20  H41 UNL     1       1.271   8.405  13.668  1.00  0.00     0.277 HD
ENDBRANCH  12  17
ENDBRANCH   4  12
BRANCH   1  21
HETATM   21  N1  UNL     1       1.512  12.645  10.348  1.00  0.00    -0.234 N 
ATOM     22  H12 UNL     1       2.150  12.560  11.140  1.00  0.00     0.174 HD
ATOM     23  H11 UNL     1       1.272  13.499   9.845  1.00  0.00     0.174 HD
ENDBRANCH   1  21
BRANCH   9  24
HETATM   24  N6  UNL     1      -0.462  10.887   6.810  1.00  0.00    -0.234 N 
ATOM     25  H62 UNL     1      -1.451  10.669   6.691  1.00  0.00     0.174 HD
ATOM     26  H61 UNL     1       0.166  11.350   6.152  1.00  0.00     0.174 HD
ENDBRANCH   9  24
TORSDOF 5
ENDMDL
MODEL 3
REMARK VINA RESULT: -6.192911445      1.878      4.687
REMARK  5 active torsions:
REMARK  status: ('A' for Active; 'I' for Inactive)
REMARK    1  A    between atoms: N1_1  and  C1_4 
REMARK    2  A    between atoms: C2_7  and  C3_8 
REMARK    3  A    between atoms: C3_8  and  N3_9 
REMARK    4  A    between atoms: C3_8  and  N4_13 
REMARK    5  A    between atoms: C5_21  and  N6_22 
ROOT
HETATM    1  C1  UNL     1       0.032  10.518   7.949  1.00  0.00     0.690 C 
HETATM    2  N2  UNL     1       0.186   9.180   8.162  1.00  0.00    -0.186 N 
ATOM      3  H2  UNL     1      -0.136   8.585   7.399  1.00  0.00     0.184 HD
HETATM    4  C2  UNL     1       0.695   8.521   9.215  1.00  0.00     0.152 C 
HETATM    5  C4  UNL     1       0.987   9.080  10.441  1.00  0.00     0.286 C 
HETATM    6  O1  UNL     1       1.287   8.284  11.362  1.00  0.00    -0.265 OA
HETATM    7  N5  UNL     1       1.007  10.377  10.839  1.00  0.00    -0.154 N 
ATOM      8  H5  UNL     1       1.112  10.554  11.838  1.00  0.00     0.187 HD
HETATM    9  C5  UNL     1       0.900  11.454  10.033  1.00  0.00     0.693 C 
HETATM   10  N7  UNL     1       0.391  11.514   8.779  1.00  0.00    -0.023 N 
ATOM     11  H7  UNL     1       0.259  12.455   8.410  1.00  0.00     0.203 HD
ENDROOT
BRANCH   4  12
HETATM   12  C3  UNL     1       0.973   7.070   9.060  1.00  0.00     0.433 C 
BRANCH  12  13
HETATM   13  N3  UNL     1       1.668   6.825   7.785  1.00  0.00    -0.045 N 
ATOM     14  H33 UNL     1       1.015   6.665   7.018  1.00  0.00     0.277 HD
ATOM     15  H32 UNL     1       2.116   7.667   7.425  1.00  0.00     0.277 HD
ATOM     16  H31 UNL     1       2.330   6.055   7.891  1.00  0.00     0.277 HD
ENDBRANCH  12  13
BRANCH  12  17
HETATM   17  N4  UNL     1      -0.247   6.298   9.087  1.00  0.00    -0.045 N 
ATOM     18  H43 UNL     1      -1.031   6.849   9.437  1.00  0.00     0.277 HD
ATOM     19  H42 UNL     1      -0.595   6.113   8.146  1.00  0.00     0.277 HD
ATOM     20  H41 UNL     1      -0.127   5.436   9.619  1.00  0.00     0.277 HD
ENDBRANCH  12  17
ENDBRANCH   4  12
BRANCH   1  21
HETATM   21  N1  UNL     1      -0.513  10.891   6.840  1.00  0.00    -0.234 N 
ATOM     22  H12 UNL     1      -1.159  11.678   6.912  1.00  0.00     0.174 HD
ATOM     23  H11 UNL     1      -0.262  10.382   5.993  1.00  0.00     0.174 HD
ENDBRANCH   1  21
BRANCH   9  24
HETATM   24  N6  UNL     1       1.326  12.594  10.476  1.00  0.00    -0.234 N 
ATOM     25  H62 UNL     1       0.611  13.321  10.492  1.00  0.00     0.174 HD
ATOM     26  H61 UNL     1       2.303  12.664  10.762  1.00  0.00     0.174 HD
ENDBRANCH   9  24
TORSDOF 5
ENDMDL
MODEL 4
REMARK VINA RESULT: -6.106494447      5.001      7.447
REMARK  5 active torsions:
REMARK  status: ('A' for Active; 'I' for Inactive)
REMARK    1  A    between atoms: N1_1  and  C1_4 
REMARK    2  A    between atoms: C2_7  and  C3_8 
REMARK    3  A    between atoms: C3_8  and  N3_9 
REMARK    4  A    between atoms: C3_8  and  N4_13 
REMARK    5  A    between atoms: C5_21  and  N6_22 
ROOT
HETATM    1  C1  UNL     1      -1.322   9.487  15.526  1.00  0.00     0.690 C 
HETATM    2  N2  UNL     1      -1.194   8.404  16.345  1.00  0.00    -0.186 N 
ATOM      3  H2  UNL     1      -1.763   8.437  17.191  1.00  0.00     0.184 HD
HETATM    4  C2  UNL     1      -0.437   7.301  16.216  1.00  0.00     0.152 C 
HETATM    5  C4  UNL     1       0.567   7.128  15.289  1.00  0.00     0.286 C 
HETATM    6  O1  UNL     1       1.286   6.110  15.427  1.00  0.00    -0.265 OA
HETATM    7  N5  UNL     1       0.927   7.885  14.222  1.00  0.00    -0.154 N 
ATOM      8  H5  UNL     1       1.799   7.641  13.752  1.00  0.00     0.187 HD
HETATM    9  C5  UNL     1       0.235   8.933  13.726  1.00  0.00     0.693 C 
HETATM   10  N7  UNL     1      -0.705   9.684  14.347  1.00  0.00    -0.023 N 
ATOM     11  H7  UNL     1      -0.987  10.526  13.845  1.00  0.00     0.203 HD
ENDROOT
BRANCH   4  12
HETATM   12  C3  UNL     1      -0.696   6.169  17.142  1.00  0.00     0.433 C 
BRANCH  12  13
HETATM   13  N3  UNL     1      -2.141   6.050  17.400  1.00  0.00    -0.045 N 
ATOM     14  H33 UNL     1      -2.680   5.987  16.537  1.00  0.00     0.277 HD
ATOM     15  H32 UNL     1      -2.386   5.142  17.795  1.00  0.00     0.277 HD
ATOM     16  H31 UNL     1      -2.453   6.821  17.991  1.00  0.00     0.277 HD
ENDBRANCH  12  13
BRANCH  12  17
HETATM   17  N4  UNL     1      -0.006   6.352  18.398  1.00  0.00    -0.045 N 
ATOM     18  H43 UNL     1      -0.147   5.559  19.022  1.00  0.00     0.277 HD
ATOM     19  H42 UNL     1       1.005   6.284  18.284  1.00  0.00     0.277 HD
ATOM     20  H41 UNL     1      -0.276   7.231  18.841  1.00  0.00     0.277 HD
ENDBRANCH  12  17
ENDBRANCH   4  12
BRANCH   1  21
HETATM   21  N1  UNL     1      -2.116  10.433  15.901  1.00  0.00    -0.234 N 
ATOM     22  H12 UNL     1      -1.824  11.377  15.643  1.00  0.00     0.174 HD
ATOM     23  H11 UNL     1      -2.956  10.172  16.416  1.00  0.00     0.174 HD
ENDBRANCH   1  21
BRANCH   9  24
HETATM   24  N6  UNL     1       0.472   9.299  12.506  1.00  0.00    -0.234 N 
ATOM     25  H62 UNL     1       0.723  10.283  12.415  1.00  0.00     0.174 HD
ATOM     26  H61 UNL     1       0.392   8.597  11.769  1.00  0.00     0.174 HD
ENDBRANCH   9  24
TORSDOF 5
ENDMDL
MODEL 5
REMARK VINA RESULT: -6.093880185      1.727      3.187
REMARK  5 active torsions:
REMARK  status: ('A' for Active; 'I' for Inactive)
REMARK    1  A    between atoms: N1_1  and  C1_4 
REMARK    2  A    between atoms: C2_7  and  C3_8 
REMARK    3  A    between atoms: C3_8  and  N3_9 
REMARK    4  A    between atoms: C3_8  and  N4_13 
REMARK    5  A    between atoms: C5_21  and  N6_22 
ROOT
HETATM    1  C1  UNL     1       0.041   7.454   9.491  1.00  0.00     0.690 C 
HETATM    2  N2  UNL     1      -0.379   8.520   8.751  1.00  0.00    -0.186 N 
ATOM      3  H2  UNL     1      -0.868   8.277   7.889  1.00  0.00     0.184 HD
HETATM    4  C2  UNL     1      -0.254   9.838   8.976  1.00  0.00     0.152 C 
HETATM    5  C4  UNL     1       0.547  10.409   9.942  1.00  0.00     0.286 C 
HETATM    6  O1  UNL     1       0.680  11.655   9.894  1.00  0.00    -0.265 OA
HETATM    7  N5  UNL     1       1.238   9.846  10.965  1.00  0.00    -0.154 N 
ATOM      8  H5  UNL     1       1.885  10.447  11.475  1.00  0.00     0.187 HD
HETATM    9  C5  UNL     1       1.147   8.561  11.368  1.00  0.00     0.693 C 
HETATM   10  N7  UNL     1       0.685   7.495  10.671  1.00  0.00    -0.023 N 
ATOM     11  H7  UNL     1       0.852   6.588  11.106  1.00  0.00     0.203 HD
ENDROOT
BRANCH   4  12
HETATM   12  C3  UNL     1      -1.037  10.768   8.123  1.00  0.00     0.433 C 
BRANCH  12  13
HETATM   13  N3  UNL     1      -2.303  10.132   7.717  1.00  0.00    -0.045 N 
ATOM     14  H33 UNL     1      -2.273   9.803   6.752  1.00  0.00     0.277 HD
ATOM     15  H32 UNL     1      -2.443   9.232   8.177  1.00  0.00     0.277 HD
ATOM     16  H31 UNL     1      -3.081  10.771   7.881  1.00  0.00     0.277 HD
ENDBRANCH  12  13
BRANCH  12  17
HETATM   17  N4  UNL     1      -0.297  11.140   6.940  1.00  0.00    -0.045 N 
ATOM     18  H43 UNL     1       0.696  10.931   7.037  1.00  0.00     0.277 HD
ATOM     19  H42 UNL     1      -0.510  10.525   6.155  1.00  0.00     0.277 HD
ATOM     20  H41 UNL     1      -0.452  12.120   6.701  1.00  0.00     0.277 HD
ENDBRANCH  12  17
ENDBRANCH   4  12
BRANCH   1  21
HETATM   21  N1  UNL     1      -0.195   6.272   9.030  1.00  0.00    -0.234 N 
ATOM     22  H12 UNL     1      -0.021   6.148   8.032  1.00  0.00     0.174 HD
ATOM     23  H11 UNL     1      -0.532   5.566   9.684  1.00  0.00     0.174 HD
ENDBRANCH   1  21
BRANCH   9  24
HETATM   24  N6  UNL     1       1.542   8.267  12.566  1.00  0.00    -0.234 N 
ATOM     25  H62 UNL     1       2.552   8.160  12.650  1.00  0.00     0.174 HD
ATOM     26  H61 UNL     1       0.834   8.173  13.296  1.00  0.00     0.174 HD
ENDBRANCH   9  24
TORSDOF 5
ENDMDL
