MODEL 1
REMARK VINA RESULT: -7.223736258      0.000      0.000
REMARK  3 active torsions:
REMARK  status: ('A' for Active; 'I' for Inactive)
REMARK    1  A    between atoms: C2_3  and  N2_4 
REMARK    2  A    between atoms: C3_9  and  C4_10 
REMARK    3  A    between atoms: C6_14  and  N5_15 
ROOT
HETATM    1  C1  UNL     1      -1.753   8.186  12.045  1.00  0.00     0.177 C 
HETATM    2  N1  UNL     1      -1.011   9.103  11.224  1.00  0.00    -0.171 N 
HETATM    3  C2  UNL     1       0.096   9.661  11.742  1.00  0.00     0.680 A 
HETATM    4  N3  UNL     1       0.851  10.531  11.045  1.00  0.00    -0.186 N 
ATOM      5  H3  UNL     1       1.680  10.923  11.491  1.00  0.00     0.184 HD
HETATM    6  C3  UNL     1       0.553  10.913   9.765  1.00  0.00     0.131 A 
HETATM    7  C5  UNL     1      -0.561  10.362   9.221  1.00  0.00     0.087 A 
HETATM    8  C6  UNL     1      -1.166  10.497   7.994  1.00  0.00     0.130 A 
HETATM    9  N6  UNL     1      -2.265   9.687   8.033  1.00  0.00    -0.283 N 
ATOM     10  H6  UNL     1      -2.931   9.563   7.271  1.00  0.00     0.188 HD
HETATM   11  N7  UNL     1      -2.331   9.091   9.205  1.00  0.00    -0.282 N 
ATOM     12  H7  UNL     1      -3.060   8.434   9.484  1.00  0.00     0.188 HD
HETATM   13  C7  UNL     1      -1.317   9.467   9.972  1.00  0.00     0.154 A 
ENDROOT
BRANCH   3  14
HETATM   14  N2  UNL     1       0.461   9.364  12.946  1.00  0.00    -0.234 N 
ATOM     15  H22 UNL     1       1.401   9.626  13.242  1.00  0.00     0.174 HD
ATOM     16  H21 UNL     1      -0.188   8.882  13.568  1.00  0.00     0.174 HD
ENDBRANCH   3  14
BRANCH   6  17
HETATM   17  C4  UNL     1       1.441  11.845   9.140  1.00  0.00     0.283 C 
HETATM   18  N4  UNL     1       1.995  12.906   9.965  1.00  0.00    -0.056 NA
HETATM   19  O1  UNL     1       1.831  11.900   7.964  1.00  0.00    -0.269 OA
ENDBRANCH   6  17
BRANCH   8  20
HETATM   20  N5  UNL     1      -0.795  11.225   7.008  1.00  0.00    -0.384 N 
ATOM     21  H52 UNL     1      -0.182  12.038   7.056  1.00  0.00     0.157 HD
ATOM     22  H51 UNL     1      -1.042  11.121   6.024  1.00  0.00     0.157 HD
ENDBRANCH   8  20
TORSDOF 3
ENDMDL
MODEL 2
REMARK VINA RESULT: -6.920896265      2.546      3.790
REMARK  3 active torsions:
REMARK  status: ('A' for Active; 'I' for Inactive)
REMARK    1  A    between atoms: C2_3  and  N2_4 
REMARK    2  A    between atoms: C3_9  and  C4_10 
REMARK    3  A    between atoms: C6_14  and  N5_15 
ROOT
HETATM    1  C1  UNL     1       2.010   6.118  10.553  1.00  0.00     0.177 C 
HETATM    2  N1  UNL     1       1.382   7.332  10.107  1.00  0.00    -0.171 N 
HETATM    3  C2  UNL     1       1.183   7.493   8.788  1.00  0.00     0.680 A 
HETATM    4  N3  UNL     1       0.603   8.597   8.282  1.00  0.00    -0.186 N 
ATOM      5  H3  UNL     1       0.478   8.664   7.273  1.00  0.00     0.184 HD
HETATM    6  C3  UNL     1       0.174   9.636   9.065  1.00  0.00     0.131 A 
HETATM    7  C5  UNL     1       0.365   9.495  10.401  1.00  0.00     0.087 A 
HETATM    8  C6  UNL     1       0.075  10.300  11.476  1.00  0.00     0.130 A 
HETATM    9  N6  UNL     1       0.508   9.619  12.577  1.00  0.00    -0.283 N 
ATOM     10  H6  UNL     1       0.438   9.950  13.539  1.00  0.00     0.188 HD
HETATM   11  N7  UNL     1       1.028   8.467  12.205  1.00  0.00    -0.282 N 
ATOM     12  H7  UNL     1       1.421   7.774  12.841  1.00  0.00     0.188 HD
HETATM   13  C7  UNL     1       0.969   8.339  10.887  1.00  0.00     0.154 A 
ENDROOT
BRANCH   3  14
HETATM   14  N2  UNL     1       1.554   6.568   7.965  1.00  0.00    -0.234 N 
ATOM     15  H22 UNL     1       2.492   6.623   7.570  1.00  0.00     0.174 HD
ATOM     16  H21 UNL     1       0.911   5.811   7.730  1.00  0.00     0.174 HD
ENDBRANCH   3  14
BRANCH   6  17
HETATM   17  C4  UNL     1      -0.426  10.750   8.398  1.00  0.00     0.283 C 
HETATM   18  N4  UNL     1       0.322  11.372   7.317  1.00  0.00    -0.056 NA
HETATM   19  O1  UNL     1      -1.522  11.295   8.597  1.00  0.00    -0.269 OA
ENDBRANCH   6  17
BRANCH   8  20
HETATM   20  N5  UNL     1      -0.482  11.454  11.469  1.00  0.00    -0.384 N 
ATOM     21  H52 UNL     1      -1.463  11.649  11.271  1.00  0.00     0.157 HD
ATOM     22  H51 UNL     1      -0.051  12.360  11.657  1.00  0.00     0.157 HD
ENDBRANCH   8  20
TORSDOF 3
ENDMDL
MODEL 3
REMARK VINA RESULT: -6.733588416      5.166      7.032
REMARK  3 active torsions:
REMARK  status: ('A' for Active; 'I' for Inactive)
REMARK    1  A    between atoms: C2_3  and  N2_4 
REMARK    2  A    between atoms: C3_9  and  C4_10 
REMARK    3  A    between atoms: C6_14  and  N5_15 
ROOT
HETATM    1  C1  UNL     1       0.517   6.736  11.797  1.00  0.00     0.177 C 
HETATM    2  N1  UNL     1      -0.362   6.901  12.922  1.00  0.00    -0.171 N 
HETATM    3  C2  UNL     1      -1.020   5.819  13.374  1.00  0.00     0.680 A 
HETATM    4  N3  UNL     1      -1.863   5.881  14.421  1.00  0.00    -0.186 N 
ATOM      5  H3  UNL     1      -2.334   5.027  14.720  1.00  0.00     0.184 HD
HETATM    6  C3  UNL     1      -2.117   7.041  15.103  1.00  0.00     0.131 A 
HETATM    7  C5  UNL     1      -1.464   8.146  14.664  1.00  0.00     0.087 A 
HETATM    8  C6  UNL     1      -1.460   9.456  15.081  1.00  0.00     0.130 A 
HETATM    9  N6  UNL     1      -0.601  10.109  14.244  1.00  0.00    -0.283 N 
ATOM     10  H6  UNL     1      -0.377  11.102  14.289  1.00  0.00     0.188 HD
HETATM   11  N7  UNL     1      -0.107   9.257  13.369  1.00  0.00    -0.282 N 
ATOM     12  H7  UNL     1       0.560   9.497  12.636  1.00  0.00     0.188 HD
HETATM   13  C7  UNL     1      -0.600   8.044  13.578  1.00  0.00     0.154 A 
ENDROOT
BRANCH   3  14
HETATM   14  N2  UNL     1      -0.847   4.675  12.797  1.00  0.00    -0.234 N 
ATOM     15  H22 UNL     1      -0.596   3.876  13.377  1.00  0.00     0.174 HD
ATOM     16  H21 UNL     1      -0.966   4.596  11.786  1.00  0.00     0.174 HD
ENDBRANCH   3  14
BRANCH   6  17
HETATM   17  C4  UNL     1      -3.035   6.966  16.198  1.00  0.00     0.283 C 
HETATM   18  N4  UNL     1      -2.793   5.955  17.214  1.00  0.00    -0.056 NA
HETATM   19  O1  UNL     1      -4.044   7.648  16.432  1.00  0.00    -0.269 OA
ENDBRANCH   6  17
BRANCH   8  20
HETATM   20  N5  UNL     1      -2.118   9.977  16.049  1.00  0.00    -0.384 N 
ATOM     21  H52 UNL     1      -1.758  10.638  16.737  1.00  0.00     0.157 HD
ATOM     22  H51 UNL     1      -3.096   9.826  16.295  1.00  0.00     0.157 HD
ENDBRANCH   8  20
TORSDOF 3
ENDMDL
MODEL 4
REMARK VINA RESULT: -6.711552080      5.921      8.301
REMARK  3 active torsions:
REMARK  status: ('A' for Active; 'I' for Inactive)
REMARK    1  A    between atoms: C2_3  and  N2_4 
REMARK    2  A    between atoms: C3_9  and  C4_10 
REMARK    3  A    between atoms: C6_14  and  N5_15 
ROOT
HETATM    1  C1  UNL     1      -0.542   9.243  13.554  1.00  0.00     0.177 C 
HETATM    2  N1  UNL     1      -0.482   8.379  14.702  1.00  0.00    -0.171 N 
HETATM    3  C2  UNL     1      -1.247   8.684  15.764  1.00  0.00     0.680 A 
HETATM    4  N3  UNL     1      -1.254   7.932  16.880  1.00  0.00    -0.186 N 
ATOM      5  H3  UNL     1      -1.855   8.213  17.654  1.00  0.00     0.184 HD
HETATM    6  C3  UNL     1      -0.488   6.806  17.021  1.00  0.00     0.131 A 
HETATM    7  C5  UNL     1       0.292   6.478  15.961  1.00  0.00     0.087 A 
HETATM    8  C6  UNL     1       1.173   5.447  15.732  1.00  0.00     0.130 A 
HETATM    9  N6  UNL     1       1.662   5.649  14.474  1.00  0.00    -0.283 N 
ATOM     10  H6  UNL     1       2.343   5.054  14.004  1.00  0.00     0.188 HD
HETATM   11  N7  UNL     1       1.117   6.733  13.959  1.00  0.00    -0.282 N 
ATOM     12  H7  UNL     1       1.316   7.098  13.028  1.00  0.00     0.188 HD
HETATM   13  C7  UNL     1       0.273   7.279  14.823  1.00  0.00     0.154 A 
ENDROOT
BRANCH   3  14
HETATM   14  N2  UNL     1      -2.006   9.730  15.728  1.00  0.00    -0.234 N 
ATOM     15  H22 UNL     1      -1.957  10.333  14.908  1.00  0.00     0.174 HD
ATOM     16  H21 UNL     1      -2.630   9.929  16.510  1.00  0.00     0.174 HD
ENDBRANCH   3  14
BRANCH   6  17
HETATM   17  C4  UNL     1      -0.592   6.098  18.260  1.00  0.00     0.283 C 
HETATM   18  N4  UNL     1      -1.265   4.810  18.248  1.00  0.00    -0.056 NA
HETATM   19  O1  UNL     1      -0.186   6.416  19.389  1.00  0.00    -0.269 OA
ENDBRANCH   6  17
BRANCH   8  20
HETATM   20  N5  UNL     1       1.486   4.488  16.522  1.00  0.00    -0.384 N 
ATOM     21  H52 UNL     1       1.469   3.493  16.299  1.00  0.00     0.157 HD
ATOM     22  H51 UNL     1       1.800   4.550  17.491  1.00  0.00     0.157 HD
ENDBRANCH   8  20
TORSDOF 3
ENDMDL
MODEL 5
REMARK VINA RESULT: -6.492975816      5.062      7.970
REMARK  3 active torsions:
REMARK  status: ('A' for Active; 'I' for Inactive)
REMARK    1  A    between atoms: C2_3  and  N2_4 
REMARK    2  A    between atoms: C3_9  and  C4_10 
REMARK    3  A    between atoms: C6_14  and  N5_15 
ROOT
HETATM    1  C1  UNL     1       1.160   8.012  12.574  1.00  0.00     0.177 C 
HETATM    2  N1  UNL     1       0.236   7.636  13.609  1.00  0.00    -0.171 N 
HETATM    3  C2  UNL     1      -1.070   7.880  13.409  1.00  0.00     0.680 A 
HETATM    4  N3  UNL     1      -2.004   7.562  14.325  1.00  0.00    -0.186 N 
ATOM      5  H3  UNL     1      -2.981   7.771  14.118  1.00  0.00     0.184 HD
HETATM    6  C3  UNL     1      -1.701   6.971  15.521  1.00  0.00     0.131 A 
HETATM    7  C5  UNL     1      -0.388   6.715  15.744  1.00  0.00     0.087 A 
HETATM    8  C6  UNL     1       0.288   6.147  16.799  1.00  0.00     0.130 A 
HETATM    9  N6  UNL     1       1.606   6.161  16.445  1.00  0.00    -0.283 N 
ATOM     10  H6  UNL     1       2.373   5.808  17.017  1.00  0.00     0.188 HD
HETATM   11  N7  UNL     1       1.735   6.700  15.250  1.00  0.00    -0.282 N 
ATOM     12  H7  UNL     1       2.621   6.825  14.760  1.00  0.00     0.188 HD
HETATM   13  C7  UNL     1       0.551   7.058  14.775  1.00  0.00     0.154 A 
ENDROOT
BRANCH   3  14
HETATM   14  N2  UNL     1      -1.458   8.436  12.309  1.00  0.00    -0.234 N 
ATOM     15  H22 UNL     1      -2.039   7.891  11.672  1.00  0.00     0.174 HD
ATOM     16  H21 UNL     1      -1.181   9.397  12.102  1.00  0.00     0.174 HD
ENDBRANCH   3  14
BRANCH   6  17
HETATM   17  C4  UNL     1      -2.791   6.687  16.403  1.00  0.00     0.283 C 
HETATM   18  N4  UNL     1      -3.908   7.618  16.417  1.00  0.00    -0.056 NA
HETATM   19  O1  UNL     1      -2.947   5.740  17.189  1.00  0.00    -0.269 OA
ENDBRANCH   6  17
BRANCH   8  20
HETATM   20  N5  UNL     1      -0.199   5.694  17.894  1.00  0.00    -0.384 N 
ATOM     21  H52 UNL     1       0.211   5.793  18.823  1.00  0.00     0.157 HD
ATOM     22  H51 UNL     1      -1.063   5.169  18.027  1.00  0.00     0.157 HD
ENDBRANCH   8  20
TORSDOF 3
ENDMDL
