MODEL 1
REMARK VINA RESULT: -6.566942194      0.000      0.000
REMARK  3 active torsions:
REMARK  status: ('A' for Active; 'I' for Inactive)
REMARK       I    between atoms: C1_4  and  N2_5 
REMARK       I    between atoms: C1_4  and  N4_10 
REMARK    1  A    between atoms: N2_5  and  N3_7 
REMARK       I    between atoms: N4_10  and  C2_12 
REMARK    2  A    between atoms: C2_12  and  C3_14 
REMARK    3  A    between atoms: N5_18  and  N6_19 
ROOT
HETATM    1  N1  UNL     1       1.351  12.360  10.208  1.00  0.00    -0.233 N 
ATOM      2  H11 UNL     1       1.886  12.529  11.060  1.00  0.00     0.174 HD
ATOM      3  H12 UNL     1       1.476  12.929   9.371  1.00  0.00     0.174 HD
HETATM    4  C1  UNL     1       0.497  11.399  10.196  1.00  0.00     0.693 C 
HETATM    5  N2  UNL     1      -0.240  11.166   9.024  1.00  0.00    -0.139 N 
ATOM      6  H2  UNL     1       0.044  10.398   8.416  1.00  0.00     0.205 HD
HETATM    7  N4  UNL     1       0.325  10.612  11.354  1.00  0.00    -0.153 N 
ATOM      8  H4  UNL     1       0.873  10.804  12.191  1.00  0.00     0.187 HD
HETATM    9  C2  UNL     1      -0.618   9.549  11.344  1.00  0.00     0.288 C 
HETATM   10  O1  UNL     1      -1.276   9.331  10.316  1.00  0.00    -0.265 OA
ENDROOT
BRANCH   9  11
HETATM   11  C3  UNL     1      -0.830   8.706  12.521  1.00  0.00     0.133 A 
HETATM   12  C4  UNL     1      -0.995   7.407  12.689  1.00  0.00     0.113 A 
HETATM   13  C5  UNL     1      -1.109   7.644  14.119  1.00  0.00     0.269 A 
HETATM   14  O2  UNL     1      -1.291   6.949  15.166  1.00  0.00    -0.266 OA
HETATM   15  N5  UNL     1      -0.931   9.034  13.922  1.00  0.00    -0.222 N 
BRANCH  15  16
HETATM   16  N6  UNL     1      -0.869  10.224  14.662  1.00  0.00    -0.335 N 
ATOM     17  H62 UNL     1      -0.212  10.973  14.884  1.00  0.00     0.177 HD
ATOM     18  H61 UNL     1      -1.525  10.737  15.250  1.00  0.00     0.177 HD
ENDBRANCH  15  16
ENDBRANCH   9  11
BRANCH   5  19
HETATM   19  N3  UNL     1      -1.341  11.937   8.653  1.00  0.00    -0.331 N 
ATOM     20  H32 UNL     1      -1.157  12.826   8.187  1.00  0.00     0.177 HD
ATOM     21  H31 UNL     1      -2.304  11.650   8.828  1.00  0.00     0.177 HD
ENDBRANCH   5  19
TORSDOF 3
ENDMDL
MODEL 2
REMARK VINA RESULT: -6.551315970      1.825      2.223
REMARK  3 active torsions:
REMARK  status: ('A' for Active; 'I' for Inactive)
REMARK       I    between atoms: C1_4  and  N2_5 
REMARK       I    between atoms: C1_4  and  N4_10 
REMARK    1  A    between atoms: N2_5  and  N3_7 
REMARK       I    between atoms: N4_10  and  C2_12 
REMARK    2  A    between atoms: C2_12  and  C3_14 
REMARK    3  A    between atoms: N5_18  and  N6_19 
ROOT
HETATM    1  N1  UNL     1      -2.186   9.814   7.969  1.00  0.00    -0.233 N 
ATOM      2  H11 UNL     1      -2.402   8.817   7.974  1.00  0.00     0.174 HD
ATOM      3  H12 UNL     1      -2.517  10.433   7.229  1.00  0.00     0.174 HD
HETATM    4  C1  UNL     1      -1.477  10.297   8.926  1.00  0.00     0.693 C 
HETATM    5  N2  UNL     1      -1.180  11.670   8.919  1.00  0.00    -0.139 N 
ATOM      6  H2  UNL     1      -1.716  12.287   9.530  1.00  0.00     0.205 HD
HETATM    7  N4  UNL     1      -1.020   9.441   9.949  1.00  0.00    -0.153 N 
ATOM      8  H4  UNL     1      -1.250   8.448   9.929  1.00  0.00     0.187 HD
HETATM    9  C2  UNL     1      -0.236   9.972  11.009  1.00  0.00     0.288 C 
HETATM   10  O1  UNL     1       0.034  11.182  11.016  1.00  0.00    -0.265 OA
ENDROOT
BRANCH   9  11
HETATM   11  C3  UNL     1       0.260   9.122  12.092  1.00  0.00     0.133 A 
HETATM   12  C4  UNL     1       1.084   8.092  12.132  1.00  0.00     0.113 A 
HETATM   13  C5  UNL     1       0.880   8.033  13.570  1.00  0.00     0.269 A 
HETATM   14  O2  UNL     1       1.285   7.319  14.540  1.00  0.00    -0.266 OA
HETATM   15  N5  UNL     1      -0.002   9.137  13.510  1.00  0.00    -0.222 N 
BRANCH  15  16
HETATM   16  N6  UNL     1      -0.791   9.930  14.358  1.00  0.00    -0.335 N 
ATOM     17  H62 UNL     1      -0.885  10.901  14.656  1.00  0.00     0.177 HD
ATOM     18  H61 UNL     1      -1.575   9.747  14.983  1.00  0.00     0.177 HD
ENDBRANCH  15  16
ENDBRANCH   9  11
BRANCH   5  19
HETATM   19  N3  UNL     1      -0.187  12.228   8.115  1.00  0.00    -0.331 N 
ATOM     20  H32 UNL     1       0.729  12.381   8.537  1.00  0.00     0.177 HD
ATOM     21  H31 UNL     1      -0.341  12.482   7.139  1.00  0.00     0.177 HD
ENDBRANCH   5  19
TORSDOF 3
ENDMDL
MODEL 3
REMARK VINA RESULT: -6.506283748      1.961      5.564
REMARK  3 active torsions:
REMARK  status: ('A' for Active; 'I' for Inactive)
REMARK       I    between atoms: C1_4  and  N2_5 
REMARK       I    between atoms: C1_4  and  N4_10 
REMARK    1  A    between atoms: N2_5  and  N3_7 
REMARK       I    between atoms: N4_10  and  C2_12 
REMARK    2  A    between atoms: C2_12  and  C3_14 
REMARK    3  A    between atoms: N5_18  and  N6_19 
ROOT
HETATM    1  N1  UNL     1      -0.419   9.462  14.302  1.00  0.00    -0.233 N 
ATOM      2  H11 UNL     1       0.140  10.261  14.602  1.00  0.00     0.174 HD
ATOM      3  H12 UNL     1      -0.831   8.812  14.972  1.00  0.00     0.174 HD
HETATM    4  C1  UNL     1      -0.605   9.276  13.045  1.00  0.00     0.693 C 
HETATM    5  N2  UNL     1      -1.375   8.176  12.632  1.00  0.00    -0.139 N 
ATOM      6  H2  UNL     1      -2.343   8.337  12.352  1.00  0.00     0.205 HD
HETATM    7  N4  UNL     1      -0.036  10.175  12.119  1.00  0.00    -0.153 N 
ATOM      8  H4  UNL     1       0.520  10.965  12.446  1.00  0.00     0.187 HD
HETATM    9  C2  UNL     1      -0.240   9.972  10.728  1.00  0.00     0.288 C 
HETATM   10  O1  UNL     1      -0.918   9.006  10.349  1.00  0.00    -0.265 OA
ENDROOT
BRANCH   9  11
HETATM   11  C3  UNL     1       0.331  10.879   9.731  1.00  0.00     0.133 A 
HETATM   12  C4  UNL     1       1.298  11.777   9.771  1.00  0.00     0.113 A 
HETATM   13  C5  UNL     1       1.044  12.056   8.367  1.00  0.00     0.269 A 
HETATM   14  O2  UNL     1       1.511  12.827   7.472  1.00  0.00    -0.266 OA
HETATM   15  N5  UNL     1       0.011  11.091   8.341  1.00  0.00    -0.222 N 
BRANCH  15  16
HETATM   16  N6  UNL     1      -0.923  10.539   7.451  1.00  0.00    -0.335 N 
ATOM     17  H62 UNL     1      -1.149   9.649   7.008  1.00  0.00     0.177 HD
ATOM     18  H61 UNL     1      -1.725  10.905   6.937  1.00  0.00     0.177 HD
ENDBRANCH  15  16
ENDBRANCH   9  11
BRANCH   5  19
HETATM   19  N3  UNL     1      -0.877   6.874  12.589  1.00  0.00    -0.331 N 
ATOM     20  H32 UNL     1      -0.575   6.457  13.469  1.00  0.00     0.177 HD
ATOM     21  H31 UNL     1      -0.806   6.336  11.726  1.00  0.00     0.177 HD
ENDBRANCH   5  19
TORSDOF 3
ENDMDL
MODEL 4
REMARK VINA RESULT: -6.470428943      2.507      2.960
REMARK  3 active torsions:
REMARK  status: ('A' for Active; 'I' for Inactive)
REMARK       I    between atoms: C1_4  and  N2_5 
REMARK       I    between atoms: C1_4  and  N4_10 
REMARK    1  A    between atoms: N2_5  and  N3_7 
REMARK       I    between atoms: N4_10  and  C2_12 
REMARK    2  A    between atoms: C2_12  and  C3_14 
REMARK    3  A    between atoms: N5_18  and  N6_19 
ROOT
HETATM    1  N1  UNL     1      -0.453  10.848   6.728  1.00  0.00    -0.233 N 
ATOM      2  H11 UNL     1      -0.356   9.940   6.274  1.00  0.00     0.174 HD
ATOM      3  H12 UNL     1      -0.794  11.668   6.224  1.00  0.00     0.174 HD
HETATM    4  C1  UNL     1      -0.135  10.957   7.968  1.00  0.00     0.693 C 
HETATM    5  N2  UNL     1      -0.269  12.208   8.592  1.00  0.00    -0.139 N 
ATOM      6  H2  UNL     1      -1.079  12.369   9.191  1.00  0.00     0.205 HD
HETATM    7  N4  UNL     1       0.336   9.824   8.663  1.00  0.00    -0.153 N 
ATOM      8  H4  UNL     1       0.424   8.928   8.185  1.00  0.00     0.187 HD
HETATM    9  C2  UNL     1       0.688   9.941  10.035  1.00  0.00     0.288 C 
HETATM   10  O1  UNL     1       0.575  11.038  10.599  1.00  0.00    -0.265 OA
ENDROOT
BRANCH   9  11
HETATM   11  C3  UNL     1       1.182   8.792  10.797  1.00  0.00     0.133 A 
HETATM   12  C4  UNL     1       1.818   7.686  10.461  1.00  0.00     0.113 A 
HETATM   13  C5  UNL     1       1.811   7.301  11.863  1.00  0.00     0.269 A 
HETATM   14  O2  UNL     1       2.223   6.324  12.561  1.00  0.00    -0.266 OA
HETATM   15  N5  UNL     1       1.129   8.491  12.207  1.00  0.00    -0.222 N 
BRANCH  15  16
HETATM   16  N6  UNL     1       0.613   9.146  13.335  1.00  0.00    -0.335 N 
ATOM     17  H62 UNL     1      -0.154   9.766  13.595  1.00  0.00     0.177 HD
ATOM     18  H61 UNL     1       0.880   9.198  14.318  1.00  0.00     0.177 HD
ENDBRANCH  15  16
ENDBRANCH   9  11
BRANCH   5  19
HETATM   19  N3  UNL     1       0.655  13.240   8.429  1.00  0.00    -0.331 N 
ATOM     20  H32 UNL     1       0.294  14.194   8.399  1.00  0.00     0.177 HD
ATOM     21  H31 UNL     1       1.658  13.078   8.342  1.00  0.00     0.177 HD
ENDBRANCH   5  19
TORSDOF 3
ENDMDL
MODEL 5
REMARK VINA RESULT: -6.468927117      1.826      2.219
REMARK  3 active torsions:
REMARK  status: ('A' for Active; 'I' for Inactive)
REMARK       I    between atoms: C1_4  and  N2_5 
REMARK       I    between atoms: C1_4  and  N4_10 
REMARK    1  A    between atoms: N2_5  and  N3_7 
REMARK       I    between atoms: N4_10  and  C2_12 
REMARK    2  A    between atoms: C2_12  and  C3_14 
REMARK    3  A    between atoms: N5_18  and  N6_19 
ROOT
HETATM    1  N1  UNL     1       0.180  11.511  11.132  1.00  0.00    -0.233 N 
ATOM      2  H11 UNL     1       0.483  12.153  11.864  1.00  0.00     0.174 HD
ATOM      3  H12 UNL     1       0.167  11.783  10.149  1.00  0.00     0.174 HD
HETATM    4  C1  UNL     1      -0.195  10.328  11.464  1.00  0.00     0.693 C 
HETATM    5  N2  UNL     1      -0.613   9.445  10.455  1.00  0.00    -0.139 N 
ATOM      6  H2  UNL     1       0.036   8.725  10.139  1.00  0.00     0.205 HD
HETATM    7  N4  UNL     1      -0.178   9.952  12.823  1.00  0.00    -0.153 N 
ATOM      8  H4  UNL     1       0.130  10.614  13.535  1.00  0.00     0.187 HD
HETATM    9  C2  UNL     1      -0.592   8.644  13.194  1.00  0.00     0.288 C 
HETATM   10  O1  UNL     1      -0.963   7.853  12.314  1.00  0.00    -0.265 OA
ENDROOT
BRANCH   9  11
HETATM   11  C3  UNL     1      -0.590   8.210  14.591  1.00  0.00     0.133 A 
HETATM   12  C4  UNL     1       0.002   7.221  15.233  1.00  0.00     0.113 A 
HETATM   13  C5  UNL     1      -0.630   7.686  16.457  1.00  0.00     0.269 A 
HETATM   14  O2  UNL     1      -0.656   7.343  17.680  1.00  0.00    -0.266 OA
HETATM   15  N5  UNL     1      -1.257   8.741  15.755  1.00  0.00    -0.222 N 
BRANCH  15  16
HETATM   16  N6  UNL     1      -2.121   9.822  15.986  1.00  0.00    -0.335 N 
ATOM     17  H62 UNL     1      -2.094  10.838  16.080  1.00  0.00     0.177 HD
ATOM     18  H61 UNL     1      -3.124   9.916  16.145  1.00  0.00     0.177 HD
ENDBRANCH  15  16
ENDBRANCH   9  11
BRANCH   5  19
HETATM   19  N3  UNL     1      -1.876   9.507   9.866  1.00  0.00    -0.331 N 
ATOM     20  H32 UNL     1      -2.503   8.716  10.011  1.00  0.00     0.177 HD
ATOM     21  H31 UNL     1      -2.188  10.301   9.307  1.00  0.00     0.177 HD
ENDBRANCH   5  19
TORSDOF 3
ENDMDL
