MODEL 1
REMARK VINA RESULT: -6.459335742      0.000      0.000
REMARK  3 active torsions:
REMARK  status: ('A' for Active; 'I' for Inactive)
REMARK    1  A    between atoms: N1_1  and  C1_4 
REMARK    2  A    between atoms: C2_7  and  N3_8 
REMARK    3  A    between atoms: C7_17  and  N6_18 
ROOT
HETATM    1  C1  UNL     1       0.957  11.544   9.932  1.00  0.00     0.705 A 
HETATM    2  N2  UNL     1       1.131  10.255  10.346  1.00  0.00    -0.022 N 
ATOM      3  H2  UNL     1       1.553  10.074  11.257  1.00  0.00     0.203 HD
HETATM    4  C2  UNL     1       0.757   9.220   9.575  1.00  0.00     0.709 A 
HETATM    5  N5  UNL     1       0.212   9.496   8.389  1.00  0.00    -0.022 N 
ATOM      6  H5  UNL     1      -0.077   8.723   7.792  1.00  0.00     0.203 HD
HETATM    7  C7  UNL     1       0.025  10.771   7.946  1.00  0.00     0.705 A 
HETATM    8  N7  UNL     1       0.405  11.796   8.732  1.00  0.00    -0.022 N 
ATOM      9  H7  UNL     1       0.275  12.758   8.418  1.00  0.00     0.203 HD
ENDROOT
BRANCH   4  10
HETATM   10  N3  UNL     1       0.924   7.864   9.977  1.00  0.00    -0.214 N 
HETATM   11  C3  UNL     1       2.115   7.454  10.691  1.00  0.00     0.160 C 
HETATM   12  C4  UNL     1       2.160   5.945  10.740  1.00  0.00     0.134 C 
HETATM   13  N4  UNL     1       1.853   5.334   9.486  1.00  0.00    -0.418 N 
HETATM   14  C5  UNL     1       0.631   5.765   8.886  1.00  0.00     0.134 C 
ATOM     15  H4  UNL     1       2.462   4.640   9.051  1.00  0.00     0.153 HD
HETATM   16  C6  UNL     1      -0.063   6.841   9.702  1.00  0.00     0.160 C 
ENDBRANCH   4  10
BRANCH   1  17
HETATM   17  N1  UNL     1       1.324  12.533  10.689  1.00  0.00    -0.234 N 
ATOM     18  H12 UNL     1       2.226  12.497  11.163  1.00  0.00     0.174 HD
ATOM     19  H11 UNL     1       0.715  13.342  10.812  1.00  0.00     0.174 HD
ENDBRANCH   1  17
BRANCH   7  20
HETATM   20  N6  UNL     1      -0.505  11.019   6.796  1.00  0.00    -0.234 N 
ATOM     21  H62 UNL     1      -0.261  10.433   5.996  1.00  0.00     0.174 HD
ATOM     22  H61 UNL     1      -1.163  11.786   6.662  1.00  0.00     0.174 HD
ENDBRANCH   7  20
TORSDOF 3
ENDMDL
MODEL 2
REMARK VINA RESULT: -6.453128890      0.135      2.124
REMARK  3 active torsions:
REMARK  status: ('A' for Active; 'I' for Inactive)
REMARK    1  A    between atoms: N1_1  and  C1_4 
REMARK    2  A    between atoms: C2_7  and  N3_8 
REMARK    3  A    between atoms: C7_17  and  N6_18 
ROOT
HETATM    1  C1  UNL     1       0.064  10.809   7.931  1.00  0.00     0.705 A 
HETATM    2  N2  UNL     1       0.219   9.519   8.350  1.00  0.00    -0.022 N 
ATOM      3  H2  UNL     1      -0.069   8.756   7.738  1.00  0.00     0.203 HD
HETATM    4  C2  UNL     1       0.745   9.237   9.554  1.00  0.00     0.709 A 
HETATM    5  N5  UNL     1       1.109  10.261  10.326  1.00  0.00    -0.022 N 
ATOM      6  H5  UNL     1       1.509  10.065  11.243  1.00  0.00     0.203 HD
HETATM    7  C7  UNL     1       0.967  11.559   9.939  1.00  0.00     0.705 A 
HETATM    8  N7  UNL     1       0.439  11.824   8.729  1.00  0.00    -0.022 N 
ATOM      9  H7  UNL     1       0.323  12.789   8.421  1.00  0.00     0.203 HD
ENDROOT
BRANCH   4  10
HETATM   10  N3  UNL     1       0.921   7.903  10.021  1.00  0.00    -0.214 N 
HETATM   11  C3  UNL     1       2.052   7.565  10.862  1.00  0.00     0.160 C 
HETATM   12  C4  UNL     1       2.147   6.062  10.971  1.00  0.00     0.134 C 
HETATM   13  N4  UNL     1       1.986   5.397   9.717  1.00  0.00    -0.418 N 
HETATM   14  C5  UNL     1       0.814   5.758   8.987  1.00  0.00     0.134 C 
ATOM     15  H4  UNL     1       2.660   4.714   9.369  1.00  0.00     0.153 HD
HETATM   16  C6  UNL     1       0.005   6.832   9.691  1.00  0.00     0.160 C 
ENDBRANCH   4  10
BRANCH   1  17
HETATM   17  N1  UNL     1      -0.446  11.065   6.765  1.00  0.00    -0.234 N 
ATOM     18  H12 UNL     1      -0.381  10.368   6.023  1.00  0.00     0.174 HD
ATOM     19  H11 UNL     1      -0.908  11.957   6.588  1.00  0.00     0.174 HD
ENDBRANCH   1  17
BRANCH   7  20
HETATM   20  N6  UNL     1       1.325  12.538  10.700  1.00  0.00    -0.234 N 
ATOM     21  H62 UNL     1       0.823  12.702  11.573  1.00  0.00     0.174 HD
ATOM     22  H61 UNL     1       2.099  13.155  10.454  1.00  0.00     0.174 HD
ENDBRANCH   7  20
TORSDOF 3
ENDMDL
MODEL 3
REMARK VINA RESULT: -6.392244975      1.576      1.588
REMARK  3 active torsions:
REMARK  status: ('A' for Active; 'I' for Inactive)
REMARK    1  A    between atoms: N1_1  and  C1_4 
REMARK    2  A    between atoms: C2_7  and  N3_8 
REMARK    3  A    between atoms: C7_17  and  N6_18 
ROOT
HETATM    1  C1  UNL     1      -0.319  10.664  10.517  1.00  0.00     0.705 A 
HETATM    2  N2  UNL     1       0.066   9.374  10.741  1.00  0.00    -0.022 N 
ATOM      3  H2  UNL     1       0.677   9.163  11.531  1.00  0.00     0.203 HD
HETATM    4  C2  UNL     1      -0.345   8.376   9.940  1.00  0.00     0.709 A 
HETATM    5  N5  UNL     1      -1.142   8.691   8.918  1.00  0.00    -0.022 N 
ATOM      6  H5  UNL     1      -1.462   7.946   8.300  1.00  0.00     0.203 HD
HETATM    7  C7  UNL     1      -1.544   9.968   8.666  1.00  0.00     0.705 A 
HETATM    8  N7  UNL     1      -1.122  10.955   9.479  1.00  0.00    -0.022 N 
ATOM      9  H7  UNL     1      -1.411  11.918   9.307  1.00  0.00     0.203 HD
ENDROOT
BRANCH   4  10
HETATM   10  N3  UNL     1       0.037   7.020  10.146  1.00  0.00    -0.214 N 
HETATM   11  C3  UNL     1       0.370   6.546  11.475  1.00  0.00     0.160 C 
HETATM   12  C4  UNL     1       1.001   5.179  11.362  1.00  0.00     0.134 C 
HETATM   13  N4  UNL     1       1.981   5.096  10.326  1.00  0.00    -0.418 N 
HETATM   14  C5  UNL     1       1.540   5.536   9.041  1.00  0.00     0.134 C 
ATOM     15  H4  UNL     1       2.925   4.749  10.492  1.00  0.00     0.153 HD
HETATM   16  C6  UNL     1       0.115   6.058   9.068  1.00  0.00     0.160 C 
ENDBRANCH   4  10
BRANCH   1  17
HETATM   17  N1  UNL     1       0.087  11.616  11.300  1.00  0.00    -0.234 N 
ATOM     18  H12 UNL     1       0.393  12.502  10.899  1.00  0.00     0.174 HD
ATOM     19  H11 UNL     1       0.103  11.483  12.311  1.00  0.00     0.174 HD
ENDBRANCH   1  17
BRANCH   7  20
HETATM   20  N6  UNL     1      -2.315  10.253   7.672  1.00  0.00    -0.234 N 
ATOM     21  H62 UNL     1      -1.936  10.772   6.879  1.00  0.00     0.174 HD
ATOM     22  H61 UNL     1      -3.295   9.973   7.655  1.00  0.00     0.174 HD
ENDBRANCH   7  20
TORSDOF 3
ENDMDL
MODEL 4
REMARK VINA RESULT: -6.380632897      1.626      2.676
REMARK  3 active torsions:
REMARK  status: ('A' for Active; 'I' for Inactive)
REMARK    1  A    between atoms: N1_1  and  C1_4 
REMARK    2  A    between atoms: C2_7  and  N3_8 
REMARK    3  A    between atoms: C7_17  and  N6_18 
ROOT
HETATM    1  C1  UNL     1      -1.566   9.979   8.658  1.00  0.00     0.705 A 
HETATM    2  N2  UNL     1      -1.205   8.683   8.889  1.00  0.00    -0.022 N 
ATOM      3  H2  UNL     1      -1.542   7.950   8.264  1.00  0.00     0.203 HD
HETATM    4  C2  UNL     1      -0.413   8.355   9.924  1.00  0.00     0.709 A 
HETATM    5  N5  UNL     1       0.007   9.340  10.719  1.00  0.00    -0.022 N 
ATOM      6  H5  UNL     1       0.608   9.108  11.510  1.00  0.00     0.203 HD
HETATM    7  C7  UNL     1      -0.336  10.643  10.518  1.00  0.00     0.705 A 
HETATM    8  N7  UNL     1      -1.130  10.954   9.476  1.00  0.00    -0.022 N 
ATOM      9  H7  UNL     1      -1.399  11.923   9.308  1.00  0.00     0.203 HD
ENDROOT
BRANCH   4  10
HETATM   10  N3  UNL     1      -0.017   7.014  10.192  1.00  0.00    -0.214 N 
HETATM   11  C3  UNL     1       0.206   6.575  11.555  1.00  0.00     0.160 C 
HETATM   12  C4  UNL     1       0.878   5.223  11.529  1.00  0.00     0.134 C 
HETATM   13  N4  UNL     1       1.950   5.148  10.588  1.00  0.00    -0.418 N 
HETATM   14  C5  UNL     1       1.617   5.551   9.259  1.00  0.00     0.134 C 
ATOM     15  H4  UNL     1       2.884   4.829  10.845  1.00  0.00     0.153 HD
HETATM   16  C6  UNL     1       0.183   6.034   9.146  1.00  0.00     0.160 C 
ENDBRANCH   4  10
BRANCH   1  17
HETATM   17  N1  UNL     1      -2.332  10.279   7.654  1.00  0.00    -0.234 N 
ATOM     18  H12 UNL     1      -1.968  10.208   6.704  1.00  0.00     0.174 HD
ATOM     19  H11 UNL     1      -3.292  10.587   7.811  1.00  0.00     0.174 HD
ENDBRANCH   1  17
BRANCH   7  20
HETATM   20  N6  UNL     1       0.080  11.583  11.298  1.00  0.00    -0.234 N 
ATOM     21  H62 UNL     1       1.077  11.659  11.502  1.00  0.00     0.174 HD
ATOM     22  H61 UNL     1      -0.563  12.255  11.719  1.00  0.00     0.174 HD
ENDBRANCH   7  20
TORSDOF 3
ENDMDL
MODEL 5
REMARK VINA RESULT: -6.356380058      1.033      2.701
REMARK  3 active torsions:
REMARK  status: ('A' for Active; 'I' for Inactive)
REMARK    1  A    between atoms: N1_1  and  C1_4 
REMARK    2  A    between atoms: C2_7  and  N3_8 
REMARK    3  A    between atoms: C7_17  and  N6_18 
ROOT
HETATM    1  C1  UNL     1      -0.010  10.785   7.947  1.00  0.00     0.705 A 
HETATM    2  N2  UNL     1       0.156   9.527   8.452  1.00  0.00    -0.022 N 
ATOM      3  H2  UNL     1      -0.191   8.726   7.926  1.00  0.00     0.203 HD
HETATM    4  C2  UNL     1       0.768   9.327   9.632  1.00  0.00     0.709 A 
HETATM    5  N5  UNL     1       1.207  10.400  10.292  1.00  0.00    -0.022 N 
ATOM      6  H5  UNL     1       1.673  10.265  11.189  1.00  0.00     0.203 HD
HETATM    7  C7  UNL     1       1.057  11.667   9.817  1.00  0.00     0.705 A 
HETATM    8  N7  UNL     1       0.442  11.850   8.633  1.00  0.00    -0.022 N 
ATOM      9  H7  UNL     1       0.318  12.791   8.260  1.00  0.00     0.203 HD
ENDROOT
BRANCH   4  10
HETATM   10  N3  UNL     1       0.958   8.030  10.187  1.00  0.00    -0.214 N 
HETATM   11  C3  UNL     1       0.223   6.895   9.666  1.00  0.00     0.160 C 
HETATM   12  C4  UNL     1       0.400   5.726  10.604  1.00  0.00     0.134 C 
HETATM   13  N4  UNL     1       0.251   6.081  11.979  1.00  0.00    -0.418 N 
HETATM   14  C5  UNL     1       1.058   7.177  12.410  1.00  0.00     0.134 C 
ATOM     15  H4  UNL     1      -0.385   5.589  12.607  1.00  0.00     0.153 HD
HETATM   16  C6  UNL     1       1.874   7.773  11.278  1.00  0.00     0.160 C 
ENDBRANCH   4  10
BRANCH   1  17
HETATM   17  N1  UNL     1      -0.603  10.962   6.806  1.00  0.00    -0.234 N 
ATOM     18  H12 UNL     1      -1.622  10.932   6.759  1.00  0.00     0.174 HD
ATOM     19  H11 UNL     1      -0.058  11.127   5.960  1.00  0.00     0.174 HD
ENDBRANCH   1  17
BRANCH   7  20
HETATM   20  N6  UNL     1       1.488  12.693  10.470  1.00  0.00    -0.234 N 
ATOM     21  H62 UNL     1       1.443  12.691  11.489  1.00  0.00     0.174 HD
ATOM     22  H61 UNL     1       1.874  13.509   9.995  1.00  0.00     0.174 HD
ENDBRANCH   7  20
TORSDOF 3
ENDMDL
