MODEL 1
REMARK VINA RESULT: -7.505872670      0.000      0.000
REMARK  3 active torsions:
REMARK  status: ('A' for Active; 'I' for Inactive)
REMARK       I    between atoms: C1_4  and  N3_6 
REMARK    1  A    between atoms: N3_6  and  C2_8 
REMARK    2  A    between atoms: C3_11  and  N5_12 
REMARK    3  A    between atoms: N5_12  and  N6_13 
ROOT
HETATM    1  C2  UNL     1      -0.104  10.678  10.650  1.00  0.00     0.683 A 
HETATM    2  N4  UNL     1       0.976  10.893  10.036  1.00  0.00    -0.199 N 
ATOM      3  H4  UNL     1       1.820  10.937  10.608  1.00  0.00     0.180 HD
HETATM    4  C3  UNL     1       1.154  11.083   8.623  1.00  0.00     0.290 A 
HETATM    5  C4  UNL     1      -0.134  10.996   7.931  1.00  0.00     0.231 A 
HETATM    6  O1  UNL     1      -0.100  11.150   6.672  1.00  0.00    -0.286 OA
HETATM    7  C5  UNL     1      -1.367  10.750   8.641  1.00  0.00     0.181 A 
HETATM    8  N7  UNL     1      -2.566  10.684   7.880  1.00  0.00    -0.078 NA
HETATM    9  N8  UNL     1      -1.329  10.605   9.914  1.00  0.00    -0.175 N 
ATOM     10  H8  UNL     1      -2.199  10.432  10.418  1.00  0.00     0.185 HD
ENDROOT
BRANCH   1  11
HETATM   11  N3  UNL     1      -0.169  10.501  12.076  1.00  0.00    -0.164 N 
HETATM   12  C1  UNL     1      -0.192   9.204  12.636  1.00  0.00     0.200 C 
HETATM   13  N1  UNL     1      -0.093   8.176  11.880  1.00  0.00    -0.373 N 
HETATM   14  N2  UNL     1      -0.323   9.011  14.029  1.00  0.00    -0.063 NA
ATOM     15  H12 UNL     1      -0.109   7.240  12.284  1.00  0.00     0.158 HD
ATOM     16  H11 UNL     1       0.002   8.315  10.874  1.00  0.00     0.158 HD
ATOM     17  H3  UNL     1      -0.200  11.317  12.688  1.00  0.00     0.187 HD
ENDBRANCH   1  11
BRANCH   4  18
HETATM   18  N5  UNL     1       1.853  12.326   8.358  1.00  0.00    -0.114 NA
BRANCH  18  19
HETATM   19  N6  UNL     1       0.884  13.341   8.311  1.00  0.00    -0.346 N 
ATOM     20  H62 UNL     1       0.430  13.768   9.119  1.00  0.00     0.172 HD
ATOM     21  H61 UNL     1       0.728  13.560   7.327  1.00  0.00     0.172 HD
ENDBRANCH  18  19
ENDBRANCH   4  18
TORSDOF 3
ENDMDL
MODEL 2
REMARK VINA RESULT: -6.417305962      0.756      2.660
REMARK  3 active torsions:
REMARK  status: ('A' for Active; 'I' for Inactive)
REMARK       I    between atoms: C1_4  and  N3_6 
REMARK    1  A    between atoms: N3_6  and  C2_8 
REMARK    2  A    between atoms: C3_11  and  N5_12 
REMARK    3  A    between atoms: N5_12  and  N6_13 
ROOT
HETATM    1  C2  UNL     1      -0.170  11.058  10.608  1.00  0.00     0.683 A 
HETATM    2  N4  UNL     1      -1.195  10.998   9.876  1.00  0.00    -0.199 N 
ATOM      3  H4  UNL     1      -2.064  10.728  10.336  1.00  0.00     0.180 HD
HETATM    4  C3  UNL     1      -1.277  11.267   8.466  1.00  0.00     0.290 A 
HETATM    5  C4  UNL     1       0.039  11.639   7.942  1.00  0.00     0.231 A 
HETATM    6  O1  UNL     1       0.088  11.900   6.701  1.00  0.00    -0.286 OA
HETATM    7  C5  UNL     1       1.208  11.705   8.786  1.00  0.00     0.181 A 
HETATM    8  N7  UNL     1       2.440  12.076   8.183  1.00  0.00    -0.078 NA
HETATM    9  N8  UNL     1       1.086  11.428  10.032  1.00  0.00    -0.175 N 
ATOM     10  H8  UNL     1       1.911  11.473  10.631  1.00  0.00     0.185 HD
ENDROOT
BRANCH   1  11
HETATM   11  N3  UNL     1      -0.200  10.767  12.017  1.00  0.00    -0.164 N 
HETATM   12  C1  UNL     1      -0.214   9.430  12.473  1.00  0.00     0.200 C 
HETATM   13  N1  UNL     1      -0.140   8.466  11.635  1.00  0.00    -0.373 N 
HETATM   14  N2  UNL     1      -0.310   9.128  13.849  1.00  0.00    -0.063 NA
ATOM     15  H12 UNL     1      -0.150   7.500  11.964  1.00  0.00     0.158 HD
ATOM     16  H11 UNL     1      -0.070   8.684  10.641  1.00  0.00     0.158 HD
ATOM     17  H3  UNL     1      -0.210  11.533  12.692  1.00  0.00     0.187 HD
ENDBRANCH   1  11
BRANCH   4  18
HETATM   18  N5  UNL     1      -1.865  10.142   7.765  1.00  0.00    -0.114 NA
BRANCH  18  19
HETATM   19  N6  UNL     1      -2.090   9.135   8.717  1.00  0.00    -0.346 N 
ATOM     20  H62 UNL     1      -1.544   8.987   9.566  1.00  0.00     0.172 HD
ATOM     21  H61 UNL     1      -2.891   8.593   8.395  1.00  0.00     0.172 HD
ENDBRANCH  18  19
ENDBRANCH   4  18
TORSDOF 3
ENDMDL
MODEL 3
REMARK VINA RESULT: -6.379853172      0.981      1.328
REMARK  3 active torsions:
REMARK  status: ('A' for Active; 'I' for Inactive)
REMARK       I    between atoms: C1_4  and  N3_6 
REMARK    1  A    between atoms: N3_6  and  C2_8 
REMARK    2  A    between atoms: C3_11  and  N5_12 
REMARK    3  A    between atoms: N5_12  and  N6_13 
ROOT
HETATM    1  C2  UNL     1       0.216   9.494  10.413  1.00  0.00     0.683 A 
HETATM    2  N4  UNL     1       1.201  10.175  10.019  1.00  0.00    -0.199 N 
ATOM      3  H4  UNL     1       2.088  10.003  10.492  1.00  0.00     0.180 HD
HETATM    4  C3  UNL     1       1.217  11.167   8.979  1.00  0.00     0.290 A 
HETATM    5  C4  UNL     1      -0.118  11.309   8.392  1.00  0.00     0.231 A 
HETATM    6  O1  UNL     1      -0.226  12.162   7.459  1.00  0.00    -0.286 OA
HETATM    7  C5  UNL     1      -1.241  10.526   8.849  1.00  0.00     0.181 A 
HETATM    8  N7  UNL     1      -2.497  10.738   8.217  1.00  0.00    -0.078 NA
HETATM    9  N8  UNL     1      -1.062   9.683   9.797  1.00  0.00    -0.175 N 
ATOM     10  H8  UNL     1      -1.854   9.129  10.123  1.00  0.00     0.185 HD
ENDROOT
BRANCH   1  11
HETATM   11  N3  UNL     1       0.313   8.521  11.469  1.00  0.00    -0.164 N 
HETATM   12  C1  UNL     1       0.071   8.893  12.810  1.00  0.00     0.200 C 
HETATM   13  N1  UNL     1      -0.294  10.087  13.090  1.00  0.00    -0.373 N 
HETATM   14  N2  UNL     1       0.226   7.967  13.865  1.00  0.00    -0.063 NA
ATOM     15  H12 UNL     1      -0.469  10.357  14.058  1.00  0.00     0.158 HD
ATOM     16  H11 UNL     1      -0.406  10.756  12.328  1.00  0.00     0.158 HD
ATOM     17  H3  UNL     1       0.556   7.555  11.248  1.00  0.00     0.187 HD
ENDBRANCH   1  11
BRANCH   4  18
HETATM   18  N5  UNL     1       1.751  12.420   9.475  1.00  0.00    -0.114 NA
BRANCH  18  19
HETATM   19  N6  UNL     1       1.241  12.600  10.771  1.00  0.00    -0.346 N 
ATOM     20  H62 UNL     1       0.599  13.339  11.060  1.00  0.00     0.172 HD
ATOM     21  H61 UNL     1       1.634  11.860  11.352  1.00  0.00     0.172 HD
ENDBRANCH  18  19
ENDBRANCH   4  18
TORSDOF 3
ENDMDL
MODEL 4
REMARK VINA RESULT: -6.315771016      2.710      3.263
REMARK  3 active torsions:
REMARK  status: ('A' for Active; 'I' for Inactive)
REMARK       I    between atoms: C1_4  and  N3_6 
REMARK    1  A    between atoms: N3_6  and  C2_8 
REMARK    2  A    between atoms: C3_11  and  N5_12 
REMARK    3  A    between atoms: N5_12  and  N6_13 
ROOT
HETATM    1  C2  UNL     1       0.597   8.462   9.356  1.00  0.00     0.683 A 
HETATM    2  N4  UNL     1       1.271   9.500   9.117  1.00  0.00    -0.199 N 
ATOM      3  H4  UNL     1       2.283   9.414   9.214  1.00  0.00     0.180 HD
HETATM    4  C3  UNL     1       0.777  10.790   8.723  1.00  0.00     0.290 A 
HETATM    5  C4  UNL     1      -0.685  10.767   8.624  1.00  0.00     0.231 A 
HETATM    6  O1  UNL     1      -1.236  11.858   8.282  1.00  0.00    -0.286 OA
HETATM    7  C5  UNL     1      -1.450   9.574   8.900  1.00  0.00     0.181 A 
HETATM    8  N7  UNL     1      -2.864   9.653   8.778  1.00  0.00    -0.078 NA
HETATM    9  N8  UNL     1      -0.829   8.507   9.242  1.00  0.00    -0.175 N 
ATOM     10  H8  UNL     1      -1.367   7.663   9.439  1.00  0.00     0.185 HD
ENDROOT
BRANCH   1  11
HETATM   11  N3  UNL     1       1.198   7.213   9.746  1.00  0.00    -0.164 N 
HETATM   12  C1  UNL     1       1.487   6.226   8.779  1.00  0.00     0.200 C 
HETATM   13  N1  UNL     1       1.273   6.458   7.539  1.00  0.00    -0.373 N 
HETATM   14  N2  UNL     1       2.015   4.970   9.152  1.00  0.00    -0.063 NA
ATOM     15  H12 UNL     1       1.482   5.745   6.840  1.00  0.00     0.158 HD
ATOM     16  H11 UNL     1       0.893   7.365   7.270  1.00  0.00     0.158 HD
ATOM     17  H3  UNL     1       1.416   7.041  10.728  1.00  0.00     0.187 HD
ENDBRANCH   1  11
BRANCH   4  18
HETATM   18  N5  UNL     1       1.264  11.821   9.619  1.00  0.00    -0.114 NA
BRANCH  18  19
HETATM   19  N6  UNL     1       0.535  11.707  10.813  1.00  0.00    -0.346 N 
ATOM     20  H62 UNL     1       0.178  10.838  11.211  1.00  0.00     0.172 HD
ATOM     21  H61 UNL     1       0.435  12.648  11.193  1.00  0.00     0.172 HD
ENDBRANCH  18  19
ENDBRANCH   4  18
TORSDOF 3
ENDMDL
MODEL 5
REMARK VINA RESULT: -6.291801661      4.631      7.785
REMARK  3 active torsions:
REMARK  status: ('A' for Active; 'I' for Inactive)
REMARK       I    between atoms: C1_4  and  N3_6 
REMARK    1  A    between atoms: N3_6  and  C2_8 
REMARK    2  A    between atoms: C3_11  and  N5_12 
REMARK    3  A    between atoms: N5_12  and  N6_13 
ROOT
HETATM    1  C2  UNL     1      -0.836   8.471  14.857  1.00  0.00     0.683 A 
HETATM    2  N4  UNL     1      -0.005   7.667  15.359  1.00  0.00    -0.199 N 
ATOM      3  H4  UNL     1       0.962   7.767  15.052  1.00  0.00     0.180 HD
HETATM    4  C3  UNL     1      -0.266   6.626  16.314  1.00  0.00     0.290 A 
HETATM    5  C4  UNL     1      -1.690   6.598  16.661  1.00  0.00     0.231 A 
HETATM    6  O1  UNL     1      -2.039   5.714  17.501  1.00  0.00    -0.286 OA
HETATM    7  C5  UNL     1      -2.635   7.522  16.081  1.00  0.00     0.181 A 
HETATM    8  N7  UNL     1      -3.995   7.414  16.481  1.00  0.00    -0.078 NA
HETATM    9  N8  UNL     1      -2.213   8.390  15.238  1.00  0.00    -0.175 N 
ATOM     10  H8  UNL     1      -2.880   9.044  14.826  1.00  0.00     0.185 HD
ENDROOT
BRANCH   1  11
HETATM   11  N3  UNL     1      -0.465   9.483  13.903  1.00  0.00    -0.164 N 
HETATM   12  C1  UNL     1      -0.546   9.224  12.516  1.00  0.00     0.200 C 
HETATM   13  N1  UNL     1      -1.008   8.107  12.097  1.00  0.00    -0.373 N 
HETATM   14  N2  UNL     1      -0.123  10.181  11.568  1.00  0.00    -0.063 NA
ATOM     15  H12 UNL     1      -1.066   7.919  11.097  1.00  0.00     0.158 HD
ATOM     16  H11 UNL     1      -1.313   7.415  12.782  1.00  0.00     0.158 HD
ATOM     17  H3  UNL     1      -0.142  10.394  14.230  1.00  0.00     0.187 HD
ENDBRANCH   1  11
BRANCH   4  18
HETATM   18  N5  UNL     1       0.219   5.350  15.825  1.00  0.00    -0.114 NA
BRANCH  18  19
HETATM   19  N6  UNL     1       0.885   4.727  16.892  1.00  0.00    -0.346 N 
ATOM     20  H62 UNL     1       1.556   5.174  17.518  1.00  0.00     0.172 HD
ATOM     21  H61 UNL     1       0.570   3.757  16.916  1.00  0.00     0.172 HD
ENDBRANCH  18  19
ENDBRANCH   4  18
TORSDOF 3
ENDMDL
