MODEL 1
REMARK VINA RESULT: -6.841214841      0.000      0.000
REMARK  2 active torsions:
REMARK  status: ('A' for Active; 'I' for Inactive)
REMARK    1  A    between atoms: C2_2  and  N1_4 
REMARK    2  A    between atoms: N1_4  and  C4_6 
REMARK       I    between atoms: N3_9  and  C5_10 
ROOT
HETATM    1  C4  UNL     1      -1.535   8.553  10.850  1.00  0.00     0.188 C 
HETATM    2  N2  UNL     1      -1.380   9.816  10.563  1.00  0.00    -0.259 N 
ATOM      3  H2  UNL     1      -1.918  10.515  11.076  1.00  0.00     0.190 HD
HETATM    4  N3  UNL     1      -0.498  10.231   9.573  1.00  0.00    -0.147 N 
HETATM    5  C5  UNL     1      -0.033  11.590   9.499  1.00  0.00     0.222 C 
HETATM    6  N4  UNL     1       0.619  12.087  10.473  1.00  0.00    -0.371 N 
ATOM      7  H41 UNL     1       0.948  13.050  10.421  1.00  0.00     0.158 HD
ATOM      8  H42 UNL     1       0.804  11.516  11.298  1.00  0.00     0.158 HD
HETATM    9  N5  UNL     1      -0.289  12.379   8.359  1.00  0.00    -0.061 NA
HETATM   10  N6  UNL     1      -0.040   9.338   8.626  1.00  0.00     0.006 NA
HETATM   11  N7  UNL     1       0.117   8.037   9.119  1.00  0.00    -0.245 N 
ATOM     12  H7  UNL     1       0.865   7.441   8.762  1.00  0.00     0.187 HD
HETATM   13  C6  UNL     1      -0.771   7.544  10.123  1.00  0.00     0.303 C 
HETATM   14  O1  UNL     1      -0.873   6.309  10.349  1.00  0.00    -0.263 OA
ENDROOT
BRANCH   1  15
HETATM   15  N1  UNL     1      -2.439   8.123  11.864  1.00  0.00    -0.367 N 
ATOM     16  H1  UNL     1      -3.439   8.199  11.676  1.00  0.00     0.161 HD
BRANCH  15  17
HETATM   17  C2  UNL     1      -2.033   7.589  13.132  1.00  0.00     0.075 C 
HETATM   18  C1  UNL     1      -3.108   6.821  13.832  1.00  0.00     0.031 C 
HETATM   19  C3  UNL     1      -1.523   8.688  14.005  1.00  0.00     0.031 C 
ENDBRANCH  15  17
ENDBRANCH   1  15
TORSDOF 2
ENDMDL
MODEL 2
REMARK VINA RESULT: -6.576917672      1.985      3.233
REMARK  2 active torsions:
REMARK  status: ('A' for Active; 'I' for Inactive)
REMARK    1  A    between atoms: C2_2  and  N1_4 
REMARK    2  A    between atoms: N1_4  and  C4_6 
REMARK       I    between atoms: N3_9  and  C5_10 
ROOT
HETATM    1  C4  UNL     1      -0.585   7.790  10.440  1.00  0.00     0.188 C 
HETATM    2  N2  UNL     1      -0.373   8.553   9.401  1.00  0.00    -0.259 N 
ATOM      3  H2  UNL     1      -0.101   8.126   8.516  1.00  0.00     0.190 HD
HETATM    4  N3  UNL     1      -0.510   9.933   9.476  1.00  0.00    -0.147 N 
HETATM    5  C5  UNL     1      -0.656  10.741   8.295  1.00  0.00     0.222 C 
HETATM    6  N4  UNL     1      -1.648  10.552   7.521  1.00  0.00    -0.371 N 
ATOM      7  H41 UNL     1      -1.751  11.125   6.684  1.00  0.00     0.158 HD
ATOM      8  H42 UNL     1      -2.331   9.827   7.746  1.00  0.00     0.158 HD
HETATM    9  N5  UNL     1       0.289  11.742   7.985  1.00  0.00    -0.061 NA
HETATM   10  N6  UNL     1      -0.509  10.570  10.700  1.00  0.00     0.006 NA
HETATM   11  N7  UNL     1      -1.097   9.813  11.721  1.00  0.00    -0.245 N 
ATOM     12  H7  UNL     1      -1.612  10.276  12.470  1.00  0.00     0.187 HD
HETATM   13  C6  UNL     1      -0.975   8.390  11.712  1.00  0.00     0.303 C 
HETATM   14  O1  UNL     1      -1.194   7.714  12.752  1.00  0.00    -0.263 OA
ENDROOT
BRANCH   1  15
HETATM   15  N1  UNL     1      -0.445   6.375  10.368  1.00  0.00    -0.367 N 
ATOM     16  H1  UNL     1      -1.285   5.806  10.476  1.00  0.00     0.161 HD
BRANCH  15  17
HETATM   17  C2  UNL     1       0.801   5.698  10.151  1.00  0.00     0.075 C 
HETATM   18  C1  UNL     1       0.644   4.267   9.746  1.00  0.00     0.031 C 
HETATM   19  C3  UNL     1       1.655   5.806  11.371  1.00  0.00     0.031 C 
ENDBRANCH  15  17
ENDBRANCH   1  15
TORSDOF 2
ENDMDL
MODEL 3
REMARK VINA RESULT: -6.500795285      1.848      3.260
REMARK  2 active torsions:
REMARK  status: ('A' for Active; 'I' for Inactive)
REMARK    1  A    between atoms: C2_2  and  N1_4 
REMARK    2  A    between atoms: N1_4  and  C4_6 
REMARK       I    between atoms: N3_9  and  C5_10 
ROOT
HETATM    1  C4  UNL     1      -0.909   7.841  10.432  1.00  0.00     0.188 C 
HETATM    2  N2  UNL     1      -0.576   8.579   9.408  1.00  0.00    -0.259 N 
ATOM      3  H2  UNL     1      -0.347   8.128   8.522  1.00  0.00     0.190 HD
HETATM    4  N3  UNL     1      -0.526   9.964   9.497  1.00  0.00    -0.147 N 
HETATM    5  C5  UNL     1      -0.537  10.796   8.324  1.00  0.00     0.222 C 
HETATM    6  N4  UNL     1      -1.531  10.751   7.531  1.00  0.00    -0.371 N 
ATOM      7  H41 UNL     1      -1.540  11.341   6.699  1.00  0.00     0.158 HD
ATOM      8  H42 UNL     1      -2.310  10.124   7.734  1.00  0.00     0.158 HD
HETATM    9  N5  UNL     1       0.539  11.663   8.044  1.00  0.00    -0.061 NA
HETATM   10  N6  UNL     1      -0.463  10.582  10.729  1.00  0.00     0.006 NA
HETATM   11  N7  UNL     1      -1.168   9.902  11.730  1.00  0.00    -0.245 N 
ATOM     12  H7  UNL     1      -1.629  10.423  12.475  1.00  0.00     0.187 HD
HETATM   13  C6  UNL     1      -1.239   8.475  11.705  1.00  0.00     0.303 C 
HETATM   14  O1  UNL     1      -1.568   7.825  12.732  1.00  0.00    -0.263 OA
ENDROOT
BRANCH   1  15
HETATM   15  N1  UNL     1      -0.961   6.421  10.345  1.00  0.00    -0.367 N 
ATOM     16  H1  UNL     1      -1.879   5.979  10.301  1.00  0.00     0.161 HD
BRANCH  15  17
HETATM   17  C2  UNL     1       0.195   5.573  10.313  1.00  0.00     0.075 C 
HETATM   18  C1  UNL     1       1.388   6.159  11.001  1.00  0.00     0.031 C 
HETATM   19  C3  UNL     1       0.527   5.220   8.901  1.00  0.00     0.031 C 
ENDBRANCH  15  17
ENDBRANCH   1  15
TORSDOF 2
ENDMDL
MODEL 4
REMARK VINA RESULT: -6.461497637      1.589      1.816
REMARK  2 active torsions:
REMARK  status: ('A' for Active; 'I' for Inactive)
REMARK    1  A    between atoms: C2_2  and  N1_4 
REMARK    2  A    between atoms: N1_4  and  C4_6 
REMARK       I    between atoms: N3_9  and  C5_10 
ROOT
HETATM    1  C4  UNL     1      -0.488   8.337  12.510  1.00  0.00     0.188 C 
HETATM    2  N2  UNL     1      -0.802   9.405  11.830  1.00  0.00    -0.259 N 
ATOM      3  H2  UNL     1      -1.364  10.132  12.274  1.00  0.00     0.190 HD
HETATM    4  N3  UNL     1      -0.390   9.576  10.515  1.00  0.00    -0.147 N 
HETATM    5  C5  UNL     1      -0.392  10.869   9.885  1.00  0.00     0.222 C 
HETATM    6  N4  UNL     1       0.321  11.806  10.369  1.00  0.00    -0.371 N 
ATOM      7  H41 UNL     1       0.319  12.722   9.922  1.00  0.00     0.158 HD
ATOM      8  H42 UNL     1       0.886  11.631  11.200  1.00  0.00     0.158 HD
HETATM    9  N5  UNL     1      -1.174  11.110   8.736  1.00  0.00    -0.061 NA
HETATM   10  N6  UNL     1       0.038   8.494   9.771  1.00  0.00     0.006 NA
HETATM   11  N7  UNL     1       0.706   7.526  10.531  1.00  0.00    -0.245 N 
ATOM     12  H7  UNL     1       1.470   6.991  10.120  1.00  0.00     0.187 HD
HETATM   13  C6  UNL     1       0.315   7.290  11.885  1.00  0.00     0.303 C 
HETATM   14  O1  UNL     1       0.654   6.234  12.482  1.00  0.00    -0.263 OA
ENDROOT
BRANCH   1  15
HETATM   15  N1  UNL     1      -0.909   8.158  13.858  1.00  0.00    -0.367 N 
ATOM     16  H1  UNL     1      -0.189   8.061  14.574  1.00  0.00     0.161 HD
BRANCH  15  17
HETATM   17  C2  UNL     1      -2.281   8.106  14.273  1.00  0.00     0.075 C 
HETATM   18  C1  UNL     1      -2.467   8.247  15.751  1.00  0.00     0.031 C 
HETATM   19  C3  UNL     1      -2.912   6.844  13.785  1.00  0.00     0.031 C 
ENDBRANCH  15  17
ENDBRANCH   1  15
TORSDOF 2
ENDMDL
MODEL 5
REMARK VINA RESULT: -6.436410125      2.574      4.141
REMARK  2 active torsions:
REMARK  status: ('A' for Active; 'I' for Inactive)
REMARK    1  A    between atoms: C2_2  and  N1_4 
REMARK    2  A    between atoms: N1_4  and  C4_6 
REMARK       I    between atoms: N3_9  and  C5_10 
ROOT
HETATM    1  C4  UNL     1       0.230   7.477   9.631  1.00  0.00     0.188 C 
HETATM    2  N2  UNL     1      -0.627   8.212   8.977  1.00  0.00    -0.259 N 
ATOM      3  H2  UNL     1      -0.807   8.012   7.993  1.00  0.00     0.190 HD
HETATM    4  N3  UNL     1      -1.301   9.259   9.591  1.00  0.00    -0.147 N 
HETATM    5  C5  UNL     1      -2.496   9.823   9.023  1.00  0.00     0.222 C 
HETATM    6  N4  UNL     1      -3.521   9.088   8.854  1.00  0.00    -0.371 N 
ATOM      7  H41 UNL     1      -4.368   9.488   8.452  1.00  0.00     0.158 HD
ATOM      8  H42 UNL     1      -3.485   8.104   9.124  1.00  0.00     0.158 HD
HETATM    9  N5  UNL     1      -2.546  11.183   8.650  1.00  0.00    -0.061 NA
HETATM   10  N6  UNL     1      -0.835   9.791  10.776  1.00  0.00     0.006 NA
HETATM   11  N7  UNL     1      -0.230   8.843  11.611  1.00  0.00    -0.245 N 
ATOM     12  H7  UNL     1      -0.307   8.931  12.624  1.00  0.00     0.187 HD
HETATM   13  C6  UNL     1       0.495   7.753  11.040  1.00  0.00     0.303 C 
HETATM   14  O1  UNL     1       1.310   7.084  11.730  1.00  0.00    -0.263 OA
ENDROOT
BRANCH   1  15
HETATM   15  N1  UNL     1       0.924   6.402   9.005  1.00  0.00    -0.367 N 
ATOM     16  H1  UNL     1       1.896   6.554   8.736  1.00  0.00     0.161 HD
BRANCH  15  17
HETATM   17  C2  UNL     1       0.342   5.120   8.731  1.00  0.00     0.075 C 
HETATM   18  C1  UNL     1       0.900   4.015   9.572  1.00  0.00     0.031 C 
HETATM   19  C3  UNL     1       0.489   4.797   7.280  1.00  0.00     0.031 C 
ENDBRANCH  15  17
ENDBRANCH   1  15
TORSDOF 2
ENDMDL
