MODEL 1
REMARK VINA RESULT: -5.911322419      0.000      0.000
REMARK  4 active torsions:
REMARK  status: ('A' for Active; 'I' for Inactive)
REMARK    1  A    between atoms: C3_5  and  N3_6 
REMARK    2  A    between atoms: N3_6  and  O1_10 
REMARK    3  A    between atoms: C4_12  and  N5_13 
REMARK    4  A    between atoms: N5_13  and  N6_14 
ROOT
HETATM    1  C1  UNL     1      29.233  22.721  39.867  1.00  0.00     0.162 C 
HETATM    2  N1  UNL     1      30.363  23.127  39.015  1.00  0.00    -0.290 N 
HETATM    3  C2  UNL     1      31.509  23.523  39.571  1.00  0.00     0.158 A 
HETATM    4  N2  UNL     1      31.623  23.531  40.989  1.00  0.00    -0.080 NA
HETATM    5  C3  UNL     1      32.566  23.911  38.755  1.00  0.00     0.182 A 
HETATM    6  C4  UNL     1      32.471  23.901  37.350  1.00  0.00     0.241 A 
HETATM    7  N7  UNL     1      31.233  23.470  36.867  1.00  0.00    -0.279 N 
ATOM      8  H7  UNL     1      31.079  23.432  35.859  1.00  0.00     0.173 HD
HETATM    9  C5  UNL     1      30.255  23.111  37.679  1.00  0.00     0.330 A 
HETATM   10  O2  UNL     1      29.139  22.723  37.188  1.00  0.00    -0.246 OA
ENDROOT
BRANCH   5  11
HETATM   11  N3  UNL     1      33.748  24.326  39.390  1.00  0.00    -0.162 N 
HETATM   12  N4  UNL     1      33.823  25.255  40.221  1.00  0.00    -0.318 N 
ATOM     13  H42 UNL     1      32.949  25.739  40.424  1.00  0.00     0.179 HD
ATOM     14  H41 UNL     1      34.681  25.556  40.682  1.00  0.00     0.179 HD
BRANCH  11  15
HETATM   15  O1  UNL     1      34.939  23.666  39.112  1.00  0.00    -0.268 OA
ATOM     16  H1  UNL     1      35.398  23.218  39.813  1.00  0.00     0.247 HD
ENDBRANCH  11  15
ENDBRANCH   5  11
BRANCH   6  17
HETATM   17  N5  UNL     1      33.361  24.202  36.647  1.00  0.00    -0.311 NA
BRANCH  17  18
HETATM   18  N6  UNL     1      34.324  24.586  35.929  1.00  0.00    -0.278 N 
ATOM     19  H62 UNL     1      34.308  25.176  36.761  1.00  0.00     0.191 HD
ATOM     20  H61 UNL     1      35.089  24.855  35.310  1.00  0.00     0.191 HD
ENDBRANCH  17  18
ENDBRANCH   6  17
TORSDOF 4
ENDMDL
MODEL 2
REMARK VINA RESULT: -5.823589695      1.078      1.109
REMARK  4 active torsions:
REMARK  status: ('A' for Active; 'I' for Inactive)
REMARK    1  A    between atoms: C3_5  and  N3_6 
REMARK    2  A    between atoms: N3_6  and  O1_10 
REMARK    3  A    between atoms: C4_12  and  N5_13 
REMARK    4  A    between atoms: N5_13  and  N6_14 
ROOT
HETATM    1  C1  UNL     1      29.431  21.977  39.390  1.00  0.00     0.162 C 
HETATM    2  N1  UNL     1      30.504  22.878  38.937  1.00  0.00    -0.290 N 
HETATM    3  C2  UNL     1      31.328  23.436  39.826  1.00  0.00     0.158 A 
HETATM    4  N2  UNL     1      31.161  23.134  41.206  1.00  0.00    -0.080 NA
HETATM    5  C3  UNL     1      32.332  24.291  39.385  1.00  0.00     0.182 A 
HETATM    6  C4  UNL     1      32.514  24.593  38.021  1.00  0.00     0.241 A 
HETATM    7  N7  UNL     1      31.603  23.959  37.172  1.00  0.00    -0.279 N 
ATOM      8  H7  UNL     1      31.666  24.123  36.167  1.00  0.00     0.173 HD
HETATM    9  C5  UNL     1      30.663  23.154  37.634  1.00  0.00     0.330 A 
HETATM   10  O2  UNL     1      29.853  22.597  36.816  1.00  0.00    -0.246 OA
ENDROOT
BRANCH   5  11
HETATM   11  N3  UNL     1      33.166  24.857  40.362  1.00  0.00    -0.162 N 
HETATM   12  N4  UNL     1      32.773  25.337  41.445  1.00  0.00    -0.318 N 
ATOM     13  H42 UNL     1      31.765  25.314  41.599  1.00  0.00     0.179 HD
ATOM     14  H41 UNL     1      33.380  25.748  42.155  1.00  0.00     0.179 HD
BRANCH  11  15
HETATM   15  O1  UNL     1      34.540  24.887  40.151  1.00  0.00    -0.268 OA
ATOM     16  H1  UNL     1      35.113  25.170  40.854  1.00  0.00     0.247 HD
ENDBRANCH  11  15
ENDBRANCH   5  11
BRANCH   6  17
HETATM   17  N5  UNL     1      33.371  25.292  37.631  1.00  0.00    -0.311 NA
BRANCH  17  18
HETATM   18  N6  UNL     1      34.329  26.030  37.272  1.00  0.00    -0.278 N 
ATOM     19  H62 UNL     1      34.703  25.337  37.921  1.00  0.00     0.191 HD
ATOM     20  H61 UNL     1      35.066  26.656  36.948  1.00  0.00     0.191 HD
ENDBRANCH  17  18
ENDBRANCH   6  17
TORSDOF 4
ENDMDL
MODEL 3
REMARK VINA RESULT: -5.746650589      4.670      5.813
REMARK  4 active torsions:
REMARK  status: ('A' for Active; 'I' for Inactive)
REMARK    1  A    between atoms: C3_5  and  N3_6 
REMARK    2  A    between atoms: N3_6  and  O1_10 
REMARK    3  A    between atoms: C4_12  and  N5_13 
REMARK    4  A    between atoms: N5_13  and  N6_14 
ROOT
HETATM    1  C1  UNL     1      28.280  23.393  45.608  1.00  0.00     0.162 C 
HETATM    2  N1  UNL     1      29.333  23.827  44.674  1.00  0.00    -0.290 N 
HETATM    3  C2  UNL     1      30.077  24.896  44.958  1.00  0.00     0.158 A 
HETATM    4  N2  UNL     1      29.848  25.595  46.176  1.00  0.00    -0.080 NA
HETATM    5  C3  UNL     1      31.063  25.300  44.063  1.00  0.00     0.182 A 
HETATM    6  C4  UNL     1      31.307  24.614  42.858  1.00  0.00     0.241 A 
HETATM    7  N7  UNL     1      30.476  23.509  42.653  1.00  0.00    -0.279 N 
ATOM      8  H7  UNL     1      30.587  22.956  41.804  1.00  0.00     0.173 HD
HETATM    9  C5  UNL     1      29.551  23.162  43.530  1.00  0.00     0.330 A 
HETATM   10  O2  UNL     1      28.816  22.141  43.298  1.00  0.00    -0.246 OA
ENDROOT
BRANCH   5  11
HETATM   11  N3  UNL     1      31.813  26.435  44.406  1.00  0.00    -0.162 N 
HETATM   12  N4  UNL     1      31.353  27.592  44.509  1.00  0.00    -0.318 N 
ATOM     13  H42 UNL     1      30.357  27.690  44.311  1.00  0.00     0.179 HD
ATOM     14  H41 UNL     1      31.898  28.417  44.758  1.00  0.00     0.179 HD
BRANCH  11  15
HETATM   15  O1  UNL     1      33.170  26.300  44.677  1.00  0.00    -0.268 OA
ATOM     16  H1  UNL     1      33.730  25.865  44.045  1.00  0.00     0.247 HD
ENDBRANCH  11  15
ENDBRANCH   5  11
BRANCH   6  17
HETATM   17  N5  UNL     1      32.151  24.927  42.104  1.00  0.00    -0.311 NA
BRANCH  17  18
HETATM   18  N6  UNL     1      33.067  25.193  41.281  1.00  0.00    -0.278 N 
ATOM     19  H62 UNL     1      32.730  24.253  41.071  1.00  0.00     0.191 HD
ATOM     20  H61 UNL     1      33.814  25.461  40.640  1.00  0.00     0.191 HD
ENDBRANCH  17  18
ENDBRANCH   6  17
TORSDOF 4
ENDMDL
MODEL 4
REMARK VINA RESULT: -5.700644863      2.053      3.447
REMARK  4 active torsions:
REMARK  status: ('A' for Active; 'I' for Inactive)
REMARK    1  A    between atoms: C3_5  and  N3_6 
REMARK    2  A    between atoms: N3_6  and  O1_10 
REMARK    3  A    between atoms: C4_12  and  N5_13 
REMARK    4  A    between atoms: N5_13  and  N6_14 
ROOT
HETATM    1  C1  UNL     1      30.714  23.276  42.361  1.00  0.00     0.162 C 
HETATM    2  N1  UNL     1      31.536  23.896  41.308  1.00  0.00    -0.290 N 
HETATM    3  C2  UNL     1      31.428  23.481  40.046  1.00  0.00     0.158 A 
HETATM    4  N2  UNL     1      30.503  22.445  39.735  1.00  0.00    -0.080 NA
HETATM    5  C3  UNL     1      32.216  24.071  39.063  1.00  0.00     0.182 A 
HETATM    6  C4  UNL     1      33.130  25.102  39.354  1.00  0.00     0.241 A 
HETATM    7  N7  UNL     1      33.167  25.466  40.702  1.00  0.00    -0.279 N 
ATOM      8  H7  UNL     1      33.802  26.207  40.999  1.00  0.00     0.173 HD
HETATM    9  C5  UNL     1      32.401  24.878  41.604  1.00  0.00     0.330 A 
HETATM   10  O2  UNL     1      32.471  25.247  42.826  1.00  0.00    -0.246 OA
ENDROOT
BRANCH   5  11
HETATM   11  N3  UNL     1      32.070  23.591  37.751  1.00  0.00    -0.162 N 
HETATM   12  N4  UNL     1      30.987  23.523  37.132  1.00  0.00    -0.318 N 
ATOM     13  H42 UNL     1      30.163  23.834  37.647  1.00  0.00     0.179 HD
ATOM     14  H41 UNL     1      30.881  23.175  36.180  1.00  0.00     0.179 HD
BRANCH  11  15
HETATM   15  O1  UNL     1      33.193  23.168  37.051  1.00  0.00    -0.268 OA
ATOM     16  H1  UNL     1      33.082  22.665  36.252  1.00  0.00     0.247 HD
ENDBRANCH  11  15
ENDBRANCH   5  11
BRANCH   6  17
HETATM   17  N5  UNL     1      33.783  25.627  38.532  1.00  0.00    -0.311 NA
BRANCH  17  18
HETATM   18  N6  UNL     1      34.464  26.139  37.603  1.00  0.00    -0.278 N 
ATOM     19  H62 UNL     1      33.487  26.377  37.433  1.00  0.00     0.191 HD
ATOM     20  H61 UNL     1      35.063  26.532  36.877  1.00  0.00     0.191 HD
ENDBRANCH  17  18
ENDBRANCH   6  17
TORSDOF 4
ENDMDL
MODEL 5
REMARK VINA RESULT: -5.686441832      5.934      7.179
REMARK  4 active torsions:
REMARK  status: ('A' for Active; 'I' for Inactive)
REMARK    1  A    between atoms: C3_5  and  N3_6 
REMARK    2  A    between atoms: N3_6  and  O1_10 
REMARK    3  A    between atoms: C4_12  and  N5_13 
REMARK    4  A    between atoms: N5_13  and  N6_14 
ROOT
HETATM    1  C1  UNL     1      27.601  25.043  46.909  1.00  0.00     0.162 C 
HETATM    2  N1  UNL     1      28.647  25.087  45.873  1.00  0.00    -0.290 N 
HETATM    3  C2  UNL     1      29.115  26.261  45.447  1.00  0.00     0.158 A 
HETATM    4  N2  UNL     1      28.600  27.459  46.017  1.00  0.00    -0.080 NA
HETATM    5  C3  UNL     1      30.097  26.288  44.463  1.00  0.00     0.182 A 
HETATM    6  C4  UNL     1      30.622  25.110  43.895  1.00  0.00     0.241 A 
HETATM    7  N7  UNL     1      30.068  23.935  44.409  1.00  0.00    -0.279 N 
ATOM      8  H7  UNL     1      30.393  23.036  44.053  1.00  0.00     0.173 HD
HETATM    9  C5  UNL     1      29.135  23.956  45.344  1.00  0.00     0.330 A 
HETATM   10  O2  UNL     1      28.659  22.852  45.783  1.00  0.00    -0.246 OA
ENDROOT
BRANCH   5  11
HETATM   11  N3  UNL     1      30.550  27.549  44.044  1.00  0.00    -0.162 N 
HETATM   12  N4  UNL     1      30.188  28.127  42.998  1.00  0.00    -0.318 N 
ATOM     13  H42 UNL     1      29.522  27.615  42.419  1.00  0.00     0.179 HD
ATOM     14  H41 UNL     1      30.517  29.043  42.694  1.00  0.00     0.179 HD
BRANCH  11  15
HETATM   15  O1  UNL     1      31.457  28.245  44.835  1.00  0.00    -0.268 OA
ATOM     16  H1  UNL     1      31.366  28.221  45.780  1.00  0.00     0.247 HD
ENDBRANCH  11  15
ENDBRANCH   5  11
BRANCH   6  17
HETATM   17  N5  UNL     1      31.468  25.115  43.082  1.00  0.00    -0.311 NA
BRANCH  17  18
HETATM   18  N6  UNL     1      32.419  25.084  42.255  1.00  0.00    -0.278 N 
ATOM     19  H62 UNL     1      32.746  24.642  43.114  1.00  0.00     0.191 HD
ATOM     20  H61 UNL     1      33.154  25.086  41.547  1.00  0.00     0.191 HD
ENDBRANCH  17  18
ENDBRANCH   6  17
TORSDOF 4
ENDMDL
