MODEL 1
REMARK VINA RESULT: -6.118804494      0.000      0.000
REMARK  2 active torsions:
REMARK  status: ('A' for Active; 'I' for Inactive)
REMARK    1  A    between atoms: O1_2  and  N1_3 
REMARK    2  A    between atoms: N2_8  and  N3_9 
ROOT
HETATM    1  N1  UNL     1      30.917  23.017  39.175  1.00  0.00    -0.128 N 
HETATM    2  C2  UNL     1      31.295  23.346  37.927  1.00  0.00     0.306 A 
HETATM    3  O2  UNL     1      30.687  22.798  36.974  1.00  0.00    -0.263 OA
HETATM    4  C3  UNL     1      32.308  24.248  37.656  1.00  0.00     0.147 A 
HETATM    5  C4  UNL     1      32.971  24.845  38.706  1.00  0.00     0.161 A 
HETATM    6  N2  UNL     1      32.574  24.498  39.944  1.00  0.00    -0.191 N 
HETATM    7  C5  UNL     1      31.583  23.616  40.178  1.00  0.00     0.376 A 
HETATM    8  O3  UNL     1      31.233  23.312  41.365  1.00  0.00    -0.242 OA
HETATM    9  N4  UNL     1      33.975  25.737  38.193  1.00  0.00    -0.357 N 
ATOM     10  H4  UNL     1      34.721  26.172  38.736  1.00  0.00     0.162 HD
HETATM   11  C6  UNL     1      33.743  25.915  36.755  1.00  0.00     0.245 C 
HETATM   12  N5  UNL     1      32.903  24.770  36.479  1.00  0.00    -0.366 N 
ATOM     13  H5  UNL     1      32.755  24.384  35.546  1.00  0.00     0.161 HD
ENDROOT
BRANCH   6  14
HETATM   14  N3  UNL     1      33.238  25.097  41.015  1.00  0.00    -0.333 N 
ATOM     15  H32 UNL     1      32.738  25.283  41.884  1.00  0.00     0.177 HD
ATOM     16  H31 UNL     1      34.223  25.330  40.879  1.00  0.00     0.177 HD
ENDBRANCH   6  14
BRANCH   1  17
HETATM   17  O1  UNL     1      29.903  22.114  39.394  1.00  0.00    -0.271 OA
HETATM   18  C1  UNL     1      28.553  22.444  39.514  1.00  0.00     0.239 C 
ENDBRANCH   1  17
TORSDOF 2
ENDMDL
MODEL 2
REMARK VINA RESULT: -5.963364340      1.384      2.906
REMARK  2 active torsions:
REMARK  status: ('A' for Active; 'I' for Inactive)
REMARK    1  A    between atoms: O1_2  and  N1_3 
REMARK    2  A    between atoms: N2_8  and  N3_9 
ROOT
HETATM    1  N1  UNL     1      31.651  23.854  40.348  1.00  0.00    -0.128 N 
HETATM    2  C2  UNL     1      32.652  24.700  40.047  1.00  0.00     0.306 A 
HETATM    3  O2  UNL     1      33.275  25.224  41.004  1.00  0.00    -0.263 OA
HETATM    4  C3  UNL     1      33.017  25.010  38.750  1.00  0.00     0.147 A 
HETATM    5  C4  UNL     1      32.329  24.432  37.705  1.00  0.00     0.161 A 
HETATM    6  N2  UNL     1      31.332  23.590  38.033  1.00  0.00    -0.191 N 
HETATM    7  C5  UNL     1      30.999  23.307  39.307  1.00  0.00     0.376 A 
HETATM    8  O3  UNL     1      30.048  22.503  39.581  1.00  0.00    -0.242 OA
HETATM    9  N4  UNL     1      32.874  24.895  36.458  1.00  0.00    -0.357 N 
ATOM     10  H4  UNL     1      32.453  24.768  35.539  1.00  0.00     0.162 HD
HETATM   11  C6  UNL     1      34.142  25.580  36.736  1.00  0.00     0.245 C 
HETATM   12  N5  UNL     1      33.998  25.841  38.151  1.00  0.00    -0.366 N 
ATOM     13  H5  UNL     1      34.540  26.540  38.659  1.00  0.00     0.161 HD
ENDROOT
BRANCH   6  14
HETATM   14  N3  UNL     1      30.629  22.998  36.983  1.00  0.00    -0.333 N 
ATOM     15  H32 UNL     1      30.212  23.582  36.258  1.00  0.00     0.177 HD
ATOM     16  H31 UNL     1      30.561  21.980  36.985  1.00  0.00     0.177 HD
ENDBRANCH   6  14
BRANCH   1  17
HETATM   17  O1  UNL     1      31.325  23.578  41.655  1.00  0.00    -0.271 OA
HETATM   18  C1  UNL     1      30.394  24.289  42.413  1.00  0.00     0.239 C 
ENDBRANCH   1  17
TORSDOF 2
ENDMDL
MODEL 3
REMARK VINA RESULT: -5.956918975      4.947      6.246
REMARK  2 active torsions:
REMARK  status: ('A' for Active; 'I' for Inactive)
REMARK    1  A    between atoms: O1_2  and  N1_3 
REMARK    2  A    between atoms: N2_8  and  N3_9 
ROOT
HETATM    1  N1  UNL     1      29.412  24.171  45.449  1.00  0.00    -0.128 N 
HETATM    2  C2  UNL     1      29.884  23.856  44.229  1.00  0.00     0.306 A 
HETATM    3  O2  UNL     1      29.796  22.656  43.866  1.00  0.00    -0.263 OA
HETATM    4  C3  UNL     1      30.450  24.784  43.374  1.00  0.00     0.147 A 
HETATM    5  C4  UNL     1      30.543  26.098  43.779  1.00  0.00     0.161 A 
HETATM    6  N2  UNL     1      30.064  26.386  45.003  1.00  0.00    -0.191 N 
HETATM    7  C5  UNL     1      29.517  25.460  45.815  1.00  0.00     0.376 A 
HETATM    8  O3  UNL     1      29.073  25.770  46.969  1.00  0.00    -0.242 OA
HETATM    9  N4  UNL     1      31.159  26.877  42.741  1.00  0.00    -0.357 N 
ATOM     10  H4  UNL     1      31.507  27.830  42.836  1.00  0.00     0.162 HD
HETATM   11  C6  UNL     1      31.203  26.064  41.519  1.00  0.00     0.245 C 
HETATM   12  N5  UNL     1      31.014  24.742  42.073  1.00  0.00    -0.366 N 
ATOM     13  H5  UNL     1      31.257  23.880  41.586  1.00  0.00     0.161 HD
ENDROOT
BRANCH   6  14
HETATM   14  N3  UNL     1      30.153  27.713  45.423  1.00  0.00    -0.333 N 
ATOM     15  H32 UNL     1      31.032  28.071  45.795  1.00  0.00     0.177 HD
ATOM     16  H31 UNL     1      29.311  28.285  45.338  1.00  0.00     0.177 HD
ENDBRANCH   6  14
BRANCH   1  17
HETATM   17  O1  UNL     1      28.857  23.212  46.264  1.00  0.00    -0.271 OA
HETATM   18  C1  UNL     1      27.506  22.863  46.280  1.00  0.00     0.239 C 
ENDBRANCH   1  17
TORSDOF 2
ENDMDL
MODEL 4
REMARK VINA RESULT: -5.922656686      2.046      3.283
REMARK  2 active torsions:
REMARK  status: ('A' for Active; 'I' for Inactive)
REMARK    1  A    between atoms: O1_2  and  N1_3 
REMARK    2  A    between atoms: N2_8  and  N3_9 
ROOT
HETATM    1  N1  UNL     1      30.819  24.841  40.398  1.00  0.00    -0.128 N 
HETATM    2  C2  UNL     1      32.159  24.833  40.520  1.00  0.00     0.306 A 
HETATM    3  O2  UNL     1      32.645  25.283  41.588  1.00  0.00    -0.263 OA
HETATM    4  C3  UNL     1      33.006  24.358  39.536  1.00  0.00     0.147 A 
HETATM    5  C4  UNL     1      32.465  23.867  38.367  1.00  0.00     0.161 A 
HETATM    6  N2  UNL     1      31.123  23.886  38.270  1.00  0.00    -0.191 N 
HETATM    7  C5  UNL     1      30.322  24.356  39.246  1.00  0.00     0.376 A 
HETATM    8  O3  UNL     1      29.054  24.358  39.120  1.00  0.00    -0.242 OA
HETATM    9  N4  UNL     1      33.523  23.432  37.496  1.00  0.00    -0.357 N 
ATOM     10  H4  UNL     1      33.423  23.191  36.511  1.00  0.00     0.162 HD
HETATM   11  C6  UNL     1      34.770  23.394  38.269  1.00  0.00     0.245 C 
HETATM   12  N5  UNL     1      34.411  24.230  39.393  1.00  0.00    -0.366 N 
ATOM     13  H5  UNL     1      35.090  24.675  40.011  1.00  0.00     0.161 HD
ENDROOT
BRANCH   6  14
HETATM   14  N3  UNL     1      30.565  23.391  37.091  1.00  0.00    -0.333 N 
ATOM     15  H32 UNL     1      29.674  22.897  37.120  1.00  0.00     0.177 HD
ATOM     16  H31 UNL     1      31.087  23.549  36.229  1.00  0.00     0.177 HD
ENDBRANCH   6  14
BRANCH   1  17
HETATM   17  O1  UNL     1      30.018  25.325  41.405  1.00  0.00    -0.271 OA
HETATM   18  C1  UNL     1      29.491  24.557  42.444  1.00  0.00     0.239 C 
ENDBRANCH   1  17
TORSDOF 2
ENDMDL
MODEL 5
REMARK VINA RESULT: -5.819145964      3.746      5.010
REMARK  2 active torsions:
REMARK  status: ('A' for Active; 'I' for Inactive)
REMARK    1  A    between atoms: O1_2  and  N1_3 
REMARK    2  A    between atoms: N2_8  and  N3_9 
ROOT
HETATM    1  N1  UNL     1      29.799  23.818  44.436  1.00  0.00    -0.128 N 
HETATM    2  C2  UNL     1      30.099  23.285  43.238  1.00  0.00     0.306 A 
HETATM    3  O2  UNL     1      29.472  22.253  42.890  1.00  0.00    -0.263 OA
HETATM    4  C3  UNL     1      31.052  23.819  42.389  1.00  0.00     0.147 A 
HETATM    5  C4  UNL     1      31.735  24.951  42.778  1.00  0.00     0.161 A 
HETATM    6  N2  UNL     1      31.416  25.464  43.980  1.00  0.00    -0.191 N 
HETATM    7  C5  UNL     1      30.482  24.922  44.786  1.00  0.00     0.376 A 
HETATM    8  O3  UNL     1      30.206  25.436  45.919  1.00  0.00    -0.242 OA
HETATM    9  N4  UNL     1      32.667  25.324  41.749  1.00  0.00    -0.357 N 
ATOM     10  H4  UNL     1      33.415  26.009  41.842  1.00  0.00     0.162 HD
HETATM   11  C6  UNL     1      32.356  24.548  40.542  1.00  0.00     0.245 C 
HETATM   12  N5  UNL     1      31.562  23.482  41.110  1.00  0.00    -0.366 N 
ATOM     13  H5  UNL     1      31.388  22.591  40.644  1.00  0.00     0.161 HD
ENDROOT
BRANCH   6  14
HETATM   14  N3  UNL     1      32.101  26.610  44.383  1.00  0.00    -0.333 N 
ATOM     15  H32 UNL     1      31.708  27.532  44.189  1.00  0.00     0.177 HD
ATOM     16  H31 UNL     1      32.989  26.475  44.866  1.00  0.00     0.177 HD
ENDBRANCH   6  14
BRANCH   1  17
HETATM   17  O1  UNL     1      28.843  23.250  45.245  1.00  0.00    -0.271 OA
HETATM   18  C1  UNL     1      27.485  23.568  45.220  1.00  0.00     0.239 C 
ENDBRANCH   1  17
TORSDOF 2
ENDMDL
