MODEL 1
REMARK VINA RESULT: -6.257370760      0.000      0.000
REMARK  4 active torsions:
REMARK  status: ('A' for Active; 'I' for Inactive)
REMARK    1  A    between atoms: S1_3  and  C2_4 
REMARK    2  A    between atoms: N2_5  and  O1_6 
REMARK    3  A    between atoms: N3_8  and  N4_9 
REMARK    4  A    between atoms: N5_13  and  N6_15 
ROOT
HETATM    1  N1  UNL     1      28.158  22.445  35.729  1.00  0.00    -0.184 NA
HETATM    2  C1  UNL     1      28.453  23.191  36.587  1.00  0.00     0.141 C 
HETATM    3  S1  UNL     1      28.861  24.319  37.871  1.00  0.00     0.031 SA
ENDROOT
BRANCH   3   4
HETATM    4  C2  UNL     1      30.580  24.189  38.307  1.00  0.00     0.221 A 
HETATM    5  N2  UNL     1      31.037  24.458  39.458  1.00  0.00    -0.101 N 
HETATM    6  N3  UNL     1      32.403  24.354  39.800  1.00  0.00     0.005 N 
HETATM    7  C3  UNL     1      33.332  23.923  38.812  1.00  0.00     0.749 A 
HETATM    8  N5  UNL     1      34.598  23.817  39.099  1.00  0.00    -0.134 N 
HETATM    9  N7  UNL     1      32.856  23.612  37.509  1.00  0.00    -0.126 N 
ATOM     10  H5  UNL     1      34.910  24.049  40.042  1.00  0.00     0.205 HD
HETATM   11  N8  UNL     1      31.483  23.754  37.289  1.00  0.00    -0.261 N 
ATOM     12  H7  UNL     1      33.487  23.300  36.771  1.00  0.00     0.206 HD
ATOM     13  H8  UNL     1      31.110  23.538  36.365  1.00  0.00     0.190 HD
BRANCH   5  14
HETATM   14  O1  UNL     1      30.203  24.874  40.445  1.00  0.00    -0.264 OA
ATOM     15  H1  UNL     1      30.051  25.801  40.584  1.00  0.00     0.247 HD
ENDBRANCH   5  14
BRANCH   6  16
HETATM   16  N4  UNL     1      32.861  24.663  41.087  1.00  0.00    -0.307 N 
ATOM     17  H42 UNL     1      33.427  25.498  41.230  1.00  0.00     0.179 HD
ATOM     18  H41 UNL     1      32.643  24.070  41.887  1.00  0.00     0.179 HD
ENDBRANCH   6  16
BRANCH   8  19
HETATM   19  N6  UNL     1      35.536  23.403  38.170  1.00  0.00    -0.331 N 
ATOM     20  H62 UNL     1      35.327  22.568  37.622  1.00  0.00     0.177 HD
ATOM     21  H61 UNL     1      36.414  23.901  38.021  1.00  0.00     0.177 HD
ENDBRANCH   8  19
ENDBRANCH   3   4
TORSDOF 4
ENDMDL
MODEL 2
REMARK VINA RESULT: -6.227252354      2.639      4.538
REMARK  4 active torsions:
REMARK  status: ('A' for Active; 'I' for Inactive)
REMARK    1  A    between atoms: S1_3  and  C2_4 
REMARK    2  A    between atoms: N2_5  and  O1_6 
REMARK    3  A    between atoms: N3_8  and  N4_9 
REMARK    4  A    between atoms: N5_13  and  N6_15 
ROOT
HETATM    1  N1  UNL     1      33.202  26.166  44.289  1.00  0.00    -0.184 NA
HETATM    2  C1  UNL     1      32.464  25.888  43.419  1.00  0.00     0.141 C 
HETATM    3  S1  UNL     1      31.332  25.477  42.139  1.00  0.00     0.031 SA
ENDROOT
BRANCH   3   4
HETATM    4  C2  UNL     1      32.194  25.013  40.655  1.00  0.00     0.221 A 
HETATM    5  N2  UNL     1      31.615  24.663  39.584  1.00  0.00    -0.101 N 
HETATM    6  N3  UNL     1      32.303  24.294  38.407  1.00  0.00     0.005 N 
HETATM    7  C3  UNL     1      33.726  24.313  38.404  1.00  0.00     0.749 A 
HETATM    8  N5  UNL     1      34.388  23.978  37.334  1.00  0.00    -0.134 N 
HETATM    9  N7  UNL     1      34.411  24.701  39.588  1.00  0.00    -0.126 N 
ATOM     10  H5  UNL     1      33.869  23.703  36.501  1.00  0.00     0.205 HD
HETATM   11  N8  UNL     1      33.622  25.043  40.690  1.00  0.00    -0.261 N 
ATOM     12  H7  UNL     1      35.430  24.727  39.631  1.00  0.00     0.206 HD
ATOM     13  H8  UNL     1      34.084  25.327  41.554  1.00  0.00     0.190 HD
BRANCH   5  14
HETATM   14  O1  UNL     1      30.260  24.624  39.521  1.00  0.00    -0.264 OA
ATOM     15  H1  UNL     1      29.825  24.380  38.712  1.00  0.00     0.247 HD
ENDBRANCH   5  14
BRANCH   6  16
HETATM   16  N4  UNL     1      31.618  23.914  37.247  1.00  0.00    -0.307 N 
ATOM     17  H42 UNL     1      30.786  24.430  36.965  1.00  0.00     0.179 HD
ATOM     18  H41 UNL     1      31.931  23.129  36.675  1.00  0.00     0.179 HD
ENDBRANCH   6  16
BRANCH   8  19
HETATM   19  N6  UNL     1      35.771  23.981  37.287  1.00  0.00    -0.331 N 
ATOM     20  H62 UNL     1      36.235  24.844  37.001  1.00  0.00     0.177 HD
ATOM     21  H61 UNL     1      36.327  23.161  37.525  1.00  0.00     0.177 HD
ENDBRANCH   8  19
ENDBRANCH   3   4
TORSDOF 4
ENDMDL
MODEL 3
REMARK VINA RESULT: -6.035923435      2.596      3.850
REMARK  4 active torsions:
REMARK  status: ('A' for Active; 'I' for Inactive)
REMARK    1  A    between atoms: S1_3  and  C2_4 
REMARK    2  A    between atoms: N2_5  and  O1_6 
REMARK    3  A    between atoms: N3_8  and  N4_9 
REMARK    4  A    between atoms: N5_13  and  N6_15 
ROOT
HETATM    1  N1  UNL     1      30.186  23.044  43.468  1.00  0.00    -0.184 NA
HETATM    2  C1  UNL     1      30.597  23.987  42.901  1.00  0.00     0.141 C 
HETATM    3  S1  UNL     1      31.196  25.418  42.076  1.00  0.00     0.031 SA
ENDROOT
BRANCH   3   4
HETATM    4  C2  UNL     1      32.093  24.975  40.606  1.00  0.00     0.221 A 
HETATM    5  N2  UNL     1      31.539  24.629  39.521  1.00  0.00    -0.101 N 
HETATM    6  N3  UNL     1      32.255  24.276  38.355  1.00  0.00     0.005 N 
HETATM    7  C3  UNL     1      33.678  24.309  38.382  1.00  0.00     0.749 A 
HETATM    8  N5  UNL     1      34.365  23.989  37.323  1.00  0.00    -0.134 N 
HETATM    9  N7  UNL     1      34.334  24.693  39.583  1.00  0.00    -0.126 N 
ATOM     10  H5  UNL     1      33.865  23.717  36.477  1.00  0.00     0.205 HD
HETATM   11  N8  UNL     1      33.520  25.018  40.671  1.00  0.00    -0.261 N 
ATOM     12  H7  UNL     1      35.352  24.729  39.647  1.00  0.00     0.206 HD
ATOM     13  H8  UNL     1      33.961  25.299  41.547  1.00  0.00     0.190 HD
BRANCH   5  14
HETATM   14  O1  UNL     1      30.186  24.578  39.429  1.00  0.00    -0.264 OA
ATOM     15  H1  UNL     1      29.721  23.778  39.645  1.00  0.00     0.247 HD
ENDBRANCH   5  14
BRANCH   6  16
HETATM   16  N4  UNL     1      31.598  23.900  37.178  1.00  0.00    -0.307 N 
ATOM     17  H42 UNL     1      30.876  23.182  37.216  1.00  0.00     0.179 HD
ATOM     18  H41 UNL     1      31.825  24.327  36.280  1.00  0.00     0.179 HD
ENDBRANCH   6  16
BRANCH   8  19
HETATM   19  N6  UNL     1      35.748  24.006  37.305  1.00  0.00    -0.331 N 
ATOM     20  H62 UNL     1      36.240  23.340  37.902  1.00  0.00     0.177 HD
ATOM     21  H61 UNL     1      36.279  24.652  36.722  1.00  0.00     0.177 HD
ENDBRANCH   8  19
ENDBRANCH   3   4
TORSDOF 4
ENDMDL
MODEL 4
REMARK VINA RESULT: -5.998818115      2.782      4.489
REMARK  4 active torsions:
REMARK  status: ('A' for Active; 'I' for Inactive)
REMARK    1  A    between atoms: S1_3  and  C2_4 
REMARK    2  A    between atoms: N2_5  and  O1_6 
REMARK    3  A    between atoms: N3_8  and  N4_9 
REMARK    4  A    between atoms: N5_13  and  N6_15 
ROOT
HETATM    1  N1  UNL     1      35.717  23.235  36.339  1.00  0.00    -0.184 NA
HETATM    2  C1  UNL     1      35.051  24.155  36.638  1.00  0.00     0.141 C 
HETATM    3  S1  UNL     1      34.075  25.553  37.066  1.00  0.00     0.031 SA
ENDROOT
BRANCH   3   4
HETATM    4  C2  UNL     1      32.785  25.102  38.204  1.00  0.00     0.221 A 
HETATM    5  N2  UNL     1      32.984  24.845  39.428  1.00  0.00    -0.101 N 
HETATM    6  N3  UNL     1      31.957  24.486  40.329  1.00  0.00     0.005 N 
HETATM    7  C3  UNL     1      30.618  24.407  39.854  1.00  0.00     0.749 A 
HETATM    8  N5  UNL     1      29.650  24.079  40.661  1.00  0.00    -0.134 N 
HETATM    9  N7  UNL     1      30.356  24.689  38.485  1.00  0.00    -0.126 N 
ATOM     10  H5  UNL     1      29.870  23.881  41.637  1.00  0.00     0.205 HD
HETATM   11  N8  UNL     1      31.453  25.032  37.690  1.00  0.00    -0.261 N 
ATOM     12  H7  UNL     1      29.412  24.643  38.102  1.00  0.00     0.206 HD
ATOM     13  H8  UNL     1      31.298  25.241  36.704  1.00  0.00     0.190 HD
BRANCH   5  14
HETATM   14  O1  UNL     1      34.239  24.903  39.944  1.00  0.00    -0.264 OA
ATOM     15  H1  UNL     1      34.620  24.140  40.362  1.00  0.00     0.247 HD
ENDBRANCH   5  14
BRANCH   6  16
HETATM   16  N4  UNL     1      32.227  24.211  41.674  1.00  0.00    -0.307 N 
ATOM     17  H42 UNL     1      31.848  24.822  42.397  1.00  0.00     0.179 HD
ATOM     18  H41 UNL     1      32.797  23.411  41.952  1.00  0.00     0.179 HD
ENDBRANCH   6  16
BRANCH   8  19
HETATM   19  N6  UNL     1      28.334  23.989  40.242  1.00  0.00    -0.331 N 
ATOM     20  H62 UNL     1      27.940  24.783  39.737  1.00  0.00     0.177 HD
ATOM     21  H61 UNL     1      27.760  23.166  40.420  1.00  0.00     0.177 HD
ENDBRANCH   8  19
ENDBRANCH   3   4
TORSDOF 4
ENDMDL
MODEL 5
REMARK VINA RESULT: -5.937586076      2.554      3.970
REMARK  4 active torsions:
REMARK  status: ('A' for Active; 'I' for Inactive)
REMARK    1  A    between atoms: S1_3  and  C2_4 
REMARK    2  A    between atoms: N2_5  and  O1_6 
REMARK    3  A    between atoms: N3_8  and  N4_9 
REMARK    4  A    between atoms: N5_13  and  N6_15 
ROOT
HETATM    1  N1  UNL     1      30.148  27.454  42.477  1.00  0.00    -0.184 NA
HETATM    2  C1  UNL     1      30.539  26.360  42.303  1.00  0.00     0.141 C 
HETATM    3  S1  UNL     1      31.110  24.714  42.075  1.00  0.00     0.031 SA
ENDROOT
BRANCH   3   4
HETATM    4  C2  UNL     1      32.026  24.564  40.558  1.00  0.00     0.221 A 
HETATM    5  N2  UNL     1      31.496  24.295  39.440  1.00  0.00    -0.101 N 
HETATM    6  N3  UNL     1      32.227  24.177  38.237  1.00  0.00     0.005 N 
HETATM    7  C3  UNL     1      33.637  24.370  38.263  1.00  0.00     0.749 A 
HETATM    8  N5  UNL     1      34.337  24.267  37.170  1.00  0.00    -0.134 N 
HETATM    9  N7  UNL     1      34.267  24.673  39.501  1.00  0.00    -0.126 N 
ATOM     10  H5  UNL     1      33.857  24.047  36.297  1.00  0.00     0.205 HD
HETATM   11  N8  UNL     1      33.439  24.764  40.624  1.00  0.00    -0.261 N 
ATOM     12  H7  UNL     1      35.274  24.818  39.566  1.00  0.00     0.206 HD
ATOM     13  H8  UNL     1      33.861  24.981  41.526  1.00  0.00     0.190 HD
BRANCH   5  14
HETATM   14  O1  UNL     1      30.156  24.101  39.347  1.00  0.00    -0.264 OA
ATOM     15  H1  UNL     1      29.708  24.242  38.521  1.00  0.00     0.247 HD
ENDBRANCH   5  14
BRANCH   6  16
HETATM   16  N4  UNL     1      31.596  23.878  37.023  1.00  0.00    -0.307 N 
ATOM     17  H42 UNL     1      31.610  24.563  36.269  1.00  0.00     0.179 HD
ATOM     18  H41 UNL     1      31.120  22.988  36.875  1.00  0.00     0.179 HD
ENDBRANCH   6  16
BRANCH   8  19
HETATM   19  N6  UNL     1      35.709  24.445  37.149  1.00  0.00    -0.331 N 
ATOM     20  H62 UNL     1      36.094  25.233  37.671  1.00  0.00     0.177 HD
ATOM     21  H61 UNL     1      36.333  23.823  36.637  1.00  0.00     0.177 HD
ENDBRANCH   8  19
ENDBRANCH   3   4
TORSDOF 4
ENDMDL
