MODEL 1
REMARK VINA RESULT: -6.477831189      0.000      0.000
REMARK  4 active torsions:
REMARK  status: ('A' for Active; 'I' for Inactive)
REMARK    1  A    between atoms: O1_2  and  C2_3 
REMARK    2  A    between atoms: C2_3  and  C3_5 
REMARK    3  A    between atoms: C3_5  and  O3_6 
REMARK    4  A    between atoms: C5_14  and  O5_15 
ROOT
HETATM    1  C3  UNL     1      33.566  24.534  38.207  1.00  0.00     0.252 C 
HETATM    2  C4  UNL     1      34.165  23.183  38.364  1.00  0.00     0.137 C 
HETATM    3  N1  UNL     1      35.396  22.945  37.747  1.00  0.00    -0.292 N 
ATOM      4  H1  UNL     1      35.846  22.035  37.849  1.00  0.00     0.187 HD
HETATM    5  N2  UNL     1      35.990  23.905  37.020  1.00  0.00    -0.203 N 
ATOM      6  H2  UNL     1      36.875  23.718  36.546  1.00  0.00     0.216 HD
HETATM    7  O4  UNL     1      35.426  25.085  36.923  1.00  0.00    -0.205 OA
HETATM    8  C5  UNL     1      34.058  25.116  36.898  1.00  0.00     0.325 C 
HETATM    9  C6  UNL     1      33.642  26.531  36.860  1.00  0.00     0.135 C 
HETATM   10  N3  UNL     1      33.322  27.642  36.847  1.00  0.00    -0.191 NA
ENDROOT
BRANCH   8  11
HETATM   11  O5  UNL     1      33.490  24.453  35.826  1.00  0.00    -0.350 OA
ATOM     12  H5  UNL     1      34.078  24.456  35.080  1.00  0.00     0.214 HD
ENDBRANCH   8  11
BRANCH   1  13
HETATM   13  C2  UNL     1      32.064  24.428  38.221  1.00  0.00     0.305 C 
HETATM   14  O2  UNL     1      31.411  25.119  39.049  1.00  0.00    -0.261 OA
BRANCH  13  15
HETATM   15  O1  UNL     1      31.403  23.594  37.353  1.00  0.00    -0.324 OA
HETATM   16  C1  UNL     1      30.238  22.858  37.723  1.00  0.00     0.213 C 
ENDBRANCH  13  15
ENDBRANCH   1  13
BRANCH   1  17
HETATM   17  O3  UNL     1      33.988  25.364  39.229  1.00  0.00    -0.369 OA
ATOM     18  H3  UNL     1      34.828  25.067  39.560  1.00  0.00     0.212 HD
ENDBRANCH   1  17
TORSDOF 4
ENDMDL
MODEL 2
REMARK VINA RESULT: -6.372386714      1.495      3.392
REMARK  4 active torsions:
REMARK  status: ('A' for Active; 'I' for Inactive)
REMARK    1  A    between atoms: O1_2  and  C2_3 
REMARK    2  A    between atoms: C2_3  and  C3_5 
REMARK    3  A    between atoms: C3_5  and  O3_6 
REMARK    4  A    between atoms: C5_14  and  O5_15 
ROOT
HETATM    1  C3  UNL     1      32.512  24.676  37.724  1.00  0.00     0.252 C 
HETATM    2  C4  UNL     1      31.754  25.954  37.699  1.00  0.00     0.137 C 
HETATM    3  N1  UNL     1      32.177  26.941  36.804  1.00  0.00    -0.292 N 
ATOM      4  H1  UNL     1      31.668  27.823  36.746  1.00  0.00     0.187 HD
HETATM    5  N2  UNL     1      33.249  26.735  36.021  1.00  0.00    -0.203 N 
ATOM      6  H2  UNL     1      33.573  27.468  35.390  1.00  0.00     0.216 HD
HETATM    7  O4  UNL     1      33.876  25.584  36.072  1.00  0.00    -0.205 OA
HETATM    8  C5  UNL     1      33.934  24.966  37.292  1.00  0.00     0.325 C 
HETATM    9  C6  UNL     1      34.612  23.669  37.107  1.00  0.00     0.135 C 
HETATM   10  N3  UNL     1      35.130  22.647  36.951  1.00  0.00    -0.191 NA
ENDROOT
BRANCH   8  11
HETATM   11  O5  UNL     1      34.603  25.685  38.267  1.00  0.00    -0.350 OA
ATOM     12  H5  UNL     1      35.252  26.257  37.875  1.00  0.00     0.214 HD
ENDBRANCH   8  11
BRANCH   1  13
HETATM   13  C2  UNL     1      32.476  24.093  39.112  1.00  0.00     0.305 C 
HETATM   14  O2  UNL     1      31.993  22.939  39.277  1.00  0.00    -0.261 OA
BRANCH  13  15
HETATM   15  O1  UNL     1      32.956  24.794  40.190  1.00  0.00    -0.324 OA
HETATM   16  C1  UNL     1      32.214  24.966  41.396  1.00  0.00     0.213 C 
ENDBRANCH  13  15
ENDBRANCH   1  13
BRANCH   1  17
HETATM   17  O3  UNL     1      31.967  23.780  36.823  1.00  0.00    -0.369 OA
ATOM     18  H3  UNL     1      32.312  23.946  35.954  1.00  0.00     0.212 HD
ENDBRANCH   1  17
TORSDOF 4
ENDMDL
MODEL 3
REMARK VINA RESULT: -6.109144223      7.268      8.585
REMARK  4 active torsions:
REMARK  status: ('A' for Active; 'I' for Inactive)
REMARK    1  A    between atoms: O1_2  and  C2_3 
REMARK    2  A    between atoms: C2_3  and  C3_5 
REMARK    3  A    between atoms: C3_5  and  O3_6 
REMARK    4  A    between atoms: C5_14  and  O5_15 
ROOT
HETATM    1  C3  UNL     1      29.615  25.592  45.044  1.00  0.00     0.252 C 
HETATM    2  C4  UNL     1      29.390  26.757  45.937  1.00  0.00     0.137 C 
HETATM    3  N1  UNL     1      29.870  28.000  45.514  1.00  0.00    -0.292 N 
ATOM      4  H1  UNL     1      29.716  28.826  46.094  1.00  0.00     0.187 HD
HETATM    5  N2  UNL     1      30.531  28.114  44.351  1.00  0.00    -0.203 N 
ATOM      6  H2  UNL     1      30.906  29.017  44.059  1.00  0.00     0.216 HD
HETATM    7  O4  UNL     1      30.692  27.057  43.592  1.00  0.00    -0.205 OA
HETATM    8  C5  UNL     1      30.865  25.859  44.231  1.00  0.00     0.325 C 
HETATM    9  C6  UNL     1      30.953  24.808  43.199  1.00  0.00     0.135 C 
HETATM   10  N3  UNL     1      31.004  23.988  42.385  1.00  0.00    -0.191 NA
ENDROOT
BRANCH   8  11
HETATM   11  O5  UNL     1      31.991  25.793  45.032  1.00  0.00    -0.350 OA
ATOM     12  H5  UNL     1      32.721  26.240  44.621  1.00  0.00     0.214 HD
ENDBRANCH   8  11
BRANCH   1  13
HETATM   13  C2  UNL     1      29.763  24.341  45.869  1.00  0.00     0.305 C 
HETATM   14  O2  UNL     1      30.586  24.333  46.824  1.00  0.00    -0.261 OA
BRANCH  13  15
HETATM   15  O1  UNL     1      29.021  23.218  45.596  1.00  0.00    -0.324 OA
HETATM   16  C1  UNL     1      27.928  22.795  46.408  1.00  0.00     0.213 C 
ENDBRANCH  13  15
ENDBRANCH   1  13
BRANCH   1  17
HETATM   17  O3  UNL     1      28.557  25.453  44.165  1.00  0.00    -0.369 OA
ATOM     18  H3  UNL     1      27.995  24.741  44.447  1.00  0.00     0.212 HD
ENDBRANCH   1  17
TORSDOF 4
ENDMDL
MODEL 4
REMARK VINA RESULT: -6.075878607      2.036      2.488
REMARK  4 active torsions:
REMARK  status: ('A' for Active; 'I' for Inactive)
REMARK    1  A    between atoms: O1_2  and  C2_3 
REMARK    2  A    between atoms: C2_3  and  C3_5 
REMARK    3  A    between atoms: C3_5  and  O3_6 
REMARK    4  A    between atoms: C5_14  and  O5_15 
ROOT
HETATM    1  C3  UNL     1      33.005  24.047  38.403  1.00  0.00     0.252 C 
HETATM    2  C4  UNL     1      33.753  23.752  37.154  1.00  0.00     0.137 C 
HETATM    3  N1  UNL     1      34.527  24.779  36.604  1.00  0.00    -0.292 N 
ATOM      4  H1  UNL     1      35.069  24.606  35.758  1.00  0.00     0.187 HD
HETATM    5  N2  UNL     1      34.560  25.990  37.183  1.00  0.00    -0.203 N 
ATOM      6  H2  UNL     1      35.102  26.746  36.764  1.00  0.00     0.216 HD
HETATM    7  O4  UNL     1      33.892  26.195  38.293  1.00  0.00    -0.205 OA
HETATM    8  C5  UNL     1      32.703  25.531  38.430  1.00  0.00     0.325 C 
HETATM    9  C6  UNL     1      32.163  25.848  39.766  1.00  0.00     0.135 C 
HETATM   10  N3  UNL     1      31.754  26.087  40.821  1.00  0.00    -0.191 NA
ENDROOT
BRANCH   8  11
HETATM   11  O5  UNL     1      31.754  25.853  37.477  1.00  0.00    -0.350 OA
ATOM     12  H5  UNL     1      31.910  26.722  37.129  1.00  0.00     0.214 HD
ENDBRANCH   8  11
BRANCH   1  13
HETATM   13  C2  UNL     1      31.737  23.236  38.439  1.00  0.00     0.305 C 
HETATM   14  O2  UNL     1      31.014  23.188  37.406  1.00  0.00    -0.261 OA
BRANCH  13  15
HETATM   15  O1  UNL     1      31.360  22.556  39.570  1.00  0.00    -0.324 OA
HETATM   16  C1  UNL     1      30.090  22.735  40.194  1.00  0.00     0.213 C 
ENDBRANCH  13  15
ENDBRANCH   1  13
BRANCH   1  17
HETATM   17  O3  UNL     1      33.784  23.750  39.507  1.00  0.00    -0.369 OA
ATOM     18  H3  UNL     1      34.116  24.553  39.892  1.00  0.00     0.212 HD
ENDBRANCH   1  17
TORSDOF 4
ENDMDL
MODEL 5
REMARK VINA RESULT: -6.073466245      7.666      8.899
REMARK  4 active torsions:
REMARK  status: ('A' for Active; 'I' for Inactive)
REMARK    1  A    between atoms: O1_2  and  C2_3 
REMARK    2  A    between atoms: C2_3  and  C3_5 
REMARK    3  A    between atoms: C3_5  and  O3_6 
REMARK    4  A    between atoms: C5_14  and  O5_15 
ROOT
HETATM    1  C3  UNL     1      29.307  26.350  44.750  1.00  0.00     0.252 C 
HETATM    2  C4  UNL     1      29.885  27.684  45.055  1.00  0.00     0.137 C 
HETATM    3  N1  UNL     1      31.265  27.844  44.899  1.00  0.00    -0.292 N 
ATOM      4  H1  UNL     1      31.693  28.752  45.081  1.00  0.00     0.187 HD
HETATM    5  N2  UNL     1      32.030  26.811  44.510  1.00  0.00    -0.203 N 
ATOM      6  H2  UNL     1      33.040  26.922  44.425  1.00  0.00     0.216 HD
HETATM    7  O4  UNL     1      31.468  25.656  44.240  1.00  0.00    -0.205 OA
HETATM    8  C5  UNL     1      30.379  25.308  44.992  1.00  0.00     0.325 C 
HETATM    9  C6  UNL     1      29.870  24.023  44.476  1.00  0.00     0.135 C 
HETATM   10  N3  UNL     1      29.466  23.024  44.056  1.00  0.00    -0.191 NA
ENDROOT
BRANCH   8  11
HETATM   11  O5  UNL     1      30.635  25.177  46.345  1.00  0.00    -0.350 OA
ATOM     12  H5  UNL     1      30.847  24.277  46.560  1.00  0.00     0.214 HD
ENDBRANCH   8  11
BRANCH   1  13
HETATM   13  C2  UNL     1      28.107  26.105  45.625  1.00  0.00     0.305 C 
HETATM   14  O2  UNL     1      28.218  26.261  46.872  1.00  0.00    -0.261 OA
BRANCH  13  15
HETATM   15  O1  UNL     1      26.904  25.715  45.089  1.00  0.00    -0.324 OA
HETATM   16  C1  UNL     1      26.215  24.539  45.507  1.00  0.00     0.213 C 
ENDBRANCH  13  15
ENDBRANCH   1  13
BRANCH   1  17
HETATM   17  O3  UNL     1      28.940  26.283  43.419  1.00  0.00    -0.369 OA
ATOM     18  H3  UNL     1      29.467  25.632  42.971  1.00  0.00     0.212 HD
ENDBRANCH   1  17
TORSDOF 4
ENDMDL
