MODEL 1
REMARK VINA RESULT: -6.435480208      0.000      0.000
REMARK  9 active torsions:
REMARK  status: ('A' for Active; 'I' for Inactive)
REMARK    1  A    between atoms: N1_1  and  N2_4 
REMARK    2  A    between atoms: N2_4  and  C1_6 
REMARK    3  A    between atoms: C1_6  and  O1_7 
REMARK    4  A    between atoms: C1_6  and  C2_9 
REMARK    5  A    between atoms: C3_11  and  N3_12 
REMARK    6  A    between atoms: C5_17  and  C6_18 
REMARK    7  A    between atoms: C6_18  and  O4_19 
REMARK    8  A    between atoms: C6_18  and  N5_21 
REMARK    9  A    between atoms: N5_21  and  N6_23 
ROOT
HETATM    1  C2  UNL     1      -1.311   7.489  14.605  1.00  0.00     0.075 A 
HETATM    2  S1  UNL     1       0.046   6.347  14.821  1.00  0.00    -0.059 SA
HETATM    3  C3  UNL     1      -0.291   5.821  16.377  1.00  0.00     0.169 A 
HETATM    4  C4  UNL     1      -1.390   6.494  16.714  1.00  0.00     0.102 A 
HETATM    5  N4  UNL     1      -1.959   6.271  18.054  1.00  0.00    -0.098 NA
HETATM    6  C5  UNL     1      -1.944   7.390  15.786  1.00  0.00     0.065 A 
ENDROOT
BRANCH   1   7
HETATM    7  C1  UNL     1      -1.457   8.167  13.334  1.00  0.00     0.173 C 
BRANCH   7   8
HETATM    8  N2  UNL     1      -0.627   8.926  12.549  1.00  0.00    -0.286 N 
ATOM      9  H2  UNL     1       0.374   8.730  12.526  1.00  0.00     0.188 HD
BRANCH   8  10
HETATM   10  N1  UNL     1      -1.179  10.015  11.747  1.00  0.00    -0.343 N 
ATOM     11  H12 UNL     1      -2.029  10.480  12.062  1.00  0.00     0.176 HD
ATOM     12  H11 UNL     1      -0.712  10.299  10.885  1.00  0.00     0.176 HD
ENDBRANCH   8  10
ENDBRANCH   7   8
BRANCH   7  13
HETATM   13  O1  UNL     1      -2.671   8.063  12.782  1.00  0.00    -0.344 OA
ATOM     14  H1  UNL     1      -2.843   7.170  12.509  1.00  0.00     0.219 HD
ENDBRANCH   7  13
ENDBRANCH   1   7
BRANCH   6  15
HETATM   15  C6  UNL     1      -3.163   8.130  16.206  1.00  0.00     0.168 C 
BRANCH  15  16
HETATM   16  O4  UNL     1      -3.016   9.390  16.501  1.00  0.00    -0.344 OA
ATOM     17  H4  UNL     1      -3.325   9.670  17.355  1.00  0.00     0.219 HD
ENDBRANCH  15  16
BRANCH  15  18
HETATM   18  N5  UNL     1      -4.447   7.677  16.306  1.00  0.00    -0.286 N 
ATOM     19  H5  UNL     1      -5.164   7.989  15.650  1.00  0.00     0.188 HD
BRANCH  18  20
HETATM   20  N6  UNL     1      -4.771   6.736  17.372  1.00  0.00    -0.343 N 
ATOM     21  H62 UNL     1      -4.341   6.844  18.291  1.00  0.00     0.176 HD
ATOM     22  H61 UNL     1      -5.427   5.982  17.172  1.00  0.00     0.176 HD
ENDBRANCH  18  20
ENDBRANCH  15  18
ENDBRANCH   6  15
BRANCH   3  23
HETATM   23  N3  UNL     1       0.454   4.847  17.181  1.00  0.00    -0.106 N 
HETATM   24  O2  UNL     1       1.106   5.263  18.130  1.00  0.00    -0.531 OA
HETATM   25  O3  UNL     1       0.393   3.534  16.851  1.00  0.00    -0.531 OA
ENDBRANCH   3  23
TORSDOF 9
ENDMDL
MODEL 2
REMARK VINA RESULT: -6.312953537      2.230      2.505
REMARK  9 active torsions:
REMARK  status: ('A' for Active; 'I' for Inactive)
REMARK    1  A    between atoms: N1_1  and  N2_4 
REMARK    2  A    between atoms: N2_4  and  C1_6 
REMARK    3  A    between atoms: C1_6  and  O1_7 
REMARK    4  A    between atoms: C1_6  and  C2_9 
REMARK    5  A    between atoms: C3_11  and  N3_12 
REMARK    6  A    between atoms: C5_17  and  C6_18 
REMARK    7  A    between atoms: C6_18  and  O4_19 
REMARK    8  A    between atoms: C6_18  and  N5_21 
REMARK    9  A    between atoms: N5_21  and  N6_23 
ROOT
HETATM    1  C2  UNL     1      -1.678   7.298  13.959  1.00  0.00     0.075 A 
HETATM    2  S1  UNL     1      -1.095   5.866  13.063  1.00  0.00    -0.059 SA
HETATM    3  C3  UNL     1      -1.729   4.662  14.042  1.00  0.00     0.169 A 
HETATM    4  C4  UNL     1      -2.352   5.329  15.012  1.00  0.00     0.102 A 
HETATM    5  N4  UNL     1      -3.022   4.554  16.070  1.00  0.00    -0.098 NA
HETATM    6  C5  UNL     1      -2.331   6.733  14.987  1.00  0.00     0.065 A 
ENDROOT
BRANCH   1   7
HETATM    7  C1  UNL     1      -1.397   8.616  13.426  1.00  0.00     0.173 C 
BRANCH   7   8
HETATM    8  N2  UNL     1      -0.856   9.084  12.257  1.00  0.00    -0.286 N 
ATOM      9  H2  UNL     1      -0.162   8.528  11.757  1.00  0.00     0.188 HD
BRANCH   8  10
HETATM   10  N1  UNL     1      -1.274  10.380  11.728  1.00  0.00    -0.343 N 
ATOM     11  H12 UNL     1      -2.017  10.892  12.203  1.00  0.00     0.176 HD
ATOM     12  H11 UNL     1      -0.824  10.759  10.895  1.00  0.00     0.176 HD
ENDBRANCH   8  10
ENDBRANCH   7   8
BRANCH   7  13
HETATM   13  O1  UNL     1      -1.710   9.627  14.245  1.00  0.00    -0.344 OA
ATOM     14  H1  UNL     1      -1.502   9.408  15.146  1.00  0.00     0.219 HD
ENDBRANCH   7  13
ENDBRANCH   1   7
BRANCH   6  15
HETATM   15  C6  UNL     1      -3.029   7.439  16.094  1.00  0.00     0.168 C 
BRANCH  15  16
HETATM   16  O4  UNL     1      -2.307   8.226  16.838  1.00  0.00    -0.344 OA
ATOM     17  H4  UNL     1      -2.614   9.119  16.944  1.00  0.00     0.219 HD
ENDBRANCH  15  16
BRANCH  15  18
HETATM   18  N5  UNL     1      -4.350   7.400  16.435  1.00  0.00    -0.286 N 
ATOM     19  H5  UNL     1      -5.034   7.976  15.942  1.00  0.00     0.188 HD
BRANCH  18  20
HETATM   20  N6  UNL     1      -4.762   6.517  17.519  1.00  0.00    -0.343 N 
ATOM     21  H62 UNL     1      -4.683   5.506  17.408  1.00  0.00     0.176 HD
ATOM     22  H61 UNL     1      -5.125   6.936  18.376  1.00  0.00     0.176 HD
ENDBRANCH  18  20
ENDBRANCH  15  18
ENDBRANCH   6  15
BRANCH   3  23
HETATM   23  N3  UNL     1      -1.619   3.210  13.872  1.00  0.00    -0.106 N 
HETATM   24  O2  UNL     1      -2.455   2.647  13.178  1.00  0.00    -0.531 OA
HETATM   25  O3  UNL     1      -0.605   2.549  14.482  1.00  0.00    -0.531 OA
ENDBRANCH   3  23
TORSDOF 9
ENDMDL
MODEL 3
REMARK VINA RESULT: -6.250101248      2.342      2.629
REMARK  9 active torsions:
REMARK  status: ('A' for Active; 'I' for Inactive)
REMARK    1  A    between atoms: N1_1  and  N2_4 
REMARK    2  A    between atoms: N2_4  and  C1_6 
REMARK    3  A    between atoms: C1_6  and  O1_7 
REMARK    4  A    between atoms: C1_6  and  C2_9 
REMARK    5  A    between atoms: C3_11  and  N3_12 
REMARK    6  A    between atoms: C5_17  and  C6_18 
REMARK    7  A    between atoms: C6_18  and  O4_19 
REMARK    8  A    between atoms: C6_18  and  N5_21 
REMARK    9  A    between atoms: N5_21  and  N6_23 
ROOT
HETATM    1  C2  UNL     1      -1.526   7.076  14.047  1.00  0.00     0.075 A 
HETATM    2  S1  UNL     1      -1.311   5.508  13.217  1.00  0.00    -0.059 SA
HETATM    3  C3  UNL     1      -1.939   4.493  14.394  1.00  0.00     0.169 A 
HETATM    4  C4  UNL     1      -2.291   5.320  15.378  1.00  0.00     0.102 A 
HETATM    5  N4  UNL     1      -2.880   4.739  16.596  1.00  0.00    -0.098 NA
HETATM    6  C5  UNL     1      -2.073   6.697  15.213  1.00  0.00     0.065 A 
ENDROOT
BRANCH   1   7
HETATM    7  C1  UNL     1      -1.152   8.290  13.351  1.00  0.00     0.173 C 
BRANCH   7   8
HETATM    8  N2  UNL     1      -0.367   8.572  12.263  1.00  0.00    -0.286 N 
ATOM      9  H2  UNL     1       0.424   7.970  12.035  1.00  0.00     0.188 HD
BRANCH   8  10
HETATM   10  N1  UNL     1      -0.666   9.734  11.431  1.00  0.00    -0.343 N 
ATOM     11  H12 UNL     1       0.069  10.123  10.841  1.00  0.00     0.176 HD
ATOM     12  H11 UNL     1      -1.599  10.144  11.446  1.00  0.00     0.176 HD
ENDBRANCH   8  10
ENDBRANCH   7   8
BRANCH   7  13
HETATM   13  O1  UNL     1      -1.657   9.412  13.877  1.00  0.00    -0.344 OA
ATOM     14  H1  UNL     1      -1.842  10.051  13.198  1.00  0.00     0.219 HD
ENDBRANCH   7  13
ENDBRANCH   1   7
BRANCH   6  15
HETATM   15  C6  UNL     1      -2.470   7.583  16.339  1.00  0.00     0.168 C 
BRANCH  15  16
HETATM   16  O4  UNL     1      -1.792   7.471  17.445  1.00  0.00    -0.344 OA
ATOM     17  H4  UNL     1      -1.996   8.086  18.139  1.00  0.00     0.219 HD
ENDBRANCH  15  16
BRANCH  15  18
HETATM   18  N5  UNL     1      -3.448   8.536  16.375  1.00  0.00    -0.286 N 
ATOM     19  H5  UNL     1      -4.433   8.272  16.395  1.00  0.00     0.188 HD
BRANCH  18  20
HETATM   20  N6  UNL     1      -3.051   9.939  16.383  1.00  0.00    -0.343 N 
ATOM     21  H62 UNL     1      -2.998  10.456  15.505  1.00  0.00     0.176 HD
ATOM     22  H61 UNL     1      -2.831  10.376  17.278  1.00  0.00     0.176 HD
ENDBRANCH  18  20
ENDBRANCH  15  18
ENDBRANCH   6  15
BRANCH   3  23
HETATM   23  N3  UNL     1      -2.068   3.034  14.352  1.00  0.00    -0.106 N 
HETATM   24  O2  UNL     1      -1.087   2.361  14.639  1.00  0.00    -0.531 OA
HETATM   25  O3  UNL     1      -3.258   2.486  14.002  1.00  0.00    -0.531 OA
ENDBRANCH   3  23
TORSDOF 9
ENDMDL
MODEL 4
REMARK VINA RESULT: -6.235261405      3.365      5.086
REMARK  9 active torsions:
REMARK  status: ('A' for Active; 'I' for Inactive)
REMARK    1  A    between atoms: N1_1  and  N2_4 
REMARK    2  A    between atoms: N2_4  and  C1_6 
REMARK    3  A    between atoms: C1_6  and  O1_7 
REMARK    4  A    between atoms: C1_6  and  C2_9 
REMARK    5  A    between atoms: C3_11  and  N3_12 
REMARK    6  A    between atoms: C5_17  and  C6_18 
REMARK    7  A    between atoms: C6_18  and  O4_19 
REMARK    8  A    between atoms: C6_18  and  N5_21 
REMARK    9  A    between atoms: N5_21  and  N6_23 
ROOT
HETATM    1  C2  UNL     1      -0.255   7.761  10.644  1.00  0.00     0.075 A 
HETATM    2  S1  UNL     1       0.263   6.477  11.773  1.00  0.00    -0.059 SA
HETATM    3  C3  UNL     1      -0.437   7.060  13.180  1.00  0.00     0.169 A 
HETATM    4  C4  UNL     1      -1.035   8.188  12.800  1.00  0.00     0.102 A 
HETATM    5  N4  UNL     1      -1.750   8.973  13.820  1.00  0.00    -0.098 NA
HETATM    6  C5  UNL     1      -0.944   8.580  11.455  1.00  0.00     0.065 A 
ENDROOT
BRANCH   1   7
HETATM    7  C1  UNL     1       0.095   7.640   9.243  1.00  0.00     0.173 C 
BRANCH   7   8
HETATM    8  N2  UNL     1       0.747   6.696   8.493  1.00  0.00    -0.286 N 
ATOM      9  H2  UNL     1       1.714   6.850   8.208  1.00  0.00     0.188 HD
BRANCH   8  10
HETATM   10  N1  UNL     1       0.055   5.470   8.103  1.00  0.00    -0.343 N 
ATOM     11  H12 UNL     1       0.081   4.666   8.729  1.00  0.00     0.176 HD
ATOM     12  H11 UNL     1      -0.445   5.429   7.215  1.00  0.00     0.176 HD
ENDBRANCH   8  10
ENDBRANCH   7   8
BRANCH   7  13
HETATM   13  O1  UNL     1      -0.274   8.680   8.485  1.00  0.00    -0.344 OA
ATOM     14  H1  UNL     1      -1.157   8.958   8.699  1.00  0.00     0.219 HD
ENDBRANCH   7  13
ENDBRANCH   1   7
BRANCH   6  15
HETATM   15  C6  UNL     1      -1.615   9.851  11.074  1.00  0.00     0.168 C 
BRANCH  15  16
HETATM   16  O4  UNL     1      -1.299  10.912  11.758  1.00  0.00    -0.344 OA
ATOM     17  H4  UNL     1      -1.734  11.030  12.595  1.00  0.00     0.219 HD
ENDBRANCH  15  16
BRANCH  15  18
HETATM   18  N5  UNL     1      -2.518  10.076  10.074  1.00  0.00    -0.286 N 
ATOM     19  H5  UNL     1      -3.351   9.494   9.983  1.00  0.00     0.188 HD
BRANCH  18  20
HETATM   20  N6  UNL     1      -2.262  11.166   9.141  1.00  0.00    -0.343 N 
ATOM     21  H62 UNL     1      -2.281  12.131   9.471  1.00  0.00     0.176 HD
ATOM     22  H61 UNL     1      -2.069  10.936   8.166  1.00  0.00     0.176 HD
ENDBRANCH  18  20
ENDBRANCH  15  18
ENDBRANCH   6  15
BRANCH   3  23
HETATM   23  N3  UNL     1      -0.397   6.467  14.520  1.00  0.00    -0.106 N 
HETATM   24  O2  UNL     1       0.551   6.742  15.244  1.00  0.00    -0.531 OA
HETATM   25  O3  UNL     1      -1.403   5.644  14.908  1.00  0.00    -0.531 OA
ENDBRANCH   3  23
TORSDOF 9
ENDMDL
MODEL 5
REMARK VINA RESULT: -6.216557025      2.565      4.209
REMARK  9 active torsions:
REMARK  status: ('A' for Active; 'I' for Inactive)
REMARK    1  A    between atoms: N1_1  and  N2_4 
REMARK    2  A    between atoms: N2_4  and  C1_6 
REMARK    3  A    between atoms: C1_6  and  O1_7 
REMARK    4  A    between atoms: C1_6  and  C2_9 
REMARK    5  A    between atoms: C3_11  and  N3_12 
REMARK    6  A    between atoms: C5_17  and  C6_18 
REMARK    7  A    between atoms: C6_18  and  O4_19 
REMARK    8  A    between atoms: C6_18  and  N5_21 
REMARK    9  A    between atoms: N5_21  and  N6_23 
ROOT
HETATM    1  C2  UNL     1      -1.345   8.341  13.014  1.00  0.00     0.075 A 
HETATM    2  S1  UNL     1      -2.251   8.348  14.553  1.00  0.00    -0.059 SA
HETATM    3  C3  UNL     1      -1.397   7.162  15.373  1.00  0.00     0.169 A 
HETATM    4  C4  UNL     1      -0.465   6.776  14.503  1.00  0.00     0.102 A 
HETATM    5  N4  UNL     1       0.470   5.714  14.910  1.00  0.00    -0.098 NA
HETATM    6  C5  UNL     1      -0.425   7.389  13.240  1.00  0.00     0.065 A 
ENDROOT
BRANCH   1   7
HETATM    7  C1  UNL     1      -1.717   9.286  11.981  1.00  0.00     0.173 C 
BRANCH   7   8
HETATM    8  N2  UNL     1      -1.236  10.503  11.573  1.00  0.00    -0.286 N 
ATOM      9  H2  UNL     1      -1.715  11.360  11.849  1.00  0.00     0.188 HD
BRANCH   8  10
HETATM   10  N1  UNL     1      -0.037  10.570  10.741  1.00  0.00    -0.343 N 
ATOM     11  H12 UNL     1      -0.076  11.072   9.855  1.00  0.00     0.176 HD
ATOM     12  H11 UNL     1       0.823  10.117  11.051  1.00  0.00     0.176 HD
ENDBRANCH   8  10
ENDBRANCH   7   8
BRANCH   7  13
HETATM   13  O1  UNL     1      -2.781   8.925  11.253  1.00  0.00    -0.344 OA
ATOM     14  H1  UNL     1      -2.919   7.986  11.297  1.00  0.00     0.219 HD
ENDBRANCH   7  13
ENDBRANCH   1   7
BRANCH   6  15
HETATM   15  C6  UNL     1       0.623   6.922  12.295  1.00  0.00     0.168 C 
BRANCH  15  16
HETATM   16  O4  UNL     1       1.390   7.833  11.768  1.00  0.00    -0.344 OA
ATOM     17  H4  UNL     1       1.275   8.009  10.842  1.00  0.00     0.219 HD
ENDBRANCH  15  16
BRANCH  15  18
HETATM   18  N5  UNL     1       0.921   5.646  11.908  1.00  0.00    -0.286 N 
ATOM     19  H5  UNL     1       0.309   5.139  11.269  1.00  0.00     0.188 HD
BRANCH  18  20
HETATM   20  N6  UNL     1       2.132   5.027  12.431  1.00  0.00    -0.343 N 
ATOM     21  H62 UNL     1       2.110   4.551  13.333  1.00  0.00     0.176 HD
ATOM     22  H61 UNL     1       2.986   5.085  11.876  1.00  0.00     0.176 HD
ENDBRANCH  18  20
ENDBRANCH  15  18
ENDBRANCH   6  15
BRANCH   3  23
HETATM   23  N3  UNL     1      -1.625   6.661  16.732  1.00  0.00    -0.106 N 
HETATM   24  O2  UNL     1      -2.332   5.672  16.870  1.00  0.00    -0.531 OA
HETATM   25  O3  UNL     1      -1.050   7.304  17.777  1.00  0.00    -0.531 OA
ENDBRANCH   3  23
TORSDOF 9
ENDMDL
