MODEL 1
REMARK VINA RESULT: -8.179424167      0.000      0.000
REMARK  6 active torsions:
REMARK  status: ('A' for Active; 'I' for Inactive)
REMARK    1  A    between atoms: C3_3  and  O1_4 
REMARK    2  A    between atoms: C4_6  and  N1_7 
REMARK    3  A    between atoms: N2_9  and  N3_11 
REMARK       I    between atoms: C5_13  and  N4_14 
REMARK       I    between atoms: C5_13  and  N5_18 
REMARK    4  A    between atoms: N4_14  and  O2_16 
REMARK    5  A    between atoms: N5_18  and  N6_20 
REMARK    6  A    between atoms: N8_25  and  O5_26 
ROOT
HETATM    1  N1  UNL     1      -1.504   9.437  12.674  1.00  0.00    -0.267 N 
ATOM      2  H1  UNL     1      -0.805  10.032  13.119  1.00  0.00     0.190 HD
HETATM    3  N2  UNL     1      -2.127   8.582  13.396  1.00  0.00    -0.227 N 
ATOM      4  H2  UNL     1      -2.830   7.977  12.972  1.00  0.00     0.209 HD
ENDROOT
BRANCH   3   5
HETATM    5  N3  UNL     1      -1.851   8.474  14.760  1.00  0.00    -0.114 N 
HETATM    6  C5  UNL     1      -2.597   7.779  15.525  1.00  0.00     0.737 C 
HETATM    7  N4  UNL     1      -3.716   7.109  14.997  1.00  0.00    -0.096 N 
HETATM    8  N5  UNL     1      -2.302   7.681  16.900  1.00  0.00    -0.069 N 
ATOM      9  H4  UNL     1      -4.642   7.341  15.359  1.00  0.00     0.213 HD
ATOM     10  H5  UNL     1      -2.913   8.134  17.579  1.00  0.00     0.212 HD
ATOM     11  H3  UNL     1      -1.041   8.956  15.149  1.00  0.00     0.207 HD
BRANCH   7  12
HETATM   12  O2  UNL     1      -3.617   6.179  14.039  1.00  0.00    -0.276 OA
ATOM     13  H2  UNL     1      -4.176   6.171  13.271  1.00  0.00     0.245 HD
ENDBRANCH   7  12
BRANCH   8  14
HETATM   14  N6  UNL     1      -1.186   6.974  17.345  1.00  0.00    -0.024 N 
HETATM   15  O3  UNL     1      -0.500   6.349  16.534  1.00  0.00    -0.516 OA
HETATM   16  O4  UNL     1      -0.868   6.982  18.676  1.00  0.00    -0.516 OA
ENDBRANCH   8  14
ENDBRANCH   3   5
BRANCH   1  17
HETATM   17  C4  UNL     1      -1.739   9.593  11.302  1.00  0.00     0.173 A 
HETATM   18  C3  UNL     1      -1.049  10.471  10.489  1.00  0.00     0.139 A 
HETATM   19  C2  UNL     1      -1.579  10.316   9.224  1.00  0.00     0.092 A 
HETATM   20  C1  UNL     1      -1.143  11.065   8.010  1.00  0.00     0.076 C 
HETATM   21  N8  UNL     1      -2.539   9.390   9.281  1.00  0.00    -0.164 N 
HETATM   22  N7  UNL     1      -2.634   8.956  10.529  1.00  0.00    -0.255 N 
ATOM     23  H7  UNL     1      -3.289   8.246  10.854  1.00  0.00     0.191 HD
BRANCH  18  24
HETATM   24  O1  UNL     1      -0.021  11.354  10.825  1.00  0.00    -0.355 OA
ATOM     25  H1  UNL     1      -0.079  12.031  11.489  1.00  0.00     0.218 HD
ENDBRANCH  18  24
BRANCH  21  26
HETATM   26  O5  UNL     1      -3.293   8.976   8.185  1.00  0.00    -0.268 OA
ATOM     27  H5  UNL     1      -4.007   8.352   8.234  1.00  0.00     0.247 HD
ENDBRANCH  21  26
ENDBRANCH   1  17
TORSDOF 6
ENDMDL
MODEL 2
REMARK VINA RESULT: -8.148214653      1.964      7.034
REMARK  6 active torsions:
REMARK  status: ('A' for Active; 'I' for Inactive)
REMARK    1  A    between atoms: C3_3  and  O1_4 
REMARK    2  A    between atoms: C4_6  and  N1_7 
REMARK    3  A    between atoms: N2_9  and  N3_11 
REMARK       I    between atoms: C5_13  and  N4_14 
REMARK       I    between atoms: C5_13  and  N5_18 
REMARK    4  A    between atoms: N4_14  and  O2_16 
REMARK    5  A    between atoms: N5_18  and  N6_20 
REMARK    6  A    between atoms: N8_25  and  O5_26 
ROOT
HETATM    1  N1  UNL     1      -0.727   8.703  13.553  1.00  0.00    -0.267 N 
ATOM      2  H1  UNL     1       0.284   8.724  13.688  1.00  0.00     0.190 HD
HETATM    3  N2  UNL     1      -1.205   9.141  12.449  1.00  0.00    -0.227 N 
ATOM      4  H2  UNL     1      -2.213   9.131  12.292  1.00  0.00     0.209 HD
ENDROOT
BRANCH   3   5
HETATM    5  N3  UNL     1      -0.354   9.634  11.457  1.00  0.00    -0.114 N 
HETATM    6  C5  UNL     1      -0.642   9.496  10.223  1.00  0.00     0.737 C 
HETATM    7  N4  UNL     1      -1.828   8.841   9.845  1.00  0.00    -0.096 N 
HETATM    8  N5  UNL     1       0.230  10.000   9.235  1.00  0.00    -0.069 N 
ATOM      9  H4  UNL     1      -1.762   8.001   9.270  1.00  0.00     0.213 HD
ATOM     10  H5  UNL     1       0.756   9.351   8.650  1.00  0.00     0.212 HD
ATOM     11  H3  UNL     1       0.507  10.110  11.723  1.00  0.00     0.207 HD
BRANCH   7  12
HETATM   12  O2  UNL     1      -3.041   9.276  10.209  1.00  0.00    -0.276 OA
ATOM     13  H2  UNL     1      -3.633   8.760  10.744  1.00  0.00     0.245 HD
ENDBRANCH   7  12
BRANCH   8  14
HETATM   14  N6  UNL     1       0.383  11.372   9.047  1.00  0.00    -0.024 N 
HETATM   15  O3  UNL     1       0.160  11.862   7.939  1.00  0.00    -0.516 OA
HETATM   16  O4  UNL     1       0.780  12.157  10.096  1.00  0.00    -0.516 OA
ENDBRANCH   8  14
ENDBRANCH   3   5
BRANCH   1  17
HETATM   17  C4  UNL     1      -1.529   8.197  14.584  1.00  0.00     0.173 A 
HETATM   18  C3  UNL     1      -1.124   7.227  15.481  1.00  0.00     0.139 A 
HETATM   19  C2  UNL     1      -2.197   7.016  16.323  1.00  0.00     0.092 A 
HETATM   20  C1  UNL     1      -2.223   6.047  17.458  1.00  0.00     0.076 C 
HETATM   21  N8  UNL     1      -3.193   7.820  15.946  1.00  0.00    -0.164 N 
HETATM   22  N7  UNL     1      -2.791   8.529  14.902  1.00  0.00    -0.255 N 
ATOM     23  H7  UNL     1      -3.356   9.222  14.412  1.00  0.00     0.191 HD
BRANCH  18  24
HETATM   24  O1  UNL     1       0.103   6.567  15.563  1.00  0.00    -0.355 OA
ATOM     25  H1  UNL     1       0.284   5.705  15.208  1.00  0.00     0.218 HD
ENDBRANCH  18  24
BRANCH  21  26
HETATM   26  O5  UNL     1      -4.435   7.874  16.574  1.00  0.00    -0.268 OA
ATOM     27  H5  UNL     1      -4.592   8.295  17.411  1.00  0.00     0.247 HD
ENDBRANCH  21  26
ENDBRANCH   1  17
TORSDOF 6
ENDMDL
MODEL 3
REMARK VINA RESULT: -7.993737177      2.130      7.006
REMARK  6 active torsions:
REMARK  status: ('A' for Active; 'I' for Inactive)
REMARK    1  A    between atoms: C3_3  and  O1_4 
REMARK    2  A    between atoms: C4_6  and  N1_7 
REMARK    3  A    between atoms: N2_9  and  N3_11 
REMARK       I    between atoms: C5_13  and  N4_14 
REMARK       I    between atoms: C5_13  and  N5_18 
REMARK    4  A    between atoms: N4_14  and  O2_16 
REMARK    5  A    between atoms: N5_18  and  N6_20 
REMARK    6  A    between atoms: N8_25  and  O5_26 
ROOT
HETATM    1  N1  UNL     1      -2.148   8.616  12.622  1.00  0.00    -0.267 N 
ATOM      2  H1  UNL     1      -2.725   8.358  11.821  1.00  0.00     0.190 HD
HETATM    3  N2  UNL     1      -1.455   9.691  12.555  1.00  0.00    -0.227 N 
ATOM      4  H2  UNL     1      -0.871   9.967  13.344  1.00  0.00     0.209 HD
ENDROOT
BRANCH   3   5
HETATM    5  N3  UNL     1      -1.495  10.486  11.409  1.00  0.00    -0.114 N 
HETATM    6  C5  UNL     1      -0.572  10.414  10.532  1.00  0.00     0.737 C 
HETATM    7  N4  UNL     1       0.503   9.525  10.713  1.00  0.00    -0.096 N 
HETATM    8  N5  UNL     1      -0.629  11.226   9.380  1.00  0.00    -0.069 N 
ATOM      9  H4  UNL     1       1.450   9.904  10.758  1.00  0.00     0.213 HD
ATOM     10  H5  UNL     1       0.040  11.987   9.268  1.00  0.00     0.212 HD
ATOM     11  H3  UNL     1      -2.271  11.132  11.271  1.00  0.00     0.207 HD
BRANCH   7  12
HETATM   12  O2  UNL     1       0.336   8.201  10.828  1.00  0.00    -0.276 OA
ATOM     13  H2  UNL     1       1.002   7.629  11.189  1.00  0.00     0.245 HD
ENDBRANCH   7  12
BRANCH   8  14
HETATM   14  N6  UNL     1      -1.586  11.002   8.392  1.00  0.00    -0.024 N 
HETATM   15  O3  UNL     1      -2.782  11.043   8.686  1.00  0.00    -0.516 OA
HETATM   16  O4  UNL     1      -1.185  10.741   7.110  1.00  0.00    -0.516 OA
ENDBRANCH   8  14
ENDBRANCH   3   5
BRANCH   1  17
HETATM   17  C4  UNL     1      -2.150   7.777  13.745  1.00  0.00     0.173 A 
HETATM   18  C3  UNL     1      -1.011   7.278  14.347  1.00  0.00     0.139 A 
HETATM   19  C2  UNL     1      -1.447   6.507  15.405  1.00  0.00     0.092 A 
HETATM   20  C1  UNL     1      -0.563   5.763  16.350  1.00  0.00     0.076 C 
HETATM   21  N8  UNL     1      -2.781   6.544  15.432  1.00  0.00    -0.164 N 
HETATM   22  N7  UNL     1      -3.203   7.307  14.435  1.00  0.00    -0.255 N 
ATOM     23  H7  UNL     1      -4.180   7.507  14.223  1.00  0.00     0.191 HD
BRANCH  18  24
HETATM   24  O1  UNL     1       0.325   7.481  13.997  1.00  0.00    -0.355 OA
ATOM     25  H1  UNL     1       0.749   7.118  13.229  1.00  0.00     0.218 HD
ENDBRANCH  18  24
BRANCH  21  26
HETATM   26  O5  UNL     1      -3.563   5.877  16.372  1.00  0.00    -0.268 OA
ATOM     27  H5  UNL     1      -4.512   5.900  16.389  1.00  0.00     0.247 HD
ENDBRANCH  21  26
ENDBRANCH   1  17
TORSDOF 6
ENDMDL
MODEL 4
REMARK VINA RESULT: -7.961607779      4.983      7.345
REMARK  6 active torsions:
REMARK  status: ('A' for Active; 'I' for Inactive)
REMARK    1  A    between atoms: C3_3  and  O1_4 
REMARK    2  A    between atoms: C4_6  and  N1_7 
REMARK    3  A    between atoms: N2_9  and  N3_11 
REMARK       I    between atoms: C5_13  and  N4_14 
REMARK       I    between atoms: C5_13  and  N5_18 
REMARK    4  A    between atoms: N4_14  and  O2_16 
REMARK    5  A    between atoms: N5_18  and  N6_20 
REMARK    6  A    between atoms: N8_25  and  O5_26 
ROOT
HETATM    1  N1  UNL     1       0.348   6.745   8.524  1.00  0.00    -0.267 N 
ATOM      2  H1  UNL     1       1.022   7.331   8.028  1.00  0.00     0.190 HD
HETATM    3  N2  UNL     1      -0.633   7.313   9.119  1.00  0.00    -0.227 N 
ATOM      4  H2  UNL     1      -1.317   6.747   9.621  1.00  0.00     0.209 HD
ENDROOT
BRANCH   3   5
HETATM    5  N3  UNL     1      -0.771   8.702   9.087  1.00  0.00    -0.114 N 
HETATM    6  C5  UNL     1      -0.609   9.399  10.142  1.00  0.00     0.737 C 
HETATM    7  N4  UNL     1      -0.286   8.771  11.358  1.00  0.00    -0.096 N 
HETATM    8  N5  UNL     1      -0.752  10.801  10.089  1.00  0.00    -0.069 N 
ATOM      9  H4  UNL     1      -0.922   8.880  12.149  1.00  0.00     0.213 HD
ATOM     10  H5  UNL     1      -1.550  11.242  10.546  1.00  0.00     0.212 HD
ATOM     11  H3  UNL     1      -1.004   9.164   8.209  1.00  0.00     0.207 HD
BRANCH   7  12
HETATM   12  O2  UNL     1       0.822   8.037  11.522  1.00  0.00    -0.276 OA
ATOM     13  H2  UNL     1       1.057   7.639  12.352  1.00  0.00     0.245 HD
ENDBRANCH   7  12
BRANCH   8  14
HETATM   14  N6  UNL     1       0.180  11.593   9.421  1.00  0.00    -0.024 N 
HETATM   15  O3  UNL     1       0.984  12.264  10.071  1.00  0.00    -0.516 OA
HETATM   16  O4  UNL     1       0.190  11.615   8.052  1.00  0.00    -0.516 OA
ENDBRANCH   8  14
ENDBRANCH   3   5
BRANCH   1  17
HETATM   17  C4  UNL     1       0.540   5.358   8.520  1.00  0.00     0.173 A 
HETATM   18  C3  UNL     1       0.358   4.549   7.415  1.00  0.00     0.139 A 
HETATM   19  C2  UNL     1       0.648   3.265   7.831  1.00  0.00     0.092 A 
HETATM   20  C1  UNL     1       0.588   2.047   6.972  1.00  0.00     0.076 C 
HETATM   21  N8  UNL     1       0.984   3.307   9.122  1.00  0.00    -0.164 N 
HETATM   22  N7  UNL     1       0.920   4.563   9.535  1.00  0.00    -0.255 N 
ATOM     23  H7  UNL     1       1.127   4.881  10.482  1.00  0.00     0.191 HD
BRANCH  18  24
HETATM   24  O1  UNL     1      -0.035   4.905   6.124  1.00  0.00    -0.355 OA
ATOM     25  H1  UNL     1       0.526   5.313   5.475  1.00  0.00     0.218 HD
ENDBRANCH  18  24
BRANCH  21  26
HETATM   26  O5  UNL     1       1.340   2.190   9.874  1.00  0.00    -0.268 OA
ATOM     27  H5  UNL     1       1.160   2.091  10.801  1.00  0.00     0.247 HD
ENDBRANCH  21  26
ENDBRANCH   1  17
TORSDOF 6
ENDMDL
MODEL 5
REMARK VINA RESULT: -7.891867901      1.432      1.954
REMARK  6 active torsions:
REMARK  status: ('A' for Active; 'I' for Inactive)
REMARK    1  A    between atoms: C3_3  and  O1_4 
REMARK    2  A    between atoms: C4_6  and  N1_7 
REMARK    3  A    between atoms: N2_9  and  N3_11 
REMARK       I    between atoms: C5_13  and  N4_14 
REMARK       I    between atoms: C5_13  and  N5_18 
REMARK    4  A    between atoms: N4_14  and  O2_16 
REMARK    5  A    between atoms: N5_18  and  N6_20 
REMARK    6  A    between atoms: N8_25  and  O5_26 
ROOT
HETATM    1  N1  UNL     1      -0.932   9.141  12.785  1.00  0.00    -0.267 N 
ATOM      2  H1  UNL     1      -0.213   8.484  13.087  1.00  0.00     0.190 HD
HETATM    3  N2  UNL     1      -1.781   9.558  13.649  1.00  0.00    -0.227 N 
ATOM      4  H2  UNL     1      -2.509  10.216  13.368  1.00  0.00     0.209 HD
ENDROOT
BRANCH   3   5
HETATM    5  N3  UNL     1      -1.715   9.120  14.972  1.00  0.00    -0.114 N 
HETATM    6  C5  UNL     1      -2.449   8.159  15.378  1.00  0.00     0.737 C 
HETATM    7  N4  UNL     1      -3.337   7.527  14.490  1.00  0.00    -0.096 N 
HETATM    8  N5  UNL     1      -2.369   7.730  16.719  1.00  0.00    -0.069 N 
ATOM      9  H4  UNL     1      -4.335   7.539  14.703  1.00  0.00     0.213 HD
ATOM     10  H5  UNL     1      -3.150   7.905  17.351  1.00  0.00     0.212 HD
ATOM     11  H3  UNL     1      -1.073   9.572  15.622  1.00  0.00     0.207 HD
BRANCH   7  12
HETATM   12  O2  UNL     1      -2.928   6.909  13.374  1.00  0.00    -0.276 OA
ATOM     13  H2  UNL     1      -2.869   7.350  12.535  1.00  0.00     0.245 HD
ENDBRANCH   7  12
BRANCH   8  14
HETATM   14  N6  UNL     1      -1.237   7.068  17.194  1.00  0.00    -0.024 N 
HETATM   15  O3  UNL     1      -1.011   7.045  18.405  1.00  0.00    -0.516 OA
HETATM   16  O4  UNL     1      -0.393   6.454  16.309  1.00  0.00    -0.516 OA
ENDBRANCH   8  14
ENDBRANCH   3   5
BRANCH   1  17
HETATM   17  C4  UNL     1      -0.946   9.545  11.443  1.00  0.00     0.173 A 
HETATM   18  C3  UNL     1      -2.036   9.420  10.603  1.00  0.00     0.139 A 
HETATM   19  C2  UNL     1      -1.638   9.932   9.385  1.00  0.00     0.092 A 
HETATM   20  C1  UNL     1      -2.490  10.006   8.162  1.00  0.00     0.076 C 
HETATM   21  N8  UNL     1      -0.372  10.342   9.493  1.00  0.00    -0.164 N 
HETATM   22  N7  UNL     1       0.042  10.110  10.730  1.00  0.00    -0.255 N 
ATOM     23  H7  UNL     1       0.973  10.326  11.086  1.00  0.00     0.191 HD
BRANCH  18  24
HETATM   24  O1  UNL     1      -3.299   8.892  10.879  1.00  0.00    -0.355 OA
ATOM     25  H1  UNL     1      -3.462   8.047  11.279  1.00  0.00     0.218 HD
ENDBRANCH  18  24
BRANCH  21  26
HETATM   26  O5  UNL     1       0.356  10.915   8.454  1.00  0.00    -0.268 OA
ATOM     27  H5  UNL     1       1.300  10.855   8.367  1.00  0.00     0.247 HD
ENDBRANCH  21  26
ENDBRANCH   1  17
TORSDOF 6
ENDMDL
