MODEL 1
REMARK VINA RESULT: -7.440862398      0.000      0.000
REMARK  8 active torsions:
REMARK  status: ('A' for Active; 'I' for Inactive)
REMARK    1  A    between atoms: N1_2  and  N2_3 
REMARK    2  A    between atoms: N1_2  and  C2_7 
REMARK    3  A    between atoms: N2_3  and  O1_5 
REMARK    4  A    between atoms: C2_7  and  O2_8 
REMARK    5  A    between atoms: C2_7  and  C3_10 
REMARK    6  A    between atoms: C4_11  and  O3_12 
REMARK    7  A    between atoms: C5_15  and  C6_16 
REMARK       I    between atoms: C6_16  and  N3_18 
REMARK    8  A    between atoms: C8_22  and  C9_23 
ROOT
HETATM    1  C6  UNL     1      -1.508   8.550  12.205  1.00  0.00     0.289 C 
HETATM    2  O5  UNL     1      -2.517   8.603  11.447  1.00  0.00    -0.264 OA
HETATM    3  N3  UNL     1      -0.228   8.689  11.679  1.00  0.00    -0.258 N 
ATOM      4  H3  UNL     1       0.598   8.664  12.277  1.00  0.00     0.181 HD
HETATM    5  C7  UNL     1      -0.118   8.867  10.266  1.00  0.00     0.184 C 
HETATM    6  N4  UNL     1      -0.027   8.997   9.132  1.00  0.00    -0.172 NA
ENDROOT
BRANCH   1   7
HETATM    7  C5  UNL     1      -1.746   8.348  13.632  1.00  0.00     0.163 A 
HETATM    8  O4  UNL     1      -2.228   9.307  14.424  1.00  0.00    -0.281 OA
HETATM    9  C4  UNL     1      -2.363   8.926  15.639  1.00  0.00     0.199 A 
HETATM   10  C3  UNL     1      -1.942   7.569  15.721  1.00  0.00     0.093 A 
HETATM   11  C8  UNL     1      -1.564   7.250  14.444  1.00  0.00     0.088 A 
BRANCH   9  12
HETATM   12  O3  UNL     1      -2.839   9.674  16.736  1.00  0.00    -0.340 OA
ATOM     13  H3  UNL     1      -2.935  10.620  16.735  1.00  0.00     0.220 HD
ENDBRANCH   9  12
BRANCH  10  14
HETATM   14  C2  UNL     1      -1.930   6.899  16.990  1.00  0.00     0.174 C 
BRANCH  14  15
HETATM   15  N1  UNL     1      -2.710   5.865  17.452  1.00  0.00    -0.255 N 
HETATM   16  C1  UNL     1      -2.348   4.761  18.273  1.00  0.00     0.182 C 
BRANCH  15  17
HETATM   17  N2  UNL     1      -4.125   5.841  17.093  1.00  0.00    -0.206 N 
ATOM     18  H2  UNL     1      -4.505   5.084  16.525  1.00  0.00     0.216 HD
BRANCH  17  19
HETATM   19  O1  UNL     1      -4.859   6.759  17.492  1.00  0.00    -0.274 OA
ATOM     20  H1  UNL     1      -5.723   6.544  17.823  1.00  0.00     0.246 HD
ENDBRANCH  17  19
ENDBRANCH  15  17
ENDBRANCH  14  15
BRANCH  14  21
HETATM   21  O2  UNL     1      -1.055   7.333  17.861  1.00  0.00    -0.344 OA
ATOM     22  H2  UNL     1      -1.367   8.056  18.392  1.00  0.00     0.219 HD
ENDBRANCH  14  21
ENDBRANCH  10  14
BRANCH  11  23
HETATM   23  C9  UNL     1      -0.958   6.016  13.977  1.00  0.00     0.269 C 
HETATM   24  N5  UNL     1       0.413   5.967  13.514  1.00  0.00    -0.057 NA
HETATM   25  O6  UNL     1      -1.563   4.900  13.928  1.00  0.00    -0.271 OA
ENDBRANCH  11  23
ENDBRANCH   1   7
TORSDOF 8
ENDMDL
MODEL 2
REMARK VINA RESULT: -7.411365210      1.673      2.196
REMARK  8 active torsions:
REMARK  status: ('A' for Active; 'I' for Inactive)
REMARK    1  A    between atoms: N1_2  and  N2_3 
REMARK    2  A    between atoms: N1_2  and  C2_7 
REMARK    3  A    between atoms: N2_3  and  O1_5 
REMARK    4  A    between atoms: C2_7  and  O2_8 
REMARK    5  A    between atoms: C2_7  and  C3_10 
REMARK    6  A    between atoms: C4_11  and  O3_12 
REMARK    7  A    between atoms: C5_15  and  C6_16 
REMARK       I    between atoms: C6_16  and  N3_18 
REMARK    8  A    between atoms: C8_22  and  C9_23 
ROOT
HETATM    1  C6  UNL     1      -1.716   8.025  12.880  1.00  0.00     0.289 C 
HETATM    2  O5  UNL     1      -1.650   7.210  11.918  1.00  0.00    -0.264 OA
HETATM    3  N3  UNL     1      -1.331   9.350  12.704  1.00  0.00    -0.258 N 
ATOM      4  H3  UNL     1      -1.391  10.027  13.465  1.00  0.00     0.181 HD
HETATM    5  C7  UNL     1      -0.847   9.723  11.413  1.00  0.00     0.184 C 
HETATM    6  N4  UNL     1      -0.446  10.022  10.383  1.00  0.00    -0.172 NA
ENDROOT
BRANCH   1   7
HETATM    7  C5  UNL     1      -2.214   7.522  14.159  1.00  0.00     0.163 A 
HETATM    8  O4  UNL     1      -3.348   7.954  14.709  1.00  0.00    -0.281 OA
HETATM    9  C4  UNL     1      -3.605   7.386  15.828  1.00  0.00     0.199 A 
HETATM   10  C3  UNL     1      -2.558   6.461  16.099  1.00  0.00     0.093 A 
HETATM   11  C8  UNL     1      -1.711   6.581  15.030  1.00  0.00     0.088 A 
BRANCH   9  12
HETATM   12  O3  UNL     1      -4.710   7.601  16.678  1.00  0.00    -0.340 OA
ATOM     13  H3  UNL     1      -4.675   8.112  17.479  1.00  0.00     0.220 HD
ENDBRANCH   9  12
BRANCH  10  14
HETATM   14  C2  UNL     1      -2.558   5.722  17.328  1.00  0.00     0.174 C 
BRANCH  14  15
HETATM   15  N1  UNL     1      -1.537   5.489  18.221  1.00  0.00    -0.255 N 
HETATM   16  C1  UNL     1      -1.168   4.280  18.873  1.00  0.00     0.182 C 
BRANCH  15  17
HETATM   17  N2  UNL     1      -0.662   6.600  18.587  1.00  0.00    -0.206 N 
ATOM     18  H2  UNL     1      -0.358   7.275  17.886  1.00  0.00     0.216 HD
BRANCH  17  19
HETATM   19  O1  UNL     1      -0.295   6.707  19.768  1.00  0.00    -0.274 OA
ATOM     20  H1  UNL     1       0.605   6.495  19.988  1.00  0.00     0.246 HD
ENDBRANCH  17  19
ENDBRANCH  15  17
ENDBRANCH  14  15
BRANCH  14  21
HETATM   21  O2  UNL     1      -3.693   5.165  17.665  1.00  0.00    -0.344 OA
ATOM     22  H2  UNL     1      -4.413   5.378  17.085  1.00  0.00     0.219 HD
ENDBRANCH  14  21
ENDBRANCH  10  14
BRANCH  11  23
HETATM   23  C9  UNL     1      -0.424   5.935  14.837  1.00  0.00     0.269 C 
HETATM   24  N5  UNL     1       0.736   6.298  15.623  1.00  0.00    -0.057 NA
HETATM   25  O6  UNL     1      -0.207   5.023  13.979  1.00  0.00    -0.271 OA
ENDBRANCH  11  23
ENDBRANCH   1   7
TORSDOF 8
ENDMDL
MODEL 3
REMARK VINA RESULT: -7.281347089      1.222      1.828
REMARK  8 active torsions:
REMARK  status: ('A' for Active; 'I' for Inactive)
REMARK    1  A    between atoms: N1_2  and  N2_3 
REMARK    2  A    between atoms: N1_2  and  C2_7 
REMARK    3  A    between atoms: N2_3  and  O1_5 
REMARK    4  A    between atoms: C2_7  and  O2_8 
REMARK    5  A    between atoms: C2_7  and  C3_10 
REMARK    6  A    between atoms: C4_11  and  O3_12 
REMARK    7  A    between atoms: C5_15  and  C6_16 
REMARK       I    between atoms: C6_16  and  N3_18 
REMARK    8  A    between atoms: C8_22  and  C9_23 
ROOT
HETATM    1  C6  UNL     1      -0.820   8.218  12.492  1.00  0.00     0.289 C 
HETATM    2  O5  UNL     1       0.378   7.847  12.339  1.00  0.00    -0.264 OA
HETATM    3  N3  UNL     1      -1.531   8.750  11.421  1.00  0.00    -0.258 N 
ATOM      4  H3  UNL     1      -2.503   9.041  11.520  1.00  0.00     0.181 HD
HETATM    5  C7  UNL     1      -0.841   8.871  10.175  1.00  0.00     0.184 C 
HETATM    6  N4  UNL     1      -0.287   8.981   9.179  1.00  0.00    -0.172 NA
ENDROOT
BRANCH   1   7
HETATM    7  C5  UNL     1      -1.413   8.058  13.817  1.00  0.00     0.163 A 
HETATM    8  O4  UNL     1      -1.910   9.082  14.510  1.00  0.00    -0.281 OA
HETATM    9  C4  UNL     1      -2.383   8.729  15.647  1.00  0.00     0.199 A 
HETATM   10  C3  UNL     1      -2.209   7.322  15.775  1.00  0.00     0.093 A 
HETATM   11  C8  UNL     1      -1.598   6.946  14.609  1.00  0.00     0.088 A 
BRANCH   9  12
HETATM   12  O3  UNL     1      -2.980   9.545  16.631  1.00  0.00    -0.340 OA
ATOM     13  H3  UNL     1      -3.832   9.377  17.018  1.00  0.00     0.220 HD
ENDBRANCH   9  12
BRANCH  10  14
HETATM   14  C2  UNL     1      -2.598   6.661  16.987  1.00  0.00     0.174 C 
BRANCH  14  15
HETATM   15  N1  UNL     1      -1.831   6.018  17.929  1.00  0.00    -0.255 N 
HETATM   16  C1  UNL     1      -2.017   4.738  18.523  1.00  0.00     0.182 C 
BRANCH  15  17
HETATM   17  N2  UNL     1      -0.630   6.684  18.428  1.00  0.00    -0.206 N 
ATOM     18  H2  UNL     1       0.010   7.149  17.785  1.00  0.00     0.216 HD
BRANCH  17  19
HETATM   19  O1  UNL     1      -0.404   6.674  19.648  1.00  0.00    -0.274 OA
ATOM     20  H1  UNL     1       0.450   6.389  19.952  1.00  0.00     0.246 HD
ENDBRANCH  17  19
ENDBRANCH  15  17
ENDBRANCH  14  15
BRANCH  14  21
HETATM   21  O2  UNL     1      -3.880   6.648  17.250  1.00  0.00    -0.344 OA
ATOM     22  H2  UNL     1      -4.298   5.811  17.086  1.00  0.00     0.219 HD
ENDBRANCH  14  21
ENDBRANCH  10  14
BRANCH  11  23
HETATM   23  C9  UNL     1      -1.099   5.630  14.250  1.00  0.00     0.269 C 
HETATM   24  N5  UNL     1       0.040   5.038  14.918  1.00  0.00    -0.057 NA
HETATM   25  O6  UNL     1      -1.602   4.903  13.336  1.00  0.00    -0.271 OA
ENDBRANCH  11  23
ENDBRANCH   1   7
TORSDOF 8
ENDMDL
MODEL 4
REMARK VINA RESULT: -7.266289924      1.142      1.672
REMARK  8 active torsions:
REMARK  status: ('A' for Active; 'I' for Inactive)
REMARK    1  A    between atoms: N1_2  and  N2_3 
REMARK    2  A    between atoms: N1_2  and  C2_7 
REMARK    3  A    between atoms: N2_3  and  O1_5 
REMARK    4  A    between atoms: C2_7  and  O2_8 
REMARK    5  A    between atoms: C2_7  and  C3_10 
REMARK    6  A    between atoms: C4_11  and  O3_12 
REMARK    7  A    between atoms: C5_15  and  C6_16 
REMARK       I    between atoms: C6_16  and  N3_18 
REMARK    8  A    between atoms: C8_22  and  C9_23 
ROOT
HETATM    1  C6  UNL     1      -1.520   8.534  12.134  1.00  0.00     0.289 C 
HETATM    2  O5  UNL     1      -2.529   8.740  11.402  1.00  0.00    -0.264 OA
HETATM    3  N3  UNL     1      -0.239   8.586  11.592  1.00  0.00    -0.258 N 
ATOM      4  H3  UNL     1       0.589   8.438  12.170  1.00  0.00     0.181 HD
HETATM    5  C7  UNL     1      -0.132   8.854  10.193  1.00  0.00     0.184 C 
HETATM    6  N4  UNL     1      -0.044   9.056   9.069  1.00  0.00    -0.172 NA
ENDROOT
BRANCH   1   7
HETATM    7  C5  UNL     1      -1.757   8.254  13.548  1.00  0.00     0.163 A 
HETATM    8  O4  UNL     1      -2.183   9.183  14.403  1.00  0.00    -0.281 OA
HETATM    9  C4  UNL     1      -2.328   8.732  15.594  1.00  0.00     0.199 A 
HETATM   10  C3  UNL     1      -1.976   7.353  15.585  1.00  0.00     0.093 A 
HETATM   11  C8  UNL     1      -1.624   7.099  14.286  1.00  0.00     0.088 A 
BRANCH   9  12
HETATM   12  O3  UNL     1      -2.758   9.432  16.741  1.00  0.00    -0.340 OA
ATOM     13  H3  UNL     1      -2.988  10.354  16.748  1.00  0.00     0.220 HD
ENDBRANCH   9  12
BRANCH  10  14
HETATM   14  C2  UNL     1      -1.988   6.605  16.808  1.00  0.00     0.174 C 
BRANCH  14  15
HETATM   15  N1  UNL     1      -0.958   5.984  17.476  1.00  0.00    -0.255 N 
HETATM   16  C1  UNL     1       0.146   5.256  16.952  1.00  0.00     0.182 C 
BRANCH  15  17
HETATM   17  N2  UNL     1      -0.929   6.052  18.935  1.00  0.00    -0.206 N 
ATOM     18  H2  UNL     1      -1.418   5.355  19.497  1.00  0.00     0.216 HD
BRANCH  17  19
HETATM   19  O1  UNL     1      -0.298   6.972  19.478  1.00  0.00    -0.274 OA
ATOM     20  H1  UNL     1       0.299   6.762  20.187  1.00  0.00     0.246 HD
ENDBRANCH  17  19
ENDBRANCH  15  17
ENDBRANCH  14  15
BRANCH  14  21
HETATM   21  O2  UNL     1      -3.153   6.471  17.390  1.00  0.00    -0.344 OA
ATOM     22  H2  UNL     1      -3.723   7.223  17.286  1.00  0.00     0.219 HD
ENDBRANCH  14  21
ENDBRANCH  10  14
BRANCH  11  23
HETATM   23  C9  UNL     1      -1.085   5.868  13.735  1.00  0.00     0.269 C 
HETATM   24  N5  UNL     1       0.292   5.767  13.298  1.00  0.00    -0.057 NA
HETATM   25  O6  UNL     1      -1.758   4.800  13.585  1.00  0.00    -0.271 OA
ENDBRANCH  11  23
ENDBRANCH   1   7
TORSDOF 8
ENDMDL
MODEL 5
REMARK VINA RESULT: -7.070891559      1.662      1.949
REMARK  8 active torsions:
REMARK  status: ('A' for Active; 'I' for Inactive)
REMARK    1  A    between atoms: N1_2  and  N2_3 
REMARK    2  A    between atoms: N1_2  and  C2_7 
REMARK    3  A    between atoms: N2_3  and  O1_5 
REMARK    4  A    between atoms: C2_7  and  O2_8 
REMARK    5  A    between atoms: C2_7  and  C3_10 
REMARK    6  A    between atoms: C4_11  and  O3_12 
REMARK    7  A    between atoms: C5_15  and  C6_16 
REMARK       I    between atoms: C6_16  and  N3_18 
REMARK    8  A    between atoms: C8_22  and  C9_23 
ROOT
HETATM    1  C6  UNL     1      -1.269   9.061  11.540  1.00  0.00     0.289 C 
HETATM    2  O5  UNL     1      -2.361   9.060  10.906  1.00  0.00    -0.264 OA
HETATM    3  N3  UNL     1      -0.124   9.602  10.964  1.00  0.00    -0.258 N 
ATOM      4  H3  UNL     1       0.764   9.626  11.466  1.00  0.00     0.181 HD
HETATM    5  C7  UNL     1      -0.244  10.123   9.639  1.00  0.00     0.184 C 
HETATM    6  N4  UNL     1      -0.335  10.529   8.572  1.00  0.00    -0.172 NA
ENDROOT
BRANCH   1   7
HETATM    7  C5  UNL     1      -1.267   8.486  12.883  1.00  0.00     0.163 A 
HETATM    8  O4  UNL     1      -1.892   9.059  13.912  1.00  0.00    -0.281 OA
HETATM    9  C4  UNL     1      -1.769   8.394  15.000  1.00  0.00     0.199 A 
HETATM   10  C3  UNL     1      -0.986   7.239  14.721  1.00  0.00     0.093 A 
HETATM   11  C8  UNL     1      -0.694   7.339  13.386  1.00  0.00     0.088 A 
BRANCH   9  12
HETATM   12  O3  UNL     1      -2.294   8.705  16.272  1.00  0.00    -0.340 OA
ATOM     13  H3  UNL     1      -3.216   8.862  16.444  1.00  0.00     0.220 HD
ENDBRANCH   9  12
BRANCH  10  14
HETATM   14  C2  UNL     1      -0.637   6.338  15.781  1.00  0.00     0.174 C 
BRANCH  14  15
HETATM   15  N1  UNL     1      -1.443   5.603  16.618  1.00  0.00    -0.255 N 
HETATM   16  C1  UNL     1      -2.099   4.363  16.378  1.00  0.00     0.182 C 
BRANCH  15  17
HETATM   17  N2  UNL     1      -1.695   6.105  17.967  1.00  0.00    -0.206 N 
ATOM     18  H2  UNL     1      -2.457   5.726  18.528  1.00  0.00     0.216 HD
BRANCH  17  19
HETATM   19  O1  UNL     1      -0.964   7.001  18.417  1.00  0.00    -0.274 OA
ATOM     20  H1  UNL     1      -0.043   7.002  18.182  1.00  0.00     0.246 HD
ENDBRANCH  17  19
ENDBRANCH  15  17
ENDBRANCH  14  15
BRANCH  14  21
HETATM   21  O2  UNL     1       0.642   6.187  16.010  1.00  0.00    -0.344 OA
ATOM     22  H2  UNL     1       1.121   7.005  16.072  1.00  0.00     0.219 HD
ENDBRANCH  14  21
ENDBRANCH  10  14
BRANCH  11  23
HETATM   23  C9  UNL     1       0.165   6.474  12.596  1.00  0.00     0.269 C 
HETATM   24  N5  UNL     1      -0.090   5.054  12.473  1.00  0.00    -0.057 NA
HETATM   25  O6  UNL     1       1.192   6.875  11.964  1.00  0.00    -0.271 OA
ENDBRANCH  11  23
ENDBRANCH   1   7
TORSDOF 8
ENDMDL
