MODEL 1
REMARK VINA RESULT: -7.167973163      0.000      0.000
REMARK  3 active torsions:
REMARK  status: ('A' for Active; 'I' for Inactive)
REMARK    1  A    between atoms: N1_2  and  C3_4 
REMARK    2  A    between atoms: C5_11  and  N4_12 
REMARK    3  A    between atoms: C6_15  and  C7_16 
ROOT
HETATM    1  C3  UNL     1      -0.634   6.060  13.956  1.00  0.00     0.119 A 
HETATM    2  N2  UNL     1       0.177   6.341  12.869  1.00  0.00    -0.294 N 
ATOM      3  H2  UNL     1       0.683   5.581  12.414  1.00  0.00     0.172 HD
HETATM    4  C4  UNL     1       0.310   7.573  12.406  1.00  0.00     0.327 A 
HETATM    5  O1  UNL     1       1.068   7.807  11.400  1.00  0.00    -0.247 OA
HETATM    6  N3  UNL     1      -0.359   8.559  13.014  1.00  0.00    -0.294 N 
ATOM      7  H3  UNL     1      -0.261   9.513  12.665  1.00  0.00     0.172 HD
HETATM    8  C5  UNL     1      -1.155   8.330  14.067  1.00  0.00     0.115 A 
HETATM    9  C6  UNL     1      -1.325   7.030  14.592  1.00  0.00     0.062 A 
ENDROOT
BRANCH   9  10
HETATM   10  C7  UNL     1      -2.196   6.856  15.706  1.00  0.00     0.232 A 
HETATM   11  C8  UNL     1      -3.428   6.077  15.453  1.00  0.00     0.139 A 
HETATM   12  N5  UNL     1      -4.279   6.233  14.311  1.00  0.00    -0.084 NA
HETATM   13  N6  UNL     1      -3.609   5.285  16.438  1.00  0.00    -0.178 N 
HETATM   14  C9  UNL     1      -2.564   5.463  17.377  1.00  0.00     0.702 A 
ATOM     15  H6  UNL     1      -4.384   4.628  16.534  1.00  0.00     0.185 HD
HETATM   16  N7  UNL     1      -2.146   5.001  18.572  1.00  0.00    -0.185 N 
HETATM   17  N9  UNL     1      -1.701   6.398  16.957  1.00  0.00    -0.106 N 
HETATM   18  C10 UNL     1      -1.029   5.676  18.848  1.00  0.00     0.215 A 
ATOM     19  H7  UNL     1      -2.591   4.285  19.145  1.00  0.00     0.185 HD
HETATM   20  N8  UNL     1      -0.778   6.517  17.858  1.00  0.00    -0.278 N 
ATOM     21  H8  UNL     1       0.015   7.157  17.812  1.00  0.00     0.188 HD
ENDBRANCH   9  10
BRANCH   1  22
HETATM   22  N1  UNL     1      -0.646   4.720  14.326  1.00  0.00    -0.375 N 
HETATM   23  C1  UNL     1      -1.557   3.784  13.728  1.00  0.00     0.150 C 
HETATM   24  C2  UNL     1       0.307   4.206  15.276  1.00  0.00     0.150 C 
ENDBRANCH   1  22
BRANCH   8  25
HETATM   25  N4  UNL     1      -1.783   9.297  14.629  1.00  0.00    -0.385 N 
ATOM     26  H42 UNL     1      -2.698   9.556  14.260  1.00  0.00     0.157 HD
ATOM     27  H41 UNL     1      -1.374   9.787  15.425  1.00  0.00     0.157 HD
ENDBRANCH   8  25
TORSDOF 3
ENDMDL
MODEL 2
REMARK VINA RESULT: -7.010977690      2.000      3.377
REMARK  3 active torsions:
REMARK  status: ('A' for Active; 'I' for Inactive)
REMARK    1  A    between atoms: N1_2  and  C3_4 
REMARK    2  A    between atoms: C5_11  and  N4_12 
REMARK    3  A    between atoms: C6_15  and  C7_16 
ROOT
HETATM    1  C3  UNL     1      -2.505   6.058  15.075  1.00  0.00     0.119 A 
HETATM    2  N2  UNL     1      -2.866   6.877  14.016  1.00  0.00    -0.294 N 
ATOM      3  H2  UNL     1      -3.850   6.960  13.764  1.00  0.00     0.172 HD
HETATM    4  C4  UNL     1      -1.962   7.552  13.326  1.00  0.00     0.327 A 
HETATM    5  O1  UNL     1      -2.321   8.301  12.351  1.00  0.00    -0.247 OA
HETATM    6  N3  UNL     1      -0.675   7.431  13.669  1.00  0.00    -0.294 N 
ATOM      7  H3  UNL     1       0.029   7.947  13.141  1.00  0.00     0.172 HD
HETATM    8  C5  UNL     1      -0.283   6.651  14.686  1.00  0.00     0.115 A 
HETATM    9  C6  UNL     1      -1.216   5.913  15.449  1.00  0.00     0.062 A 
ENDROOT
BRANCH   9  10
HETATM   10  C7  UNL     1      -0.733   5.114  16.524  1.00  0.00     0.232 A 
HETATM   11  C8  UNL     1      -1.056   5.592  17.887  1.00  0.00     0.139 A 
HETATM   12  N5  UNL     1      -0.947   6.951  18.328  1.00  0.00    -0.084 NA
HETATM   13  N6  UNL     1      -1.405   4.586  18.591  1.00  0.00    -0.178 N 
HETATM   14  C9  UNL     1      -1.348   3.417  17.794  1.00  0.00     0.702 A 
ATOM     15  H6  UNL     1      -1.682   4.619  19.572  1.00  0.00     0.185 HD
HETATM   16  N7  UNL     1      -1.557   2.089  17.874  1.00  0.00    -0.185 N 
HETATM   17  N9  UNL     1      -0.950   3.710  16.548  1.00  0.00    -0.106 N 
HETATM   18  C10 UNL     1      -1.278   1.605  16.663  1.00  0.00     0.215 A 
ATOM     19  H7  UNL     1      -1.865   1.562  18.691  1.00  0.00     0.185 HD
HETATM   20  N8  UNL     1      -0.912   2.603  15.875  1.00  0.00    -0.278 N 
ATOM     21  H8  UNL     1      -0.642   2.515  14.895  1.00  0.00     0.188 HD
ENDBRANCH   9  10
BRANCH   1  22
HETATM   22  N1  UNL     1      -3.573   5.405  15.679  1.00  0.00    -0.375 N 
HETATM   23  C1  UNL     1      -4.242   5.959  16.823  1.00  0.00     0.150 C 
HETATM   24  C2  UNL     1      -4.095   4.178  15.133  1.00  0.00     0.150 C 
ENDBRANCH   1  22
BRANCH   8  25
HETATM   25  N4  UNL     1       0.959   6.554  14.991  1.00  0.00    -0.385 N 
ATOM     26  H42 UNL     1       1.648   6.688  14.250  1.00  0.00     0.157 HD
ATOM     27  H41 UNL     1       1.242   6.352  15.949  1.00  0.00     0.157 HD
ENDBRANCH   8  25
TORSDOF 3
ENDMDL
MODEL 3
REMARK VINA RESULT: -6.844902763      2.693      4.874
REMARK  3 active torsions:
REMARK  status: ('A' for Active; 'I' for Inactive)
REMARK    1  A    between atoms: N1_2  and  C3_4 
REMARK    2  A    between atoms: C5_11  and  N4_12 
REMARK    3  A    between atoms: C6_15  and  C7_16 
ROOT
HETATM    1  C3  UNL     1      -0.051   3.894  15.768  1.00  0.00     0.119 A 
HETATM    2  N2  UNL     1       0.848   2.888  15.453  1.00  0.00    -0.294 N 
ATOM      3  H2  UNL     1       1.435   2.985  14.625  1.00  0.00     0.172 HD
HETATM    4  C4  UNL     1       0.961   1.803  16.202  1.00  0.00     0.327 A 
HETATM    5  O1  UNL     1       1.800   0.887  15.889  1.00  0.00    -0.247 OA
HETATM    6  N3  UNL     1       0.183   1.691  17.284  1.00  0.00    -0.294 N 
ATOM      7  H3  UNL     1       0.263   0.857  17.866  1.00  0.00     0.172 HD
HETATM    8  C5  UNL     1      -0.698   2.640  17.625  1.00  0.00     0.115 A 
HETATM    9  C6  UNL     1      -0.851   3.813  16.852  1.00  0.00     0.062 A 
ENDROOT
BRANCH   9  10
HETATM   10  C7  UNL     1      -1.798   4.789  17.279  1.00  0.00     0.232 A 
HETATM   11  C8  UNL     1      -1.240   6.005  17.909  1.00  0.00     0.139 A 
HETATM   12  N5  UNL     1      -0.195   6.018  18.889  1.00  0.00    -0.084 NA
HETATM   13  N6  UNL     1      -1.874   7.016  17.455  1.00  0.00    -0.178 N 
HETATM   14  C9  UNL     1      -2.853   6.577  16.532  1.00  0.00     0.702 A 
ATOM     15  H6  UNL     1      -1.701   7.988  17.716  1.00  0.00     0.185 HD
HETATM   16  N7  UNL     1      -3.822   7.060  15.731  1.00  0.00    -0.185 N 
HETATM   17  N9  UNL     1      -2.824   5.243  16.407  1.00  0.00    -0.106 N 
HETATM   18  C10 UNL     1      -4.362   5.995  15.135  1.00  0.00     0.215 A 
ATOM     19  H7  UNL     1      -4.089   8.036  15.606  1.00  0.00     0.185 HD
HETATM   20  N8  UNL     1      -3.743   4.906  15.559  1.00  0.00    -0.278 N 
ATOM     21  H8  UNL     1      -3.956   3.952  15.265  1.00  0.00     0.188 HD
ENDBRANCH   9  10
BRANCH   1  22
HETATM   22  N1  UNL     1      -0.060   4.953  14.867  1.00  0.00    -0.375 N 
HETATM   23  C1  UNL     1       0.727   6.134  15.089  1.00  0.00     0.150 C 
HETATM   24  C2  UNL     1      -0.806   4.873  13.637  1.00  0.00     0.150 C 
ENDBRANCH   1  22
BRANCH   8  25
HETATM   25  N4  UNL     1      -1.432   2.503  18.668  1.00  0.00    -0.385 N 
ATOM     26  H42 UNL     1      -1.211   3.066  19.489  1.00  0.00     0.157 HD
ATOM     27  H41 UNL     1      -2.214   1.848  18.667  1.00  0.00     0.157 HD
ENDBRANCH   8  25
TORSDOF 3
ENDMDL
MODEL 4
REMARK VINA RESULT: -6.833452470      2.660      4.908
REMARK  3 active torsions:
REMARK  status: ('A' for Active; 'I' for Inactive)
REMARK    1  A    between atoms: N1_2  and  C3_4 
REMARK    2  A    between atoms: C5_11  and  N4_12 
REMARK    3  A    between atoms: C6_15  and  C7_16 
ROOT
HETATM    1  C3  UNL     1      -1.308   5.269  14.288  1.00  0.00     0.119 A 
HETATM    2  N2  UNL     1      -1.299   3.914  14.577  1.00  0.00    -0.294 N 
ATOM      3  H2  UNL     1      -0.412   3.412  14.587  1.00  0.00     0.172 HD
HETATM    4  C4  UNL     1      -2.417   3.256  14.840  1.00  0.00     0.327 A 
HETATM    5  O1  UNL     1      -2.382   2.003  15.103  1.00  0.00    -0.247 OA
HETATM    6  N3  UNL     1      -3.573   3.929  14.822  1.00  0.00    -0.294 N 
ATOM      7  H3  UNL     1      -4.440   3.430  15.022  1.00  0.00     0.172 HD
HETATM    8  C5  UNL     1      -3.625   5.240  14.548  1.00  0.00     0.115 A 
HETATM    9  C6  UNL     1      -2.456   5.979  14.262  1.00  0.00     0.062 A 
ENDROOT
BRANCH   9  10
HETATM   10  C7  UNL     1      -2.582   7.372  13.992  1.00  0.00     0.232 A 
HETATM   11  C8  UNL     1      -2.123   8.286  15.061  1.00  0.00     0.139 A 
HETATM   12  N5  UNL     1      -2.409   8.129  16.455  1.00  0.00    -0.084 NA
HETATM   13  N6  UNL     1      -1.470   9.240  14.517  1.00  0.00    -0.178 N 
HETATM   14  C9  UNL     1      -1.443   9.046  13.115  1.00  0.00     0.702 A 
ATOM     15  H6  UNL     1      -1.037  10.018  15.014  1.00  0.00     0.185 HD
HETATM   16  N7  UNL     1      -0.974   9.622  11.991  1.00  0.00    -0.185 N 
HETATM   17  N9  UNL     1      -2.101   7.929  12.777  1.00  0.00    -0.106 N 
HETATM   18  C10 UNL     1      -1.364   8.832  10.990  1.00  0.00     0.215 A 
ATOM     19  H7  UNL     1      -0.433  10.484  11.921  1.00  0.00     0.185 HD
HETATM   20  N8  UNL     1      -2.045   7.813  11.487  1.00  0.00    -0.278 N 
ATOM     21  H8  UNL     1      -2.461   7.057  10.942  1.00  0.00     0.188 HD
ENDBRANCH   9  10
BRANCH   1  22
HETATM   22  N1  UNL     1      -0.053   5.801  14.015  1.00  0.00    -0.375 N 
HETATM   23  C1  UNL     1       0.760   6.376  15.050  1.00  0.00     0.150 C 
HETATM   24  C2  UNL     1       0.510   5.729  12.690  1.00  0.00     0.150 C 
ENDBRANCH   1  22
BRANCH   8  25
HETATM   25  N4  UNL     1      -4.750   5.857  14.537  1.00  0.00    -0.385 N 
ATOM     26  H42 UNL     1      -5.101   6.233  15.417  1.00  0.00     0.157 HD
ATOM     27  H41 UNL     1      -5.270   5.968  13.667  1.00  0.00     0.157 HD
ENDBRANCH   8  25
TORSDOF 3
ENDMDL
MODEL 5
REMARK VINA RESULT: -6.695827731      2.813      4.563
REMARK  3 active torsions:
REMARK  status: ('A' for Active; 'I' for Inactive)
REMARK    1  A    between atoms: N1_2  and  C3_4 
REMARK    2  A    between atoms: C5_11  and  N4_12 
REMARK    3  A    between atoms: C6_15  and  C7_16 
ROOT
HETATM    1  C3  UNL     1      -1.207   3.517  15.645  1.00  0.00     0.119 A 
HETATM    2  N2  UNL     1      -0.759   2.206  15.688  1.00  0.00    -0.294 N 
ATOM      3  H2  UNL     1      -1.106   1.538  15.000  1.00  0.00     0.172 HD
HETATM    4  C4  UNL     1       0.109   1.802  16.601  1.00  0.00     0.327 A 
HETATM    5  O1  UNL     1       0.507   0.585  16.620  1.00  0.00    -0.247 OA
HETATM    6  N3  UNL     1       0.554   2.691  17.497  1.00  0.00    -0.294 N 
ATOM      7  H3  UNL     1       1.222   2.388  18.205  1.00  0.00     0.172 HD
HETATM    8  C5  UNL     1       0.146   3.968  17.490  1.00  0.00     0.115 A 
HETATM    9  C6  UNL     1      -0.779   4.439  16.532  1.00  0.00     0.062 A 
ENDROOT
BRANCH   9  10
HETATM   10  C7  UNL     1      -1.159   5.812  16.575  1.00  0.00     0.232 A 
HETATM   11  C8  UNL     1      -0.685   6.654  15.454  1.00  0.00     0.139 A 
HETATM   12  N5  UNL     1       0.642   6.630  14.914  1.00  0.00    -0.084 NA
HETATM   13  N6  UNL     1      -1.644   7.413  15.091  1.00  0.00    -0.178 N 
HETATM   14  C9  UNL     1      -2.778   7.151  15.899  1.00  0.00     0.702 A 
ATOM     15  H6  UNL     1      -1.602   8.101  14.339  1.00  0.00     0.185 HD
HETATM   16  N7  UNL     1      -4.051   7.555  16.072  1.00  0.00    -0.185 N 
HETATM   17  N9  UNL     1      -2.511   6.190  16.794  1.00  0.00    -0.106 N 
HETATM   18  C10 UNL     1      -4.528   6.823  17.079  1.00  0.00     0.215 A 
ATOM     19  H7  UNL     1      -4.546   8.273  15.544  1.00  0.00     0.185 HD
HETATM   20  N8  UNL     1      -3.580   6.003  17.502  1.00  0.00    -0.278 N 
ATOM     21  H8  UNL     1      -3.675   5.331  18.264  1.00  0.00     0.188 HD
ENDBRANCH   9  10
BRANCH   1  22
HETATM   22  N1  UNL     1      -2.132   3.769  14.638  1.00  0.00    -0.375 N 
HETATM   23  C1  UNL     1      -1.718   4.155  13.318  1.00  0.00     0.150 C 
HETATM   24  C2  UNL     1      -3.543   3.583  14.865  1.00  0.00     0.150 C 
ENDBRANCH   1  22
BRANCH   8  25
HETATM   25  N4  UNL     1       0.590   4.796  18.363  1.00  0.00    -0.385 N 
ATOM     26  H42 UNL     1       1.296   4.469  19.022  1.00  0.00     0.157 HD
ATOM     27  H41 UNL     1       0.244   5.755  18.389  1.00  0.00     0.157 HD
ENDBRANCH   8  25
TORSDOF 3
ENDMDL
