MODEL 1
REMARK VINA RESULT: -8.914792667      0.000      0.000
REMARK  4 active torsions:
REMARK  status: ('A' for Active; 'I' for Inactive)
REMARK    1  A    between atoms: C3_6  and  N2_7 
REMARK    2  A    between atoms: N3_10  and  C6_11 
REMARK    3  A    between atoms: C6_11  and  N4_12 
REMARK    4  A    between atoms: C7_19  and  N8_20 
ROOT
HETATM    1  N2  UNL     1      -1.312   7.221  13.673  1.00  0.00    -0.358 N 
HETATM    2  C4  UNL     1      -2.285   7.766  12.790  1.00  0.00     0.169 C 
HETATM    3  C5  UNL     1      -1.697   8.842  11.936  1.00  0.00     0.084 C 
HETATM    4  N3  UNL     1      -0.407   8.640  11.450  1.00  0.00    -0.352 N 
HETATM    5  C8  UNL     1       0.349   7.545  11.889  1.00  0.00     0.084 C 
HETATM    6  C9  UNL     1       0.010   6.973  13.224  1.00  0.00     0.169 C 
ENDROOT
BRANCH   4   7
HETATM    7  C6  UNL     1      -0.207   8.845  10.031  1.00  0.00     0.297 C 
BRANCH   7   8
HETATM    8  N4  UNL     1      -0.233  10.228   9.643  1.00  0.00    -0.089 N 
HETATM    9  N5  UNL     1       0.336  11.216  10.276  1.00  0.00    -0.209 N 
HETATM   10  N6  UNL     1       0.097  12.328   9.626  1.00  0.00    -0.213 N 
ATOM     11  H5  UNL     1       0.879  11.135  11.136  1.00  0.00     0.210 HD
HETATM   12  N7  UNL     1      -0.633  12.038   8.567  1.00  0.00    -0.115 N 
ATOM     13  H6  UNL     1       0.420  13.258   9.892  1.00  0.00     0.210 HD
HETATM   14  C7  UNL     1      -0.852  10.710   8.563  1.00  0.00     0.711 A 
ATOM     15  H7  UNL     1      -0.972  12.704   7.873  1.00  0.00     0.207 HD
BRANCH  14  16
HETATM   16  N8  UNL     1      -1.541  10.035   7.668  1.00  0.00    -0.232 N 
ATOM     17  H82 UNL     1      -2.420   9.542   7.825  1.00  0.00     0.174 HD
ATOM     18  H81 UNL     1      -1.309   9.895   6.685  1.00  0.00     0.174 HD
ENDBRANCH  14  16
ENDBRANCH   7   8
ENDBRANCH   4   7
BRANCH   1  19
HETATM   19  C3  UNL     1      -1.669   6.924  15.010  1.00  0.00     0.108 A 
HETATM   20  C2  UNL     1      -2.976   6.942  15.447  1.00  0.00     0.096 A 
HETATM   21  C1  UNL     1      -3.361   6.660  16.736  1.00  0.00     0.103 A 
HETATM   22  N1  UNL     1      -4.558   6.671  17.158  1.00  0.00    -0.385 N 
HETATM   23  N10 UNL     1      -2.365   6.350  17.604  1.00  0.00    -0.339 N 
ATOM     24  H12 UNL     1      -5.306   6.905  16.505  1.00  0.00     0.157 HD
ATOM     25  H11 UNL     1      -4.843   6.462  18.115  1.00  0.00     0.157 HD
HETATM   26  C10 UNL     1      -1.085   6.328  17.194  1.00  0.00     0.183 A 
ATOM     27  H10 UNL     1      -2.589   6.133  18.575  1.00  0.00     0.168 HD
HETATM   28  N9  UNL     1      -0.730   6.602  15.946  1.00  0.00    -0.339 N 
ATOM     29  H9  UNL     1       0.255   6.572  15.683  1.00  0.00     0.168 HD
ENDBRANCH   1  19
TORSDOF 4
ENDMDL
MODEL 2
REMARK VINA RESULT: -8.660286131      0.746      1.379
REMARK  4 active torsions:
REMARK  status: ('A' for Active; 'I' for Inactive)
REMARK    1  A    between atoms: C3_6  and  N2_7 
REMARK    2  A    between atoms: N3_10  and  C6_11 
REMARK    3  A    between atoms: C6_11  and  N4_12 
REMARK    4  A    between atoms: C7_19  and  N8_20 
ROOT
HETATM    1  N2  UNL     1      -1.630   7.284  13.616  1.00  0.00    -0.358 N 
HETATM    2  C4  UNL     1      -2.500   7.803  12.617  1.00  0.00     0.169 C 
HETATM    3  C5  UNL     1      -1.833   8.882  11.829  1.00  0.00     0.084 C 
HETATM    4  N3  UNL     1      -0.491   8.703  11.503  1.00  0.00    -0.352 N 
HETATM    5  C8  UNL     1       0.228   7.626  12.042  1.00  0.00     0.084 C 
HETATM    6  C9  UNL     1      -0.259   7.059  13.332  1.00  0.00     0.169 C 
ENDROOT
BRANCH   4   7
HETATM    7  C6  UNL     1      -0.125   8.900  10.117  1.00  0.00     0.297 C 
BRANCH   7   8
HETATM    8  N4  UNL     1      -0.201  10.271   9.693  1.00  0.00    -0.089 N 
HETATM    9  N5  UNL     1       0.287  11.300  10.328  1.00  0.00    -0.209 N 
HETATM   10  N6  UNL     1       0.024  12.384   9.639  1.00  0.00    -0.213 N 
ATOM     11  H5  UNL     1       0.791  11.267  11.214  1.00  0.00     0.210 HD
HETATM   12  N7  UNL     1      -0.639  12.033   8.556  1.00  0.00    -0.115 N 
ATOM     13  H6  UNL     1       0.287  13.335   9.898  1.00  0.00     0.210 HD
HETATM   14  C7  UNL     1      -0.791  10.696   8.574  1.00  0.00     0.711 A 
ATOM     15  H7  UNL     1      -0.977  12.665   7.830  1.00  0.00     0.207 HD
BRANCH  14  16
HETATM   16  N8  UNL     1      -1.401   9.966   7.666  1.00  0.00    -0.232 N 
ATOM     17  H82 UNL     1      -1.012   9.162   7.172  1.00  0.00     0.174 HD
ATOM     18  H81 UNL     1      -2.350  10.084   7.312  1.00  0.00     0.174 HD
ENDBRANCH  14  16
ENDBRANCH   7   8
ENDBRANCH   4   7
BRANCH   1  19
HETATM   19  C3  UNL     1      -2.141   6.992  14.904  1.00  0.00     0.108 A 
HETATM   20  C2  UNL     1      -1.323   6.824  16.001  1.00  0.00     0.096 A 
HETATM   21  C1  UNL     1      -1.782   6.540  17.265  1.00  0.00     0.103 A 
HETATM   22  N1  UNL     1      -1.046   6.383  18.288  1.00  0.00    -0.385 N 
HETATM   23  N10 UNL     1      -3.127   6.423  17.403  1.00  0.00    -0.339 N 
ATOM     24  H12 UNL     1      -0.036   6.471  18.184  1.00  0.00     0.157 HD
ATOM     25  H11 UNL     1      -1.387   6.172  19.226  1.00  0.00     0.157 HD
HETATM   26  C10 UNL     1      -3.937   6.583  16.342  1.00  0.00     0.183 A 
ATOM     27  H10 UNL     1      -3.525   6.211  18.318  1.00  0.00     0.168 HD
HETATM   28  N9  UNL     1      -3.479   6.858  15.129  1.00  0.00    -0.339 N 
ATOM     29  H9  UNL     1      -4.135   6.970  14.355  1.00  0.00     0.168 HD
ENDBRANCH   1  19
TORSDOF 4
ENDMDL
MODEL 3
REMARK VINA RESULT: -8.575609914      1.709      2.474
REMARK  4 active torsions:
REMARK  status: ('A' for Active; 'I' for Inactive)
REMARK    1  A    between atoms: C3_6  and  N2_7 
REMARK    2  A    between atoms: N3_10  and  C6_11 
REMARK    3  A    between atoms: C6_11  and  N4_12 
REMARK    4  A    between atoms: C7_19  and  N8_20 
ROOT
HETATM    1  N2  UNL     1      -1.395   6.693  14.956  1.00  0.00    -0.358 N 
HETATM    2  C4  UNL     1      -2.134   7.908  14.962  1.00  0.00     0.169 C 
HETATM    3  C5  UNL     1      -1.670   8.829  13.881  1.00  0.00     0.084 C 
HETATM    4  N3  UNL     1      -1.349   8.260  12.650  1.00  0.00    -0.352 N 
HETATM    5  C8  UNL     1      -1.313   6.867  12.504  1.00  0.00     0.084 C 
HETATM    6  C9  UNL     1      -1.061   6.059  13.732  1.00  0.00     0.169 C 
ENDROOT
BRANCH   4   7
HETATM    7  C6  UNL     1      -1.943   8.867  11.478  1.00  0.00     0.297 C 
BRANCH   7   8
HETATM    8  N4  UNL     1      -1.098   9.844  10.848  1.00  0.00    -0.089 N 
HETATM    9  N5  UNL     1      -0.816  11.030  11.309  1.00  0.00    -0.209 N 
HETATM   10  N6  UNL     1      -0.018  11.634  10.463  1.00  0.00    -0.213 N 
ATOM     11  H5  UNL     1      -1.160  11.424  12.185  1.00  0.00     0.210 HD
HETATM   12  N7  UNL     1       0.207  10.816   9.454  1.00  0.00    -0.115 N 
ATOM     13  H6  UNL     1       0.364  12.574  10.568  1.00  0.00     0.210 HD
HETATM   14  C7  UNL     1      -0.471   9.677   9.681  1.00  0.00     0.711 A 
ATOM     15  H7  UNL     1       0.793  11.013   8.642  1.00  0.00     0.207 HD
BRANCH  14  16
HETATM   16  N8  UNL     1      -0.502   8.617   8.902  1.00  0.00    -0.232 N 
ATOM     17  H82 UNL     1      -1.327   8.220   8.450  1.00  0.00     0.174 HD
ATOM     18  H81 UNL     1       0.283   8.028   8.627  1.00  0.00     0.174 HD
ENDBRANCH  14  16
ENDBRANCH   7   8
ENDBRANCH   4   7
BRANCH   1  19
HETATM   19  C3  UNL     1      -0.990   6.114  16.183  1.00  0.00     0.108 A 
HETATM   20  C2  UNL     1      -0.367   4.887  16.250  1.00  0.00     0.096 A 
HETATM   21  C1  UNL     1       0.039   4.293  17.421  1.00  0.00     0.103 A 
HETATM   22  N1  UNL     1       0.615   3.165  17.504  1.00  0.00    -0.385 N 
HETATM   23  N10 UNL     1      -0.205   4.988  18.561  1.00  0.00    -0.339 N 
ATOM     24  H12 UNL     1       0.798   2.643  16.647  1.00  0.00     0.157 HD
ATOM     25  H11 UNL     1       0.916   2.725  18.374  1.00  0.00     0.157 HD
HETATM   26  C10 UNL     1      -0.811   6.187  18.512  1.00  0.00     0.183 A 
ATOM     27  H10 UNL     1       0.074   4.598  19.461  1.00  0.00     0.168 HD
HETATM   28  N9  UNL     1      -1.198   6.746  17.374  1.00  0.00    -0.339 N 
ATOM     29  H9  UNL     1      -1.654   7.658  17.389  1.00  0.00     0.168 HD
ENDBRANCH   1  19
TORSDOF 4
ENDMDL
MODEL 4
REMARK VINA RESULT: -8.570748267      0.629      1.252
REMARK  4 active torsions:
REMARK  status: ('A' for Active; 'I' for Inactive)
REMARK    1  A    between atoms: C3_6  and  N2_7 
REMARK    2  A    between atoms: N3_10  and  C6_11 
REMARK    3  A    between atoms: C6_11  and  N4_12 
REMARK    4  A    between atoms: C7_19  and  N8_20 
ROOT
HETATM    1  N2  UNL     1      -1.269   7.831  13.339  1.00  0.00    -0.358 N 
HETATM    2  C4  UNL     1       0.097   7.887  12.947  1.00  0.00     0.169 C 
HETATM    3  C5  UNL     1       0.266   7.485  11.519  1.00  0.00     0.084 C 
HETATM    4  N3  UNL     1      -0.696   7.922  10.611  1.00  0.00    -0.352 N 
HETATM    5  C8  UNL     1      -1.852   8.571  11.067  1.00  0.00     0.084 C 
HETATM    6  C9  UNL     1      -2.289   8.284  12.464  1.00  0.00     0.169 C 
ENDROOT
BRANCH   4   7
HETATM    7  C6  UNL     1      -0.212   8.558   9.405  1.00  0.00     0.297 C 
BRANCH   7   8
HETATM    8  N4  UNL     1      -0.184   9.993   9.486  1.00  0.00    -0.089 N 
HETATM    9  N5  UNL     1       0.350  10.699  10.443  1.00  0.00    -0.209 N 
HETATM   10  N6  UNL     1       0.181  11.971  10.174  1.00  0.00    -0.213 N 
ATOM     11  H5  UNL     1       0.822  10.324  11.266  1.00  0.00     0.210 HD
HETATM   12  N7  UNL     1      -0.468  12.067   9.031  1.00  0.00    -0.115 N 
ATOM     13  H6  UNL     1       0.498  12.751  10.750  1.00  0.00     0.210 HD
HETATM   14  C7  UNL     1      -0.709  10.823   8.581  1.00  0.00     0.711 A 
ATOM     15  H7  UNL     1      -0.741  12.935   8.569  1.00  0.00     0.207 HD
BRANCH  14  16
HETATM   16  N8  UNL     1      -1.336  10.500   7.471  1.00  0.00    -0.232 N 
ATOM     17  H82 UNL     1      -1.018   9.835   6.766  1.00  0.00     0.174 HD
ATOM     18  H81 UNL     1      -2.231  10.858   7.139  1.00  0.00     0.174 HD
ENDBRANCH  14  16
ENDBRANCH   7   8
ENDBRANCH   4   7
BRANCH   1  19
HETATM   19  C3  UNL     1      -1.611   7.316  14.613  1.00  0.00     0.108 A 
HETATM   20  C2  UNL     1      -2.893   7.384  15.116  1.00  0.00     0.096 A 
HETATM   21  C1  UNL     1      -3.262   6.896  16.347  1.00  0.00     0.103 A 
HETATM   22  N1  UNL     1      -4.435   6.949  16.828  1.00  0.00    -0.385 N 
HETATM   23  N10 UNL     1      -2.279   6.321  17.084  1.00  0.00    -0.339 N 
ATOM     24  H12 UNL     1      -5.174   7.382  16.275  1.00  0.00     0.157 HD
ATOM     25  H11 UNL     1      -4.709   6.587  17.742  1.00  0.00     0.157 HD
HETATM   26  C10 UNL     1      -1.023   6.246  16.606  1.00  0.00     0.183 A 
ATOM     27  H10 UNL     1      -2.492   5.942  18.006  1.00  0.00     0.168 HD
HETATM   28  N9  UNL     1      -0.683   6.722  15.416  1.00  0.00    -0.339 N 
ATOM     29  H9  UNL     1       0.283   6.642  15.098  1.00  0.00     0.168 HD
ENDBRANCH   1  19
TORSDOF 4
ENDMDL
MODEL 5
REMARK VINA RESULT: -8.557283728      0.997      1.693
REMARK  4 active torsions:
REMARK  status: ('A' for Active; 'I' for Inactive)
REMARK    1  A    between atoms: C3_6  and  N2_7 
REMARK    2  A    between atoms: N3_10  and  C6_11 
REMARK    3  A    between atoms: C6_11  and  N4_12 
REMARK    4  A    between atoms: C7_19  and  N8_20 
ROOT
HETATM    1  N2  UNL     1      -0.839   7.010  13.716  1.00  0.00    -0.358 N 
HETATM    2  C4  UNL     1      -1.941   7.556  13.002  1.00  0.00     0.169 C 
HETATM    3  C5  UNL     1      -1.506   8.665  12.101  1.00  0.00     0.084 C 
HETATM    4  N3  UNL     1      -0.299   8.504  11.424  1.00  0.00    -0.352 N 
HETATM    5  C8  UNL     1       0.533   7.414  11.715  1.00  0.00     0.084 C 
HETATM    6  C9  UNL     1       0.407   6.802  13.069  1.00  0.00     0.169 C 
ENDROOT
BRANCH   4   7
HETATM    7  C6  UNL     1      -0.316   8.748   9.997  1.00  0.00     0.297 C 
BRANCH   7   8
HETATM    8  N4  UNL     1      -0.299  10.144   9.655  1.00  0.00    -0.089 N 
HETATM    9  N5  UNL     1       0.318  11.088  10.308  1.00  0.00    -0.209 N 
HETATM   10  N6  UNL     1       0.106  12.230   9.699  1.00  0.00    -0.213 N 
ATOM     11  H5  UNL     1       0.874  10.960  11.154  1.00  0.00     0.210 HD
HETATM   12  N7  UNL     1      -0.654  12.001   8.647  1.00  0.00    -0.115 N 
ATOM     13  H6  UNL     1       0.468  13.138   9.989  1.00  0.00     0.210 HD
HETATM   14  C7  UNL     1      -0.922  10.683   8.604  1.00  0.00     0.711 A 
ATOM     15  H7  UNL     1      -0.983  12.701   7.982  1.00  0.00     0.207 HD
BRANCH  14  16
HETATM   16  N8  UNL     1      -1.651  10.063   7.703  1.00  0.00    -0.232 N 
ATOM     17  H82 UNL     1      -2.666   9.952   7.715  1.00  0.00     0.174 HD
ATOM     18  H81 UNL     1      -1.325   9.597   6.856  1.00  0.00     0.174 HD
ENDBRANCH  14  16
ENDBRANCH   7   8
ENDBRANCH   4   7
BRANCH   1  19
HETATM   19  C3  UNL     1      -0.988   6.672  15.083  1.00  0.00     0.108 A 
HETATM   20  C2  UNL     1      -0.119   5.822  15.732  1.00  0.00     0.096 A 
HETATM   21  C1  UNL     1      -0.231   5.472  17.056  1.00  0.00     0.103 A 
HETATM   22  N1  UNL     1       0.558   4.691  17.672  1.00  0.00    -0.385 N 
HETATM   23  N10 UNL     1      -1.274   6.014  17.733  1.00  0.00    -0.339 N 
ATOM     24  H12 UNL     1       1.342   4.283  17.163  1.00  0.00     0.157 HD
ATOM     25  H11 UNL     1       0.474   4.431  18.655  1.00  0.00     0.157 HD
HETATM   26  C10 UNL     1      -2.131   6.846  17.114  1.00  0.00     0.183 A 
ATOM     27  H10 UNL     1      -1.410   5.790  18.719  1.00  0.00     0.168 HD
HETATM   28  N9  UNL     1      -2.008   7.175  15.836  1.00  0.00    -0.339 N 
ATOM     29  H9  UNL     1      -2.684   7.810  15.411  1.00  0.00     0.168 HD
ENDBRANCH   1  19
TORSDOF 4
ENDMDL
