MODEL 1
REMARK VINA RESULT: -8.490484462      0.000      0.000
REMARK  5 active torsions:
REMARK  status: ('A' for Active; 'I' for Inactive)
REMARK    1  A    between atoms: N1_1  and  C1_4 
REMARK    2  A    between atoms: C2_7  and  C3_8 
REMARK    3  A    between atoms: C3_8  and  S1_9 
REMARK    4  A    between atoms: S1_9  and  C4_10 
REMARK    5  A    between atoms: N9_26  and  O2_27 
ROOT
HETATM    1  C1  UNL     1      -2.204   8.819   9.803  1.00  0.00     0.713 A 
HETATM    2  N2  UNL     1      -2.294   8.478  11.103  1.00  0.00    -0.177 N 
ATOM      3  H2  UNL     1      -2.915   7.713  11.363  1.00  0.00     0.185 HD
HETATM    4  C2  UNL     1      -1.603   9.099  12.072  1.00  0.00     0.123 A 
HETATM    5  N6  UNL     1      -0.786  10.109  11.715  1.00  0.00    -0.174 N 
ATOM      6  H6  UNL     1      -0.251  10.597  12.435  1.00  0.00     0.185 HD
HETATM    7  C6  UNL     1      -0.659  10.489  10.427  1.00  0.00     0.751 A 
HETATM    8  N7  UNL     1      -1.373   9.834   9.499  1.00  0.00     0.096 N 
HETATM    9  N8  UNL     1      -1.094  10.373   8.302  1.00  0.00    -0.213 N 
ATOM     10  H8  UNL     1      -1.483  10.089   7.403  1.00  0.00     0.193 HD
HETATM   11  C7  UNL     1      -0.208  11.359   8.512  1.00  0.00     0.382 A 
HETATM   12  O1  UNL     1       0.283  12.089   7.617  1.00  0.00    -0.242 OA
HETATM   13  N9  UNL     1       0.077  11.450   9.820  1.00  0.00     0.008 N 
ENDROOT
BRANCH   4  14
HETATM   14  C3  UNL     1      -1.725   8.698  13.497  1.00  0.00     0.160 C 
BRANCH  14  15
HETATM   15  S1  UNL     1      -2.550   7.088  13.599  1.00  0.00    -0.085 SA
BRANCH  15  16
HETATM   16  C4  UNL     1      -2.984   6.685  15.284  1.00  0.00     0.160 A 
HETATM   17  N3  UNL     1      -2.373   5.909  16.170  1.00  0.00    -0.331 N 
HETATM   18  C5  UNL     1      -3.058   5.892  17.332  1.00  0.00     0.199 A 
ATOM     19  H3  UNL     1      -1.507   5.399  15.997  1.00  0.00     0.168 HD
HETATM   20  N4  UNL     1      -4.121   6.696  17.113  1.00  0.00    -0.294 N 
HETATM   21  N5  UNL     1      -4.081   7.175  15.887  1.00  0.00    -0.279 N 
ATOM     22  H4  UNL     1      -4.849   6.903  17.797  1.00  0.00     0.187 HD
ATOM     23  H5  UNL     1      -4.762   7.807  15.467  1.00  0.00     0.189 HD
ENDBRANCH  15  16
ENDBRANCH  14  15
ENDBRANCH   4  14
BRANCH   1  24
HETATM   24  N1  UNL     1      -2.888   8.194   8.900  1.00  0.00    -0.232 N 
ATOM     25  H12 UNL     1      -3.497   7.408   9.126  1.00  0.00     0.174 HD
ATOM     26  H11 UNL     1      -2.841   8.469   7.919  1.00  0.00     0.174 HD
ENDBRANCH   1  24
BRANCH  13  27
HETATM   27  O2  UNL     1       0.935  12.326  10.447  1.00  0.00    -0.265 OA
ATOM     28  H2  UNL     1       0.703  13.180  10.794  1.00  0.00     0.246 HD
ENDBRANCH  13  27
TORSDOF 5
ENDMDL
MODEL 2
REMARK VINA RESULT: -8.442020416      1.335      1.335
REMARK  5 active torsions:
REMARK  status: ('A' for Active; 'I' for Inactive)
REMARK    1  A    between atoms: N1_1  and  C1_4 
REMARK    2  A    between atoms: C2_7  and  C3_8 
REMARK    3  A    between atoms: C3_8  and  S1_9 
REMARK    4  A    between atoms: S1_9  and  C4_10 
REMARK    5  A    between atoms: N9_26  and  O2_27 
ROOT
HETATM    1  C1  UNL     1      -0.975   7.282  10.105  1.00  0.00     0.713 A 
HETATM    2  N2  UNL     1      -0.944   7.010  11.424  1.00  0.00    -0.177 N 
ATOM      3  H2  UNL     1      -1.136   6.056  11.728  1.00  0.00     0.185 HD
HETATM    4  C2  UNL     1      -0.673   7.937  12.357  1.00  0.00     0.123 A 
HETATM    5  N6  UNL     1      -0.422   9.193  11.942  1.00  0.00    -0.174 N 
ATOM      6  H6  UNL     1      -0.214   9.915  12.633  1.00  0.00     0.185 HD
HETATM    7  C6  UNL     1      -0.439   9.518  10.633  1.00  0.00     0.751 A 
HETATM    8  N7  UNL     1      -0.716   8.553   9.744  1.00  0.00     0.096 N 
HETATM    9  N8  UNL     1      -0.679   9.095   8.516  1.00  0.00    -0.213 N 
ATOM     10  H8  UNL     1      -0.848   8.612   7.634  1.00  0.00     0.193 HD
HETATM   11  C7  UNL     1      -0.380  10.394   8.670  1.00  0.00     0.382 A 
HETATM   12  O1  UNL     1      -0.260  11.221   7.733  1.00  0.00    -0.242 OA
HETATM   13  N9  UNL     1      -0.226  10.680   9.971  1.00  0.00     0.008 N 
ENDROOT
BRANCH   4  14
HETATM   14  C3  UNL     1      -0.647   7.603  13.804  1.00  0.00     0.160 C 
BRANCH  14  15
HETATM   15  S1  UNL     1      -1.983   8.490  14.649  1.00  0.00    -0.085 SA
BRANCH  15  16
HETATM   16  C4  UNL     1      -2.815   7.441  15.830  1.00  0.00     0.160 A 
HETATM   17  N3  UNL     1      -2.429   6.304  16.396  1.00  0.00    -0.331 N 
HETATM   18  C5  UNL     1      -3.383   5.851  17.237  1.00  0.00     0.199 A 
ATOM     19  H3  UNL     1      -1.539   5.839  16.221  1.00  0.00     0.168 HD
HETATM   20  N4  UNL     1      -4.372   6.767  17.157  1.00  0.00    -0.294 N 
HETATM   21  N5  UNL     1      -4.036   7.722  16.315  1.00  0.00    -0.279 N 
ATOM     22  H4  UNL     1      -5.251   6.724  17.672  1.00  0.00     0.187 HD
ATOM     23  H5  UNL     1      -4.604   8.535  16.073  1.00  0.00     0.189 HD
ENDBRANCH  15  16
ENDBRANCH  14  15
ENDBRANCH   4  14
BRANCH   1  24
HETATM   24  N1  UNL     1      -1.240   6.359   9.239  1.00  0.00    -0.232 N 
ATOM     25  H12 UNL     1      -1.412   5.391   9.511  1.00  0.00     0.174 HD
ATOM     26  H11 UNL     1      -1.288   6.570   8.242  1.00  0.00     0.174 HD
ENDBRANCH   1  24
BRANCH  13  27
HETATM   27  O2  UNL     1       0.084  11.892  10.547  1.00  0.00    -0.265 OA
ATOM     28  H2  UNL     1       0.960  12.228  10.699  1.00  0.00     0.246 HD
ENDBRANCH  13  27
TORSDOF 5
ENDMDL
MODEL 3
REMARK VINA RESULT: -8.423840318      0.990      1.006
REMARK  5 active torsions:
REMARK  status: ('A' for Active; 'I' for Inactive)
REMARK    1  A    between atoms: N1_1  and  C1_4 
REMARK    2  A    between atoms: C2_7  and  C3_8 
REMARK    3  A    between atoms: C3_8  and  S1_9 
REMARK    4  A    between atoms: S1_9  and  C4_10 
REMARK    5  A    between atoms: N9_26  and  O2_27 
ROOT
HETATM    1  C1  UNL     1      -1.509   8.234  10.088  1.00  0.00     0.713 A 
HETATM    2  N2  UNL     1      -1.767   8.074  11.400  1.00  0.00    -0.177 N 
ATOM      3  H2  UNL     1      -2.239   7.223  11.702  1.00  0.00     0.185 HD
HETATM    4  C2  UNL     1      -1.431   8.984  12.329  1.00  0.00     0.123 A 
HETATM    5  N6  UNL     1      -0.808  10.104  11.917  1.00  0.00    -0.174 N 
ATOM      6  H6  UNL     1      -0.544  10.811  12.605  1.00  0.00     0.185 HD
HETATM    7  C6  UNL     1      -0.525  10.313  10.615  1.00  0.00     0.751 A 
HETATM    8  N7  UNL     1      -0.883   9.372   9.729  1.00  0.00     0.096 N 
HETATM    9  N8  UNL     1      -0.509   9.785   8.508  1.00  0.00    -0.213 N 
ATOM     10  H8  UNL     1      -0.644   9.284   7.630  1.00  0.00     0.193 HD
HETATM   11  C7  UNL     1       0.077  10.983   8.661  1.00  0.00     0.382 A 
HETATM   12  O1  UNL     1       0.554  11.675   7.730  1.00  0.00    -0.242 OA
HETATM   13  N9  UNL     1       0.079  11.331   9.957  1.00  0.00     0.008 N 
ENDROOT
BRANCH   4  14
HETATM   14  C3  UNL     1      -1.731   8.776  13.769  1.00  0.00     0.160 C 
BRANCH  14  15
HETATM   15  S1  UNL     1      -0.819   7.330  14.370  1.00  0.00    -0.085 SA
BRANCH  15  16
HETATM   16  C4  UNL     1      -1.515   6.708  15.892  1.00  0.00     0.160 A 
HETATM   17  N3  UNL     1      -0.970   5.971  16.852  1.00  0.00    -0.331 N 
HETATM   18  C5  UNL     1      -1.870   5.731  17.828  1.00  0.00     0.199 A 
ATOM     19  H3  UNL     1      -0.008   5.635  16.852  1.00  0.00     0.168 HD
HETATM   20  N4  UNL     1      -2.994   6.357  17.418  1.00  0.00    -0.294 N 
HETATM   21  N5  UNL     1      -2.787   6.945  16.258  1.00  0.00    -0.279 N 
ATOM     22  H4  UNL     1      -3.875   6.373  17.931  1.00  0.00     0.187 HD
ATOM     23  H5  UNL     1      -3.471   7.486  15.729  1.00  0.00     0.189 HD
ENDBRANCH  15  16
ENDBRANCH  14  15
ENDBRANCH   4  14
BRANCH   1  24
HETATM   24  N1  UNL     1      -1.849   7.333   9.225  1.00  0.00    -0.232 N 
ATOM     25  H12 UNL     1      -2.114   6.388   9.502  1.00  0.00     0.174 HD
ATOM     26  H11 UNL     1      -1.865   7.539   8.227  1.00  0.00     0.174 HD
ENDBRANCH   1  24
BRANCH  13  27
HETATM   27  O2  UNL     1       0.582  12.478  10.531  1.00  0.00    -0.265 OA
ATOM     28  H2  UNL     1       1.215  12.514  11.239  1.00  0.00     0.246 HD
ENDBRANCH  13  27
TORSDOF 5
ENDMDL
MODEL 4
REMARK VINA RESULT: -8.271029095      3.910      7.912
REMARK  5 active torsions:
REMARK  status: ('A' for Active; 'I' for Inactive)
REMARK    1  A    between atoms: N1_1  and  C1_4 
REMARK    2  A    between atoms: C2_7  and  C3_8 
REMARK    3  A    between atoms: C3_8  and  S1_9 
REMARK    4  A    between atoms: S1_9  and  C4_10 
REMARK    5  A    between atoms: N9_26  and  O2_27 
ROOT
HETATM    1  C1  UNL     1      -2.462   8.519  15.767  1.00  0.00     0.713 A 
HETATM    2  N2  UNL     1      -1.896   8.793  14.576  1.00  0.00    -0.177 N 
ATOM      3  H2  UNL     1      -2.014   9.727  14.185  1.00  0.00     0.185 HD
HETATM    4  C2  UNL     1      -1.183   7.893  13.880  1.00  0.00     0.123 A 
HETATM    5  N6  UNL     1      -1.034   6.662  14.408  1.00  0.00    -0.174 N 
ATOM      6  H6  UNL     1      -0.497   5.961  13.896  1.00  0.00     0.185 HD
HETATM    7  C6  UNL     1      -1.580   6.337  15.597  1.00  0.00     0.751 A 
HETATM    8  N7  UNL     1      -2.282   7.275  16.250  1.00  0.00     0.096 N 
HETATM    9  N8  UNL     1      -2.729   6.738  17.397  1.00  0.00    -0.213 N 
ATOM     10  H8  UNL     1      -3.293   7.205  18.107  1.00  0.00     0.193 HD
HETATM   11  C7  UNL     1      -2.292   5.470  17.432  1.00  0.00     0.382 A 
HETATM   12  O1  UNL     1      -2.516   4.656  18.362  1.00  0.00    -0.242 OA
HETATM   13  N9  UNL     1      -1.578   5.198  16.330  1.00  0.00     0.008 N 
ENDROOT
BRANCH   4  14
HETATM   14  C3  UNL     1      -0.571   8.228  12.568  1.00  0.00     0.160 C 
BRANCH  14  15
HETATM   15  S1  UNL     1      -1.841   8.911  11.471  1.00  0.00    -0.085 SA
BRANCH  15  16
HETATM   16  C4  UNL     1      -1.175  10.198  10.428  1.00  0.00     0.160 A 
HETATM   17  N3  UNL     1       0.065  10.653  10.304  1.00  0.00    -0.331 N 
HETATM   18  C5  UNL     1       0.114  11.642   9.388  1.00  0.00     0.199 A 
ATOM     19  H3  UNL     1       0.868  10.303  10.827  1.00  0.00     0.168 HD
HETATM   20  N4  UNL     1      -1.159  11.772   8.957  1.00  0.00    -0.294 N 
HETATM   21  N5  UNL     1      -1.936  10.907   9.577  1.00  0.00    -0.279 N 
ATOM     22  H4  UNL     1      -1.473  12.441   8.254  1.00  0.00     0.187 HD
ATOM     23  H5  UNL     1      -2.940  10.795   9.436  1.00  0.00     0.189 HD
ENDBRANCH  15  16
ENDBRANCH  14  15
ENDBRANCH   4  14
BRANCH   1  24
HETATM   24  N1  UNL     1      -3.142   9.416  16.405  1.00  0.00    -0.232 N 
ATOM     25  H12 UNL     1      -4.118   9.614  16.189  1.00  0.00     0.174 HD
ATOM     26  H11 UNL     1      -2.719   9.961  17.156  1.00  0.00     0.174 HD
ENDBRANCH   1  24
BRANCH  13  27
HETATM   27  O2  UNL     1      -0.959   4.017  15.984  1.00  0.00    -0.265 OA
ATOM     28  H2  UNL     1      -1.391   3.183  15.841  1.00  0.00     0.246 HD
ENDBRANCH  13  27
TORSDOF 5
ENDMDL
MODEL 5
REMARK VINA RESULT: -8.252445687      1.199      1.583
REMARK  5 active torsions:
REMARK  status: ('A' for Active; 'I' for Inactive)
REMARK    1  A    between atoms: N1_1  and  C1_4 
REMARK    2  A    between atoms: C2_7  and  C3_8 
REMARK    3  A    between atoms: C3_8  and  S1_9 
REMARK    4  A    between atoms: S1_9  and  C4_10 
REMARK    5  A    between atoms: N9_26  and  O2_27 
ROOT
HETATM    1  C1  UNL     1      -2.190   8.815   9.769  1.00  0.00     0.713 A 
HETATM    2  N2  UNL     1      -2.297   8.478  11.069  1.00  0.00    -0.177 N 
ATOM      3  H2  UNL     1      -2.921   7.713  11.323  1.00  0.00     0.185 HD
HETATM    4  C2  UNL     1      -1.620   9.103  12.045  1.00  0.00     0.123 A 
HETATM    5  N6  UNL     1      -0.800  10.113  11.697  1.00  0.00    -0.174 N 
ATOM      6  H6  UNL     1      -0.276  10.603  12.422  1.00  0.00     0.185 HD
HETATM    7  C6  UNL     1      -0.656  10.489  10.410  1.00  0.00     0.751 A 
HETATM    8  N7  UNL     1      -1.356   9.830   9.474  1.00  0.00     0.096 N 
HETATM    9  N8  UNL     1      -1.062  10.367   8.279  1.00  0.00    -0.213 N 
ATOM     10  H8  UNL     1      -1.438  10.079   7.376  1.00  0.00     0.193 HD
HETATM   11  C7  UNL     1      -0.181  11.354   8.499  1.00  0.00     0.382 A 
HETATM   12  O1  UNL     1       0.321  12.082   7.608  1.00  0.00    -0.242 OA
HETATM   13  N9  UNL     1       0.086  11.449   9.809  1.00  0.00     0.008 N 
ENDROOT
BRANCH   4  14
HETATM   14  C3  UNL     1      -1.761   8.706  13.470  1.00  0.00     0.160 C 
BRANCH  14  15
HETATM   15  S1  UNL     1      -0.544   7.422  13.859  1.00  0.00    -0.085 SA
BRANCH  15  16
HETATM   16  C4  UNL     1      -0.770   6.792  15.514  1.00  0.00     0.160 A 
HETATM   17  N3  UNL     1      -1.636   7.138  16.458  1.00  0.00    -0.331 N 
HETATM   18  C5  UNL     1      -1.448   6.390  17.566  1.00  0.00     0.199 A 
ATOM     19  H3  UNL     1      -2.344   7.865  16.361  1.00  0.00     0.168 HD
HETATM   20  N4  UNL     1      -0.422   5.569  17.253  1.00  0.00    -0.294 N 
HETATM   21  N5  UNL     1      -0.013   5.805  16.024  1.00  0.00    -0.279 N 
ATOM     22  H4  UNL     1      -0.023   4.868  17.878  1.00  0.00     0.187 HD
ATOM     23  H5  UNL     1       0.747   5.324  15.542  1.00  0.00     0.189 HD
ENDBRANCH  15  16
ENDBRANCH  14  15
ENDBRANCH   4  14
BRANCH   1  24
HETATM   24  N1  UNL     1      -2.861   8.186   8.859  1.00  0.00    -0.232 N 
ATOM     25  H12 UNL     1      -2.673   7.213   8.620  1.00  0.00     0.174 HD
ATOM     26  H11 UNL     1      -3.609   8.649   8.342  1.00  0.00     0.174 HD
ENDBRANCH   1  24
BRANCH  13  27
HETATM   27  O2  UNL     1       0.935  12.329  10.445  1.00  0.00    -0.265 OA
ATOM     28  H2  UNL     1       1.366  13.075  10.044  1.00  0.00     0.246 HD
ENDBRANCH  13  27
TORSDOF 5
ENDMDL
