MODEL 1
REMARK VINA RESULT: -8.924686044      0.000      0.000
REMARK  4 active torsions:
REMARK  status: ('A' for Active; 'I' for Inactive)
REMARK    1  A    between atoms: C1_2  and  C2_3 
REMARK       I    between atoms: C1_2  and  N5_22 
REMARK    2  A    between atoms: C2_3  and  O2_4 
REMARK    3  A    between atoms: C2_3  and  N1_6 
REMARK    4  A    between atoms: N1_6  and  C3_8 
ROOT
HETATM    1  C3  UNL     1      -1.015   8.382  12.701  1.00  0.00     0.164 C 
HETATM    2  N2  UNL     1      -1.344   9.124  13.729  1.00  0.00    -0.285 N 
ATOM      3  H2  UNL     1      -1.243  10.138  13.765  1.00  0.00     0.184 HD
HETATM    4  N3  UNL     1      -1.850   8.345  14.766  1.00  0.00    -0.121 NA
HETATM    5  C4  UNL     1      -2.027   6.974  14.347  1.00  0.00     0.121 C 
HETATM    6  C5  UNL     1      -3.488   6.744  14.091  1.00  0.00     0.064 C 
HETATM    7  C6  UNL     1      -3.897   5.399  14.596  1.00  0.00     0.235 C 
HETATM    8  N4  UNL     1      -3.629   5.371  16.030  1.00  0.00    -0.075 N 
ATOM      9  H41 UNL     1      -4.070   4.565  16.474  1.00  0.00     0.277 HD
ATOM     10  H42 UNL     1      -4.131   6.115  16.516  1.00  0.00     0.277 HD
HETATM   11  C7  UNL     1      -2.233   5.420  16.310  1.00  0.00     0.235 C 
HETATM   12  C8  UNL     1      -1.383   5.974  15.225  1.00  0.00     0.064 C 
HETATM   13  C9  UNL     1      -1.336   6.976  13.032  1.00  0.00     0.220 C 
HETATM   14  O3  UNL     1      -1.072   5.969  12.333  1.00  0.00    -0.287 OA
ENDROOT
BRANCH   1  15
HETATM   15  N1  UNL     1      -0.473   8.875  11.493  1.00  0.00    -0.339 N 
ATOM     16  H1  UNL     1       0.355   8.406  11.127  1.00  0.00     0.164 HD
BRANCH  15  17
HETATM   17  C2  UNL     1      -0.999   9.997  10.729  1.00  0.00     0.320 C 
BRANCH  17  18
HETATM   18  C1  UNL     1      -0.275  10.293   9.500  1.00  0.00     0.333 C 
HETATM   19  O1  UNL     1      -0.397   9.487   8.522  1.00  0.00    -0.262 OA
HETATM   20  N5  UNL     1       0.556  11.412   9.325  1.00  0.00    -0.073 N 
HETATM   21  O4  UNL     1       0.827  12.255  10.196  1.00  0.00    -0.529 OA
HETATM   22  O5  UNL     1       1.179  11.622   8.088  1.00  0.00    -0.529 OA
ENDBRANCH  17  18
BRANCH  17  23
HETATM   23  O2  UNL     1      -0.974  11.152  11.552  1.00  0.00    -0.368 OA
ATOM     24  H2  UNL     1      -0.277  11.050  12.189  1.00  0.00     0.212 HD
ENDBRANCH  17  23
ENDBRANCH  15  17
ENDBRANCH   1  15
TORSDOF 4
ENDMDL
MODEL 2
REMARK VINA RESULT: -8.742298687      1.443      1.842
REMARK  4 active torsions:
REMARK  status: ('A' for Active; 'I' for Inactive)
REMARK    1  A    between atoms: C1_2  and  C2_3 
REMARK       I    between atoms: C1_2  and  N5_22 
REMARK    2  A    between atoms: C2_3  and  O2_4 
REMARK    3  A    between atoms: C2_3  and  N1_6 
REMARK    4  A    between atoms: N1_6  and  C3_8 
ROOT
HETATM    1  C3  UNL     1      -0.730   7.889  12.127  1.00  0.00     0.164 C 
HETATM    2  N2  UNL     1      -0.709   6.597  11.907  1.00  0.00    -0.285 N 
ATOM      3  H2  UNL     1      -0.285   6.157  11.090  1.00  0.00     0.184 HD
HETATM    4  N3  UNL     1      -1.340   5.905  12.936  1.00  0.00    -0.121 NA
HETATM    5  C4  UNL     1      -1.681   6.791  14.026  1.00  0.00     0.121 C 
HETATM    6  C5  UNL     1      -0.688   6.583  15.130  1.00  0.00     0.064 C 
HETATM    7  C6  UNL     1      -1.374   6.614  16.457  1.00  0.00     0.235 C 
HETATM    8  N4  UNL     1      -2.360   5.538  16.463  1.00  0.00    -0.075 N 
ATOM      9  H41 UNL     1      -2.721   5.371  17.403  1.00  0.00     0.277 HD
ATOM     10  H42 UNL     1      -1.922   4.633  16.295  1.00  0.00     0.277 HD
HETATM   11  C7  UNL     1      -3.416   5.783  15.538  1.00  0.00     0.235 C 
HETATM   12  C8  UNL     1      -3.099   6.736  14.443  1.00  0.00     0.064 C 
HETATM   13  C9  UNL     1      -1.409   8.120  13.420  1.00  0.00     0.220 C 
HETATM   14  O3  UNL     1      -1.704   9.233  13.917  1.00  0.00    -0.287 OA
ENDROOT
BRANCH   1  15
HETATM   15  N1  UNL     1      -0.171   8.860  11.267  1.00  0.00    -0.339 N 
ATOM     16  H1  UNL     1       0.839   8.837  11.131  1.00  0.00     0.164 HD
BRANCH  15  17
HETATM   17  C2  UNL     1      -0.918   9.890  10.560  1.00  0.00     0.320 C 
BRANCH  17  18
HETATM   18  C1  UNL     1      -0.324  10.323   9.303  1.00  0.00     0.333 C 
HETATM   19  O1  UNL     1      -0.577   9.646   8.255  1.00  0.00    -0.262 OA
HETATM   20  N5  UNL     1       0.516  11.442   9.171  1.00  0.00    -0.073 N 
HETATM   21  O4  UNL     1       0.905  12.167  10.101  1.00  0.00    -0.529 OA
HETATM   22  O5  UNL     1       1.005  11.791   7.906  1.00  0.00    -0.529 OA
ENDBRANCH  17  18
BRANCH  17  23
HETATM   23  O2  UNL     1      -1.039  11.020  11.410  1.00  0.00    -0.368 OA
ATOM     24  H2  UNL     1      -1.957  11.139  11.621  1.00  0.00     0.212 HD
ENDBRANCH  17  23
ENDBRANCH  15  17
ENDBRANCH   1  15
TORSDOF 4
ENDMDL
MODEL 3
REMARK VINA RESULT: -8.628501868      1.275      1.430
REMARK  4 active torsions:
REMARK  status: ('A' for Active; 'I' for Inactive)
REMARK    1  A    between atoms: C1_2  and  C2_3 
REMARK       I    between atoms: C1_2  and  N5_22 
REMARK    2  A    between atoms: C2_3  and  O2_4 
REMARK    3  A    between atoms: C2_3  and  N1_6 
REMARK    4  A    between atoms: N1_6  and  C3_8 
ROOT
HETATM    1  C3  UNL     1      -0.449   8.246  12.500  1.00  0.00     0.164 C 
HETATM    2  N2  UNL     1       0.400   7.873  13.425  1.00  0.00    -0.285 N 
ATOM      3  H2  UNL     1       1.410   8.005  13.369  1.00  0.00     0.184 HD
HETATM    4  N3  UNL     1      -0.259   7.274  14.495  1.00  0.00    -0.121 NA
HETATM    5  C4  UNL     1      -1.692   7.392  14.355  1.00  0.00     0.121 C 
HETATM    6  C5  UNL     1      -2.168   8.475  15.278  1.00  0.00     0.064 C 
HETATM    7  C6  UNL     1      -3.454   8.076  15.924  1.00  0.00     0.235 C 
HETATM    8  N4  UNL     1      -3.203   6.851  16.678  1.00  0.00    -0.075 N 
ATOM      9  H41 UNL     1      -3.979   6.635  17.305  1.00  0.00     0.277 HD
ATOM     10  H42 UNL     1      -2.468   6.987  17.372  1.00  0.00     0.277 HD
HETATM   11  C7  UNL     1      -2.909   5.752  15.819  1.00  0.00     0.235 C 
HETATM   12  C8  UNL     1      -2.428   6.113  14.461  1.00  0.00     0.064 C 
HETATM   13  C9  UNL     1      -1.810   7.902  12.966  1.00  0.00     0.220 C 
HETATM   14  O3  UNL     1      -2.872   8.018  12.308  1.00  0.00    -0.287 OA
ENDROOT
BRANCH   1  15
HETATM   15  N1  UNL     1      -0.093   8.883  11.291  1.00  0.00    -0.339 N 
ATOM     16  H1  UNL     1       0.802   8.626  10.873  1.00  0.00     0.164 HD
BRANCH  15  17
HETATM   17  C2  UNL     1      -0.896   9.875  10.591  1.00  0.00     0.320 C 
BRANCH  17  18
HETATM   18  C1  UNL     1      -0.340  10.332   9.325  1.00  0.00     0.333 C 
HETATM   19  O1  UNL     1      -0.623   9.673   8.273  1.00  0.00    -0.262 OA
HETATM   20  N5  UNL     1       0.495  11.453   9.189  1.00  0.00    -0.073 N 
HETATM   21  O4  UNL     1       0.910  12.162  10.120  1.00  0.00    -0.529 OA
HETATM   22  O5  UNL     1       0.946  11.826   7.917  1.00  0.00    -0.529 OA
ENDBRANCH  17  18
BRANCH  17  23
HETATM   23  O2  UNL     1      -1.058  11.001  11.440  1.00  0.00    -0.368 OA
ATOM     24  H2  UNL     1      -1.988  11.143  11.574  1.00  0.00     0.212 HD
ENDBRANCH  17  23
ENDBRANCH  15  17
ENDBRANCH   1  15
TORSDOF 4
ENDMDL
MODEL 4
REMARK VINA RESULT: -8.598178913      1.351      1.455
REMARK  4 active torsions:
REMARK  status: ('A' for Active; 'I' for Inactive)
REMARK    1  A    between atoms: C1_2  and  C2_3 
REMARK       I    between atoms: C1_2  and  N5_22 
REMARK    2  A    between atoms: C2_3  and  O2_4 
REMARK    3  A    between atoms: C2_3  and  N1_6 
REMARK    4  A    between atoms: N1_6  and  C3_8 
ROOT
HETATM    1  C3  UNL     1      -0.324   8.301  12.477  1.00  0.00     0.164 C 
HETATM    2  N2  UNL     1      -1.014   8.828  13.457  1.00  0.00    -0.285 N 
ATOM      3  H2  UNL     1      -1.456   9.747  13.424  1.00  0.00     0.184 HD
HETATM    4  N3  UNL     1      -1.066   7.969  14.551  1.00  0.00    -0.121 NA
HETATM    5  C4  UNL     1      -0.495   6.682  14.228  1.00  0.00     0.121 C 
HETATM    6  C5  UNL     1      -1.616   5.710  14.008  1.00  0.00     0.064 C 
HETATM    7  C6  UNL     1      -1.277   4.385  14.608  1.00  0.00     0.235 C 
HETATM    8  N4  UNL     1      -1.068   4.593  16.037  1.00  0.00    -0.075 N 
ATOM      9  H41 UNL     1      -1.035   3.705  16.540  1.00  0.00     0.277 HD
ATOM     10  H42 UNL     1      -1.895   4.996  16.478  1.00  0.00     0.277 HD
HETATM   11  C7  UNL     1       0.092   5.378  16.294  1.00  0.00     0.235 C 
HETATM   12  C8  UNL     1       0.556   6.223  15.163  1.00  0.00     0.064 C 
HETATM   13  C9  UNL     1       0.126   6.959  12.907  1.00  0.00     0.220 C 
HETATM   14  O3  UNL     1       0.891   6.193  12.274  1.00  0.00    -0.287 OA
ENDROOT
BRANCH   1  15
HETATM   15  N1  UNL     1      -0.089   8.925  11.232  1.00  0.00    -0.339 N 
ATOM     16  H1  UNL     1       0.761   8.664  10.732  1.00  0.00     0.164 HD
BRANCH  15  17
HETATM   17  C2  UNL     1      -0.959   9.909  10.604  1.00  0.00     0.320 C 
BRANCH  17  18
HETATM   18  C1  UNL     1      -0.499  10.395   9.310  1.00  0.00     0.333 C 
HETATM   19  O1  UNL     1      -0.917   9.803   8.263  1.00  0.00    -0.262 OA
HETATM   20  N5  UNL     1       0.381  11.477   9.141  1.00  0.00    -0.073 N 
HETATM   21  O4  UNL     1       0.922  12.118  10.057  1.00  0.00    -0.529 OA
HETATM   22  O5  UNL     1       0.731  11.886   7.848  1.00  0.00    -0.529 OA
ENDBRANCH  17  18
BRANCH  17  23
HETATM   23  O2  UNL     1      -1.087  11.018  11.479  1.00  0.00    -0.368 OA
ATOM     24  H2  UNL     1      -1.568  11.701  11.027  1.00  0.00     0.212 HD
ENDBRANCH  17  23
ENDBRANCH  15  17
ENDBRANCH   1  15
TORSDOF 4
ENDMDL
MODEL 5
REMARK VINA RESULT: -8.588647435      1.836      2.270
REMARK  4 active torsions:
REMARK  status: ('A' for Active; 'I' for Inactive)
REMARK    1  A    between atoms: C1_2  and  C2_3 
REMARK       I    between atoms: C1_2  and  N5_22 
REMARK    2  A    between atoms: C2_3  and  O2_4 
REMARK    3  A    between atoms: C2_3  and  N1_6 
REMARK    4  A    between atoms: N1_6  and  C3_8 
ROOT
HETATM    1  C3  UNL     1      -1.203   7.760  12.701  1.00  0.00     0.164 C 
HETATM    2  N2  UNL     1      -1.378   6.466  12.600  1.00  0.00    -0.285 N 
ATOM      3  H2  UNL     1      -1.102   5.907  11.792  1.00  0.00     0.184 HD
HETATM    4  N3  UNL     1      -1.990   5.954  13.740  1.00  0.00    -0.121 NA
HETATM    5  C4  UNL     1      -2.097   6.962  14.769  1.00  0.00     0.121 C 
HETATM    6  C5  UNL     1      -1.035   6.702  15.796  1.00  0.00     0.064 C 
HETATM    7  C6  UNL     1      -1.574   6.934  17.169  1.00  0.00     0.235 C 
HETATM    8  N4  UNL     1      -2.691   6.015  17.361  1.00  0.00    -0.075 N 
ATOM      9  H41 UNL     1      -2.975   5.975  18.341  1.00  0.00     0.277 HD
ATOM     10  H42 UNL     1      -2.398   5.045  17.240  1.00  0.00     0.277 HD
HETATM   11  C7  UNL     1      -3.792   6.334  16.515  1.00  0.00     0.235 C 
HETATM   12  C8  UNL     1      -3.461   7.143  15.314  1.00  0.00     0.064 C 
HETATM   13  C9  UNL     1      -1.711   8.186  14.023  1.00  0.00     0.220 C 
HETATM   14  O3  UNL     1      -1.802   9.366  14.439  1.00  0.00    -0.287 OA
ENDROOT
BRANCH   1  15
HETATM   15  N1  UNL     1      -0.608   8.571  11.710  1.00  0.00    -0.339 N 
ATOM     16  H1  UNL     1       0.386   8.431  11.526  1.00  0.00     0.164 HD
BRANCH  15  17
HETATM   17  C2  UNL     1      -1.294   9.590  10.929  1.00  0.00     0.320 C 
BRANCH  17  18
HETATM   18  C1  UNL     1      -0.835   9.721   9.553  1.00  0.00     0.333 C 
HETATM   19  O1  UNL     1       0.202   9.070   9.203  1.00  0.00    -0.262 OA
HETATM   20  N5  UNL     1      -1.462  10.522   8.585  1.00  0.00    -0.073 N 
HETATM   21  O4  UNL     1      -2.442  11.260   8.782  1.00  0.00    -0.529 OA
HETATM   22  O5  UNL     1      -0.957  10.547   7.279  1.00  0.00    -0.529 OA
ENDBRANCH  17  18
BRANCH  17  23
HETATM   23  O2  UNL     1      -1.126  10.841  11.577  1.00  0.00    -0.368 OA
ATOM     24  H2  UNL     1      -1.340  10.734  12.496  1.00  0.00     0.212 HD
ENDBRANCH  17  23
ENDBRANCH  15  17
ENDBRANCH   1  15
TORSDOF 4
ENDMDL
