MODEL 1
REMARK VINA RESULT: -8.470168500      0.000      0.000
REMARK  2 active torsions:
REMARK  status: ('A' for Active; 'I' for Inactive)
REMARK    1  A    between atoms: N4_13  and  N5_15 
REMARK    2  A    between atoms: N6_17  and  C7_19 
ROOT
HETATM    1  C1  UNL     1      31.859  25.835  43.415  1.00  0.00     0.047 C 
HETATM    2  C2  UNL     1      30.995  25.107  42.740  1.00  0.00     0.070 C 
HETATM    3  N1  UNL     1      29.663  25.020  43.199  1.00  0.00    -0.342 N 
ATOM      4  H1  UNL     1      29.445  25.664  43.960  1.00  0.00     0.167 HD
HETATM    5  C3  UNL     1      28.559  24.200  42.800  1.00  0.00     0.122 C 
HETATM    6  N2  UNL     1      27.328  24.422  43.442  1.00  0.00    -0.083 NA
HETATM    7  C4  UNL     1      28.598  23.239  41.870  1.00  0.00     0.119 C 
HETATM    8  C5  UNL     1      29.699  22.777  41.044  1.00  0.00     0.250 C 
HETATM    9  O1  UNL     1      29.466  21.758  40.357  1.00  0.00    -0.268 OA
HETATM   10  N3  UNL     1      31.002  23.307  40.898  1.00  0.00    -0.307 N 
ATOM     11  H3  UNL     1      31.619  22.812  40.255  1.00  0.00     0.170 HD
HETATM   12  C6  UNL     1      31.560  24.460  41.549  1.00  0.00     0.150 C 
HETATM   13  N4  UNL     1      32.639  24.967  41.055  1.00  0.00    -0.269 N 
ATOM     14  H4  UNL     1      33.082  25.785  41.474  1.00  0.00     0.190 HD
ENDROOT
BRANCH  13  15
HETATM   15  N5  UNL     1      33.175  24.350  39.921  1.00  0.00    -0.227 N 
HETATM   16  N6  UNL     1      34.251  24.767  39.396  1.00  0.00    -0.115 N 
ATOM     17  H6  UNL     1      34.757  25.565  39.781  1.00  0.00     0.207 HD
ATOM     18  H5  UNL     1      32.694  23.550  39.511  1.00  0.00     0.209 HD
BRANCH  16  19
HETATM   19  C7  UNL     1      34.721  24.078  38.247  1.00  0.00     0.726 A 
HETATM   20  N7  UNL     1      34.870  22.754  38.123  1.00  0.00    -0.112 N 
HETATM   21  N8  UNL     1      35.333  22.541  36.894  1.00  0.00     0.009 NA
ATOM     22  H7  UNL     1      34.670  22.048  38.831  1.00  0.00     0.203 HD
HETATM   23  N9  UNL     1      35.474  23.694  36.254  1.00  0.00    -0.211 N 
HETATM   24  N10 UNL     1      35.102  24.653  37.074  1.00  0.00    -0.117 N 
ATOM     25  H9  UNL     1      35.811  23.815  35.299  1.00  0.00     0.206 HD
ATOM     26  H10 UNL     1      35.098  25.652  36.867  1.00  0.00     0.207 HD
ENDBRANCH  16  19
ENDBRANCH  13  15
TORSDOF 2
ENDMDL
MODEL 2
REMARK VINA RESULT: -8.452014471      0.754      1.067
REMARK  2 active torsions:
REMARK  status: ('A' for Active; 'I' for Inactive)
REMARK    1  A    between atoms: N4_13  and  N5_15 
REMARK    2  A    between atoms: N6_17  and  C7_19 
ROOT
HETATM    1  C1  UNL     1      32.058  25.662  43.372  1.00  0.00     0.047 C 
HETATM    2  C2  UNL     1      31.221  24.960  42.639  1.00  0.00     0.070 C 
HETATM    3  N1  UNL     1      29.904  24.753  43.105  1.00  0.00    -0.342 N 
ATOM      4  H1  UNL     1      29.668  25.304  43.931  1.00  0.00     0.167 HD
HETATM    5  C3  UNL     1      28.839  23.918  42.640  1.00  0.00     0.122 C 
HETATM    6  N2  UNL     1      27.610  24.006  43.318  1.00  0.00    -0.083 NA
HETATM    7  C4  UNL     1      28.911  23.060  41.616  1.00  0.00     0.119 C 
HETATM    8  C5  UNL     1      30.018  22.744  40.732  1.00  0.00     0.250 C 
HETATM    9  O1  UNL     1      29.827  21.789  39.948  1.00  0.00    -0.268 OA
HETATM   10  N3  UNL     1      31.289  23.358  40.624  1.00  0.00    -0.307 N 
ATOM     11  H3  UNL     1      31.919  22.965  39.925  1.00  0.00     0.170 HD
HETATM   12  C6  UNL     1      31.796  24.468  41.381  1.00  0.00     0.150 C 
HETATM   13  N4  UNL     1      32.837  25.082  40.926  1.00  0.00    -0.269 N 
ATOM     14  H4  UNL     1      33.243  25.877  41.420  1.00  0.00     0.190 HD
ENDROOT
BRANCH  13  15
HETATM   15  N5  UNL     1      33.383  24.613  39.728  1.00  0.00    -0.227 N 
HETATM   16  N6  UNL     1      33.497  25.372  38.719  1.00  0.00    -0.115 N 
ATOM     17  H6  UNL     1      33.194  26.346  38.748  1.00  0.00     0.207 HD
ATOM     18  H5  UNL     1      33.695  23.644  39.665  1.00  0.00     0.209 HD
BRANCH  16  19
HETATM   19  C7  UNL     1      34.064  24.810  37.545  1.00  0.00     0.726 A 
HETATM   20  N7  UNL     1      33.570  24.899  36.304  1.00  0.00    -0.112 N 
HETATM   21  N8  UNL     1      34.410  24.235  35.517  1.00  0.00     0.009 NA
ATOM     22  H7  UNL     1      32.718  25.382  36.020  1.00  0.00     0.203 HD
HETATM   23  N9  UNL     1      35.410  23.735  36.232  1.00  0.00    -0.211 N 
HETATM   24  N10 UNL     1      35.212  24.081  37.486  1.00  0.00    -0.117 N 
ATOM     25  H9  UNL     1      36.189  23.184  35.874  1.00  0.00     0.206 HD
ATOM     26  H10 UNL     1      35.813  23.845  38.276  1.00  0.00     0.207 HD
ENDBRANCH  16  19
ENDBRANCH  13  15
TORSDOF 2
ENDMDL
MODEL 3
REMARK VINA RESULT: -8.399036597      2.032      2.856
REMARK  2 active torsions:
REMARK  status: ('A' for Active; 'I' for Inactive)
REMARK    1  A    between atoms: N4_13  and  N5_15 
REMARK    2  A    between atoms: N6_17  and  C7_19 
ROOT
HETATM    1  C1  UNL     1      28.842  24.770  41.195  1.00  0.00     0.047 C 
HETATM    2  C2  UNL     1      29.832  24.885  42.054  1.00  0.00     0.070 C 
HETATM    3  N1  UNL     1      29.546  25.239  43.391  1.00  0.00    -0.342 N 
ATOM      4  H1  UNL     1      28.551  25.235  43.614  1.00  0.00     0.167 HD
HETATM    5  C3  UNL     1      30.386  25.601  44.491  1.00  0.00     0.122 C 
HETATM    6  N2  UNL     1      29.760  25.836  45.728  1.00  0.00    -0.083 NA
HETATM    7  C4  UNL     1      31.716  25.738  44.445  1.00  0.00     0.119 C 
HETATM    8  C5  UNL     1      32.639  25.568  43.337  1.00  0.00     0.250 C 
HETATM    9  O1  UNL     1      33.822  25.903  43.564  1.00  0.00    -0.268 OA
HETATM   10  N3  UNL     1      32.400  25.077  42.031  1.00  0.00    -0.307 N 
ATOM     11  H3  UNL     1      33.207  25.046  41.408  1.00  0.00     0.170 HD
HETATM   12  C6  UNL     1      31.156  24.618  41.478  1.00  0.00     0.150 C 
HETATM   13  N4  UNL     1      31.200  23.919  40.394  1.00  0.00    -0.269 N 
ATOM     14  H4  UNL     1      30.350  23.566  39.954  1.00  0.00     0.190 HD
ENDROOT
BRANCH  13  15
HETATM   15  N5  UNL     1      32.462  23.666  39.848  1.00  0.00    -0.227 N 
HETATM   16  N6  UNL     1      32.823  24.203  38.758  1.00  0.00    -0.115 N 
ATOM     17  H6  UNL     1      32.206  24.835  38.246  1.00  0.00     0.207 HD
ATOM     18  H5  UNL     1      33.102  23.039  40.334  1.00  0.00     0.209 HD
BRANCH  16  19
HETATM   19  C7  UNL     1      34.121  23.889  38.279  1.00  0.00     0.726 A 
HETATM   20  N7  UNL     1      34.863  22.833  38.633  1.00  0.00    -0.112 N 
HETATM   21  N8  UNL     1      36.000  22.926  37.950  1.00  0.00     0.009 NA
ATOM     22  H7  UNL     1      34.607  22.102  39.296  1.00  0.00     0.203 HD
HETATM   23  N9  UNL     1      35.985  24.008  37.183  1.00  0.00    -0.211 N 
HETATM   24  N10 UNL     1      34.833  24.614  37.373  1.00  0.00    -0.117 N 
ATOM     25  H9  UNL     1      36.732  24.314  36.559  1.00  0.00     0.206 HD
ATOM     26  H10 UNL     1      34.527  25.476  36.922  1.00  0.00     0.207 HD
ENDBRANCH  16  19
ENDBRANCH  13  15
TORSDOF 2
ENDMDL
MODEL 4
REMARK VINA RESULT: -8.274780330      2.163      3.035
REMARK  2 active torsions:
REMARK  status: ('A' for Active; 'I' for Inactive)
REMARK    1  A    between atoms: N4_13  and  N5_15 
REMARK    2  A    between atoms: N6_17  and  C7_19 
ROOT
HETATM    1  C1  UNL     1      28.728  21.670  40.959  1.00  0.00     0.047 C 
HETATM    2  C2  UNL     1      29.380  22.489  41.757  1.00  0.00     0.070 C 
HETATM    3  N1  UNL     1      28.982  22.596  43.108  1.00  0.00    -0.342 N 
ATOM      4  H1  UNL     1      28.291  21.900  43.390  1.00  0.00     0.167 HD
HETATM    5  C3  UNL     1      29.362  23.493  44.155  1.00  0.00     0.122 C 
HETATM    6  N2  UNL     1      28.805  23.272  45.427  1.00  0.00    -0.083 NA
HETATM    7  C4  UNL     1      30.203  24.527  44.029  1.00  0.00     0.119 C 
HETATM    8  C5  UNL     1      30.929  25.010  42.869  1.00  0.00     0.250 C 
HETATM    9  O1  UNL     1      31.537  26.092  43.024  1.00  0.00    -0.268 OA
HETATM   10  N3  UNL     1      31.055  24.437  41.581  1.00  0.00    -0.307 N 
ATOM     11  H3  UNL     1      31.621  24.958  40.911  1.00  0.00     0.170 HD
HETATM   12  C6  UNL     1      30.479  23.210  41.104  1.00  0.00     0.150 C 
HETATM   13  N4  UNL     1      30.962  22.699  40.022  1.00  0.00    -0.269 N 
ATOM     14  H4  UNL     1      30.594  21.830  39.634  1.00  0.00     0.190 HD
ENDROOT
BRANCH  13  15
HETATM   15  N5  UNL     1      32.009  23.387  39.402  1.00  0.00    -0.227 N 
HETATM   16  N6  UNL     1      31.858  23.920  38.261  1.00  0.00    -0.115 N 
ATOM     17  H6  UNL     1      30.970  23.864  37.761  1.00  0.00     0.207 HD
ATOM     18  H5  UNL     1      32.910  23.461  39.874  1.00  0.00     0.209 HD
BRANCH  16  19
HETATM   19  C7  UNL     1      32.976  24.598  37.709  1.00  0.00     0.726 A 
HETATM   20  N7  UNL     1      33.240  24.762  36.407  1.00  0.00    -0.112 N 
HETATM   21  N8  UNL     1      34.376  25.450  36.338  1.00  0.00     0.009 NA
ATOM     22  H7  UNL     1      32.681  24.426  35.624  1.00  0.00     0.203 HD
HETATM   23  N9  UNL     1      34.823  25.717  37.558  1.00  0.00    -0.211 N 
HETATM   24  N10 UNL     1      33.971  25.199  38.416  1.00  0.00    -0.117 N 
ATOM     25  H9  UNL     1      35.673  26.231  37.788  1.00  0.00     0.206 HD
ATOM     26  H10 UNL     1      34.044  25.239  39.433  1.00  0.00     0.207 HD
ENDBRANCH  16  19
ENDBRANCH  13  15
TORSDOF 2
ENDMDL
MODEL 5
REMARK VINA RESULT: -8.203279468      2.343      3.291
REMARK  2 active torsions:
REMARK  status: ('A' for Active; 'I' for Inactive)
REMARK    1  A    between atoms: N4_13  and  N5_15 
REMARK    2  A    between atoms: N6_17  and  C7_19 
ROOT
HETATM    1  C1  UNL     1      29.156  22.435  42.579  1.00  0.00     0.047 C 
HETATM    2  C2  UNL     1      29.863  23.350  43.208  1.00  0.00     0.070 C 
HETATM    3  N1  UNL     1      29.621  23.584  44.579  1.00  0.00    -0.342 N 
ATOM      4  H1  UNL     1      28.997  22.902  45.010  1.00  0.00     0.167 HD
HETATM    5  C3  UNL     1      30.086  24.595  45.479  1.00  0.00     0.122 C 
HETATM    6  N2  UNL     1      29.689  24.490  46.824  1.00  0.00    -0.083 NA
HETATM    7  C4  UNL     1      30.864  25.633  45.152  1.00  0.00     0.119 C 
HETATM    8  C5  UNL     1      31.430  26.013  43.870  1.00  0.00     0.250 C 
HETATM    9  O1  UNL     1      32.008  27.122  43.843  1.00  0.00    -0.268 OA
HETATM   10  N3  UNL     1      31.428  25.315  42.640  1.00  0.00    -0.307 N 
ATOM     11  H3  UNL     1      31.891  25.779  41.859  1.00  0.00     0.170 HD
HETATM   12  C6  UNL     1      30.849  24.029  42.360  1.00  0.00     0.150 C 
HETATM   13  N4  UNL     1      31.222  23.424  41.283  1.00  0.00    -0.269 N 
ATOM     14  H4  UNL     1      30.846  22.510  41.030  1.00  0.00     0.190 HD
ENDROOT
BRANCH  13  15
HETATM   15  N5  UNL     1      32.162  24.072  40.476  1.00  0.00    -0.227 N 
HETATM   16  N6  UNL     1      32.400  23.671  39.297  1.00  0.00    -0.115 N 
ATOM     17  H6  UNL     1      31.916  22.865  38.901  1.00  0.00     0.207 HD
ATOM     18  H5  UNL     1      32.664  24.881  40.842  1.00  0.00     0.209 HD
BRANCH  16  19
HETATM   19  C7  UNL     1      33.369  24.392  38.551  1.00  0.00     0.726 A 
HETATM   20  N7  UNL     1      33.308  25.684  38.210  1.00  0.00    -0.112 N 
HETATM   21  N8  UNL     1      34.415  25.945  37.521  1.00  0.00     0.009 NA
ATOM     22  H7  UNL     1      32.560  26.340  38.434  1.00  0.00     0.203 HD
HETATM   23  N9  UNL     1      35.161  24.852  37.425  1.00  0.00    -0.211 N 
HETATM   24  N10 UNL     1      34.530  23.883  38.055  1.00  0.00    -0.117 N 
ATOM     25  H9  UNL     1      36.059  24.776  36.949  1.00  0.00     0.206 HD
ATOM     26  H10 UNL     1      34.854  22.921  38.154  1.00  0.00     0.207 HD
ENDBRANCH  16  19
ENDBRANCH  13  15
TORSDOF 2
ENDMDL
