MODEL 1
REMARK VINA RESULT: -7.846388799      0.000      0.000
REMARK  3 active torsions:
REMARK  status: ('A' for Active; 'I' for Inactive)
REMARK    1  A    between atoms: N1_1  and  C1_4 
REMARK    2  A    between atoms: C6_18  and  N6_19 
REMARK    3  A    between atoms: N6_19  and  C7_21 
ROOT
HETATM    1  C1  UNL     1      34.160  24.905  37.860  1.00  0.00     0.118 A 
HETATM    2  C2  UNL     1      33.112  24.395  37.130  1.00  0.00     0.100 A 
HETATM    3  C3  UNL     1      32.006  23.814  37.751  1.00  0.00     0.134 A 
HETATM    4  N2  UNL     1      30.865  23.247  37.320  1.00  0.00    -0.325 N 
ATOM      5  H2  UNL     1      30.582  23.133  36.347  1.00  0.00     0.169 HD
HETATM    6  C4  UNL     1      30.164  22.858  38.401  1.00  0.00     0.155 A 
HETATM    7  N3  UNL     1      28.969  22.247  38.539  1.00  0.00    -0.174 N 
ATOM      8  H3  UNL     1      28.421  21.994  37.717  1.00  0.00     0.186 HD
HETATM    9  C5  UNL     1      28.511  21.976  39.769  1.00  0.00     0.679 A 
HETATM   10  N4  UNL     1      27.366  21.391  39.883  1.00  0.00    -0.234 N 
ATOM     11  H41 UNL     1      27.018  21.185  40.819  1.00  0.00     0.174 HD
ATOM     12  H42 UNL     1      26.842  21.150  39.041  1.00  0.00     0.174 HD
HETATM   13  N5  UNL     1      29.213  22.299  40.896  1.00  0.00    -0.174 N 
ATOM     14  H5  UNL     1      28.826  22.074  41.813  1.00  0.00     0.186 HD
HETATM   15  C6  UNL     1      30.408  22.908  40.812  1.00  0.00     0.156 A 
HETATM   16  C8  UNL     1      30.887  23.190  39.553  1.00  0.00     0.149 A 
HETATM   17  N7  UNL     1      32.017  23.778  39.090  1.00  0.00    -0.218 N 
HETATM   18  N8  UNL     1      33.028  24.271  39.788  1.00  0.00    -0.232 N 
ATOM     19  H8  UNL     1      32.997  24.226  40.806  1.00  0.00     0.209 HD
HETATM   20  N9  UNL     1      34.086  24.826  39.196  1.00  0.00    -0.271 N 
ATOM     21  H9  UNL     1      34.847  25.195  39.767  1.00  0.00     0.190 HD
ENDROOT
BRANCH  15  22
HETATM   22  N6  UNL     1      31.079  23.216  41.863  1.00  0.00    -0.318 N 
ATOM     23  H6  UNL     1      32.096  23.159  41.806  1.00  0.00     0.169 HD
BRANCH  22  24
HETATM   24  C7  UNL     1      30.523  23.625  43.079  1.00  0.00     0.354 C 
HETATM   25  O1  UNL     1      29.922  22.808  43.805  1.00  0.00    -0.283 OA
ENDBRANCH  22  24
ENDBRANCH  15  22
BRANCH   1  26
HETATM   26  N1  UNL     1      35.161  25.434  37.244  1.00  0.00    -0.384 N 
ATOM     27  H12 UNL     1      35.528  25.066  36.367  1.00  0.00     0.157 HD
ATOM     28  H11 UNL     1      35.615  26.256  37.642  1.00  0.00     0.157 HD
ENDBRANCH   1  26
TORSDOF 3
ENDMDL
MODEL 2
REMARK VINA RESULT: -7.717001385      2.716      4.649
REMARK  3 active torsions:
REMARK  status: ('A' for Active; 'I' for Inactive)
REMARK    1  A    between atoms: N1_1  and  C1_4 
REMARK    2  A    between atoms: C6_18  and  N6_19 
REMARK    3  A    between atoms: N6_19  and  C7_21 
ROOT
HETATM    1  C1  UNL     1      31.846  25.827  43.566  1.00  0.00     0.118 A 
HETATM    2  C2  UNL     1      30.640  25.619  42.938  1.00  0.00     0.100 A 
HETATM    3  C3  UNL     1      30.569  25.066  41.660  1.00  0.00     0.134 A 
HETATM    4  N2  UNL     1      29.571  24.753  40.815  1.00  0.00    -0.325 N 
ATOM      5  H2  UNL     1      28.575  24.885  40.989  1.00  0.00     0.169 HD
HETATM    6  C4  UNL     1      30.121  24.236  39.700  1.00  0.00     0.155 A 
HETATM    7  N3  UNL     1      29.584  23.766  38.555  1.00  0.00    -0.174 N 
ATOM      8  H3  UNL     1      28.573  23.764  38.422  1.00  0.00     0.186 HD
HETATM    9  C5  UNL     1      30.396  23.303  37.594  1.00  0.00     0.679 A 
HETATM   10  N4  UNL     1      29.865  22.858  36.505  1.00  0.00    -0.234 N 
ATOM     11  H41 UNL     1      30.484  22.506  35.774  1.00  0.00     0.174 HD
ATOM     12  H42 UNL     1      28.850  22.869  36.401  1.00  0.00     0.174 HD
HETATM   13  N5  UNL     1      31.755  23.288  37.733  1.00  0.00    -0.174 N 
ATOM     14  H5  UNL     1      32.335  22.925  36.976  1.00  0.00     0.186 HD
HETATM   15  C6  UNL     1      32.337  23.745  38.854  1.00  0.00     0.156 A 
HETATM   16  C8  UNL     1      31.513  24.223  39.845  1.00  0.00     0.149 A 
HETATM   17  N7  UNL     1      31.733  24.747  41.076  1.00  0.00    -0.218 N 
HETATM   18  N8  UNL     1      32.891  24.948  41.686  1.00  0.00    -0.232 N 
ATOM     19  H8  UNL     1      33.754  24.691  41.208  1.00  0.00     0.209 HD
HETATM   20  N9  UNL     1      32.960  25.478  42.907  1.00  0.00    -0.271 N 
ATOM     21  H9  UNL     1      33.871  25.619  43.345  1.00  0.00     0.190 HD
ENDROOT
BRANCH  15  22
HETATM   22  N6  UNL     1      33.615  23.737  38.997  1.00  0.00    -0.318 N 
ATOM     23  H6  UNL     1      33.990  24.050  39.893  1.00  0.00     0.169 HD
BRANCH  22  24
HETATM   24  C7  UNL     1      34.530  23.333  38.020  1.00  0.00     0.354 C 
HETATM   25  O1  UNL     1      35.527  22.651  38.332  1.00  0.00    -0.283 OA
ENDBRANCH  22  24
ENDBRANCH  15  22
BRANCH   1  26
HETATM   26  N1  UNL     1      31.863  26.340  44.748  1.00  0.00    -0.384 N 
ATOM     27  H12 UNL     1      31.781  27.342  44.917  1.00  0.00     0.157 HD
ATOM     28  H11 UNL     1      31.964  25.728  45.558  1.00  0.00     0.157 HD
ENDBRANCH   1  26
TORSDOF 3
ENDMDL
MODEL 3
REMARK VINA RESULT: -7.536779912      3.017      5.714
REMARK  3 active torsions:
REMARK  status: ('A' for Active; 'I' for Inactive)
REMARK    1  A    between atoms: N1_1  and  C1_4 
REMARK    2  A    between atoms: C6_18  and  N6_19 
REMARK    3  A    between atoms: N6_19  and  C7_21 
ROOT
HETATM    1  C1  UNL     1      28.620  21.794  40.684  1.00  0.00     0.118 A 
HETATM    2  C2  UNL     1      29.841  22.353  40.389  1.00  0.00     0.100 A 
HETATM    3  C3  UNL     1      30.480  23.220  41.277  1.00  0.00     0.134 A 
HETATM    4  N2  UNL     1      31.638  23.901  41.269  1.00  0.00    -0.325 N 
ATOM      5  H2  UNL     1      32.331  23.898  40.520  1.00  0.00     0.169 HD
HETATM    6  C4  UNL     1      31.722  24.587  42.424  1.00  0.00     0.155 A 
HETATM    7  N3  UNL     1      32.661  25.418  42.924  1.00  0.00    -0.174 N 
ATOM      8  H3  UNL     1      33.505  25.622  42.390  1.00  0.00     0.186 HD
HETATM    9  C5  UNL     1      32.469  25.970  44.130  1.00  0.00     0.679 A 
HETATM   10  N4  UNL     1      33.377  26.763  44.593  1.00  0.00    -0.234 N 
ATOM     11  H41 UNL     1      33.231  27.183  45.510  1.00  0.00     0.174 HD
ATOM     12  H42 UNL     1      34.211  26.948  44.035  1.00  0.00     0.174 HD
HETATM   13  N5  UNL     1      31.353  25.722  44.878  1.00  0.00    -0.174 N 
ATOM     14  H5  UNL     1      31.249  26.164  45.791  1.00  0.00     0.186 HD
HETATM   15  C6  UNL     1      30.390  24.903  44.424  1.00  0.00     0.156 A 
HETATM   16  C8  UNL     1      30.576  24.331  43.187  1.00  0.00     0.149 A 
HETATM   17  N7  UNL     1      29.844  23.479  42.428  1.00  0.00    -0.218 N 
HETATM   18  N8  UNL     1      28.669  22.937  42.707  1.00  0.00    -0.232 N 
ATOM     19  H8  UNL     1      28.218  23.159  43.594  1.00  0.00     0.209 HD
HETATM   20  N9  UNL     1      28.057  22.109  41.859  1.00  0.00    -0.271 N 
ATOM     21  H9  UNL     1      27.151  21.711  42.108  1.00  0.00     0.190 HD
ENDROOT
BRANCH  15  22
HETATM   22  N6  UNL     1      29.334  24.660  45.116  1.00  0.00    -0.318 N 
ATOM     23  H6  UNL     1      28.471  24.467  44.607  1.00  0.00     0.169 HD
BRANCH  22  24
HETATM   24  C7  UNL     1      29.277  24.641  46.513  1.00  0.00     0.354 C 
HETATM   25  O1  UNL     1      30.205  24.135  47.176  1.00  0.00    -0.283 OA
ENDBRANCH  22  24
ENDBRANCH  15  22
BRANCH   1  26
HETATM   26  N1  UNL     1      28.068  20.998  39.835  1.00  0.00    -0.384 N 
ATOM     27  H12 UNL     1      27.917  20.007  40.022  1.00  0.00     0.157 HD
ATOM     28  H11 UNL     1      27.765  21.362  38.932  1.00  0.00     0.157 HD
ENDBRANCH   1  26
TORSDOF 3
ENDMDL
MODEL 4
REMARK VINA RESULT: -7.461802496      3.874      5.665
REMARK  3 active torsions:
REMARK  status: ('A' for Active; 'I' for Inactive)
REMARK    1  A    between atoms: N1_1  and  C1_4 
REMARK    2  A    between atoms: C6_18  and  N6_19 
REMARK    3  A    between atoms: N6_19  and  C7_21 
ROOT
HETATM    1  C1  UNL     1      31.802  24.384  41.423  1.00  0.00     0.118 A 
HETATM    2  C2  UNL     1      30.790  23.491  41.686  1.00  0.00     0.100 A 
HETATM    3  C3  UNL     1      29.959  23.637  42.797  1.00  0.00     0.134 A 
HETATM    4  N2  UNL     1      28.920  22.950  43.301  1.00  0.00    -0.325 N 
ATOM      5  H2  UNL     1      28.515  22.100  42.907  1.00  0.00     0.169 HD
HETATM    6  C4  UNL     1      28.509  23.581  44.417  1.00  0.00     0.155 A 
HETATM    7  N3  UNL     1      27.520  23.322  45.297  1.00  0.00    -0.174 N 
ATOM      8  H3  UNL     1      26.916  22.510  45.171  1.00  0.00     0.186 HD
HETATM    9  C5  UNL     1      27.342  24.145  46.341  1.00  0.00     0.679 A 
HETATM   10  N4  UNL     1      26.391  23.881  47.174  1.00  0.00    -0.234 N 
ATOM     11  H41 UNL     1      26.256  24.508  47.967  1.00  0.00     0.174 HD
ATOM     12  H42 UNL     1      25.804  23.061  47.020  1.00  0.00     0.174 HD
HETATM   13  N5  UNL     1      28.128  25.243  46.546  1.00  0.00    -0.174 N 
ATOM     14  H5  UNL     1      27.955  25.842  47.353  1.00  0.00     0.186 HD
HETATM   15  C6  UNL     1      29.125  25.543  45.698  1.00  0.00     0.156 A 
HETATM   16  C8  UNL     1      29.317  24.705  44.625  1.00  0.00     0.149 A 
HETATM   17  N7  UNL     1      30.196  24.690  43.592  1.00  0.00    -0.218 N 
HETATM   18  N8  UNL     1      31.171  25.547  43.334  1.00  0.00    -0.232 N 
ATOM     19  H8  UNL     1      31.318  26.336  43.963  1.00  0.00     0.209 HD
HETATM   20  N9  UNL     1      31.967  25.408  42.273  1.00  0.00    -0.271 N 
ATOM     21  H9  UNL     1      32.709  26.089  42.107  1.00  0.00     0.190 HD
ENDROOT
BRANCH  15  22
HETATM   22  N6  UNL     1      29.873  26.573  45.879  1.00  0.00    -0.318 N 
ATOM     23  H6  UNL     1      30.687  26.464  46.485  1.00  0.00     0.169 HD
BRANCH  22  24
HETATM   24  C7  UNL     1      29.657  27.832  45.310  1.00  0.00     0.354 C 
HETATM   25  O1  UNL     1      30.599  28.453  44.777  1.00  0.00    -0.283 OA
ENDBRANCH  22  24
ENDBRANCH  15  22
BRANCH   1  26
HETATM   26  N1  UNL     1      32.545  24.210  40.385  1.00  0.00    -0.384 N 
ATOM     27  H12 UNL     1      32.400  24.713  39.510  1.00  0.00     0.157 HD
ATOM     28  H11 UNL     1      33.315  23.543  40.427  1.00  0.00     0.157 HD
ENDBRANCH   1  26
TORSDOF 3
ENDMDL
MODEL 5
REMARK VINA RESULT: -7.428553802      4.006      7.305
REMARK  3 active torsions:
REMARK  status: ('A' for Active; 'I' for Inactive)
REMARK    1  A    between atoms: N1_1  and  C1_4 
REMARK    2  A    between atoms: C6_18  and  N6_19 
REMARK    3  A    between atoms: N6_19  and  C7_21 
ROOT
HETATM    1  C1  UNL     1      26.996  24.202  46.620  1.00  0.00     0.118 A 
HETATM    2  C2  UNL     1      27.233  23.397  45.531  1.00  0.00     0.100 A 
HETATM    3  C3  UNL     1      28.297  23.641  44.663  1.00  0.00     0.134 A 
HETATM    4  N2  UNL     1      28.768  23.052  43.550  1.00  0.00    -0.325 N 
ATOM      5  H2  UNL     1      28.378  22.224  43.098  1.00  0.00     0.169 HD
HETATM    6  C4  UNL     1      29.845  23.747  43.139  1.00  0.00     0.155 A 
HETATM    7  N3  UNL     1      30.684  23.591  42.093  1.00  0.00    -0.174 N 
ATOM      8  H3  UNL     1      30.551  22.825  41.434  1.00  0.00     0.186 HD
HETATM    9  C5  UNL     1      31.693  24.458  41.930  1.00  0.00     0.679 A 
HETATM   10  N4  UNL     1      32.485  24.295  40.924  1.00  0.00    -0.234 N 
ATOM     11  H41 UNL     1      33.253  24.955  40.801  1.00  0.00     0.174 HD
ATOM     12  H42 UNL     1      32.326  23.518  40.282  1.00  0.00     0.174 HD
HETATM   13  N5  UNL     1      31.907  25.498  42.790  1.00  0.00    -0.174 N 
ATOM     14  H5  UNL     1      32.689  26.133  42.628  1.00  0.00     0.186 HD
HETATM   15  C6  UNL     1      31.101  25.695  43.846  1.00  0.00     0.156 A 
HETATM   16  C8  UNL     1      30.061  24.812  44.022  1.00  0.00     0.149 A 
HETATM   17  N7  UNL     1      29.074  24.697  44.944  1.00  0.00    -0.218 N 
HETATM   18  N8  UNL     1      28.841  25.468  45.994  1.00  0.00    -0.232 N 
ATOM     19  H8  UNL     1      29.456  26.261  46.174  1.00  0.00     0.209 HD
HETATM   20  N9  UNL     1      27.824  25.236  46.825  1.00  0.00    -0.271 N 
ATOM     21  H9  UNL     1      27.675  25.853  47.624  1.00  0.00     0.190 HD
ENDROOT
BRANCH  15  22
HETATM   22  N6  UNL     1      31.290  26.670  44.662  1.00  0.00    -0.318 N 
ATOM     23  H6  UNL     1      31.938  26.519  45.435  1.00  0.00     0.169 HD
BRANCH  22  24
HETATM   24  C7  UNL     1      30.675  27.923  44.572  1.00  0.00     0.354 C 
HETATM   25  O1  UNL     1      29.913  28.319  45.477  1.00  0.00    -0.283 OA
ENDBRANCH  22  24
ENDBRANCH  15  22
BRANCH   1  26
HETATM   26  N1  UNL     1      26.001  23.938  47.396  1.00  0.00    -0.384 N 
ATOM     27  H12 UNL     1      25.453  23.082  47.322  1.00  0.00     0.157 HD
ATOM     28  H11 UNL     1      25.741  24.607  48.121  1.00  0.00     0.157 HD
ENDBRANCH   1  26
TORSDOF 3
ENDMDL
