MODEL 1
REMARK VINA RESULT: -6.708995536      0.000      0.000
REMARK  4 active torsions:
REMARK  status: ('A' for Active; 'I' for Inactive)
REMARK    1  A    between atoms: O1_2  and  C2_3 
REMARK       I    between atoms: C2_3  and  N1_5 
REMARK    2  A    between atoms: N1_5  and  C3_7 
REMARK    3  A    between atoms: C6_14  and  N4_15 
REMARK    4  A    between atoms: N4_15  and  N5_17 
ROOT
HETATM    1  C3  UNL     1      30.589  26.446  43.609  1.00  0.00     0.147 C 
HETATM    2  C4  UNL     1      29.362  27.117  43.774  1.00  0.00     0.151 C 
HETATM    3  N2  UNL     1      29.041  28.140  42.845  1.00  0.00    -0.080 NA
HETATM    4  N3  UNL     1      28.471  26.835  44.760  1.00  0.00    -0.307 N 
ATOM      5  H3  UNL     1      27.619  27.395  44.743  1.00  0.00     0.170 HD
HETATM    6  C5  UNL     1      28.541  25.917  45.772  1.00  0.00     0.292 C 
HETATM    7  O3  UNL     1      27.518  25.855  46.502  1.00  0.00    -0.264 OA
HETATM    8  C6  UNL     1      29.567  25.056  46.101  1.00  0.00     0.192 C 
HETATM    9  N6  UNL     1      30.828  25.046  45.618  1.00  0.00    -0.302 N 
ATOM     10  H6  UNL     1      31.480  24.375  46.025  1.00  0.00     0.171 HD
HETATM   11  C7  UNL     1      31.297  25.850  44.642  1.00  0.00     0.277 C 
HETATM   12  O4  UNL     1      32.549  26.113  44.649  1.00  0.00    -0.266 OA
ENDROOT
BRANCH   1  13
HETATM   13  N1  UNL     1      31.073  26.460  42.306  1.00  0.00    -0.295 N 
HETATM   14  C2  UNL     1      31.369  25.398  41.438  1.00  0.00     0.365 C 
HETATM   15  O2  UNL     1      31.202  24.213  41.770  1.00  0.00    -0.238 OA
ATOM     16  H1  UNL     1      31.240  27.389  41.919  1.00  0.00     0.171 HD
BRANCH  14  17
HETATM   17  O1  UNL     1      31.869  25.599  40.146  1.00  0.00    -0.309 OA
HETATM   18  C1  UNL     1      32.977  24.917  39.644  1.00  0.00     0.215 C 
ENDBRANCH  14  17
ENDBRANCH   1  13
BRANCH   8  19
HETATM   19  N4  UNL     1      29.286  24.157  46.974  1.00  0.00    -0.287 N 
ATOM     20  H4  UNL     1      29.757  24.201  47.878  1.00  0.00     0.188 HD
BRANCH  19  21
HETATM   21  N5  UNL     1      28.379  23.130  46.758  1.00  0.00    -0.343 N 
ATOM     22  H52 UNL     1      28.764  22.207  46.554  1.00  0.00     0.176 HD
ATOM     23  H51 UNL     1      27.367  23.249  46.794  1.00  0.00     0.176 HD
ENDBRANCH  19  21
ENDBRANCH   8  19
TORSDOF 4
ENDMDL
MODEL 2
REMARK VINA RESULT: -6.676150843      2.124      2.582
REMARK  4 active torsions:
REMARK  status: ('A' for Active; 'I' for Inactive)
REMARK    1  A    between atoms: O1_2  and  C2_3 
REMARK       I    between atoms: C2_3  and  N1_5 
REMARK    2  A    between atoms: N1_5  and  C3_7 
REMARK    3  A    between atoms: C6_14  and  N4_15 
REMARK    4  A    between atoms: N4_15  and  N5_17 
ROOT
HETATM    1  C3  UNL     1      31.443  25.061  43.239  1.00  0.00     0.147 C 
HETATM    2  C4  UNL     1      31.756  26.006  44.236  1.00  0.00     0.151 C 
HETATM    3  N2  UNL     1      33.122  26.334  44.426  1.00  0.00    -0.080 NA
HETATM    4  N3  UNL     1      30.828  26.621  45.014  1.00  0.00    -0.307 N 
ATOM      5  H3  UNL     1      31.204  27.293  45.683  1.00  0.00     0.170 HD
HETATM    6  C5  UNL     1      29.468  26.480  45.039  1.00  0.00     0.292 C 
HETATM    7  O3  UNL     1      28.871  27.241  45.844  1.00  0.00    -0.264 OA
HETATM    8  C6  UNL     1      28.665  25.626  44.311  1.00  0.00     0.192 C 
HETATM    9  N6  UNL     1      29.046  24.590  43.534  1.00  0.00    -0.302 N 
ATOM     10  H6  UNL     1      28.308  24.021  43.118  1.00  0.00     0.171 HD
HETATM   11  C7  UNL     1      30.321  24.245  43.262  1.00  0.00     0.277 C 
HETATM   12  O4  UNL     1      30.552  23.017  42.989  1.00  0.00    -0.266 OA
ENDROOT
BRANCH   1  13
HETATM   13  N1  UNL     1      32.387  24.975  42.222  1.00  0.00    -0.295 N 
HETATM   14  C2  UNL     1      32.246  25.154  40.838  1.00  0.00     0.365 C 
HETATM   15  O2  UNL     1      31.156  25.449  40.322  1.00  0.00    -0.238 OA
ATOM     16  H1  UNL     1      33.331  24.746  42.531  1.00  0.00     0.171 HD
BRANCH  14  17
HETATM   17  O1  UNL     1      33.318  25.013  39.948  1.00  0.00    -0.309 OA
HETATM   18  C1  UNL     1      33.278  25.467  38.630  1.00  0.00     0.215 C 
ENDBRANCH  14  17
ENDBRANCH   1  13
BRANCH   8  19
HETATM   19  N4  UNL     1      27.402  25.846  44.384  1.00  0.00    -0.287 N 
ATOM     20  H4  UNL     1      26.999  26.546  43.761  1.00  0.00     0.188 HD
BRANCH  19  21
HETATM   21  N5  UNL     1      26.553  25.186  45.261  1.00  0.00    -0.343 N 
ATOM     22  H52 UNL     1      26.833  25.155  46.242  1.00  0.00     0.176 HD
ATOM     23  H51 UNL     1      25.680  24.740  44.979  1.00  0.00     0.176 HD
ENDBRANCH  19  21
ENDBRANCH   8  19
TORSDOF 4
ENDMDL
MODEL 3
REMARK VINA RESULT: -6.646708650      2.387      5.814
REMARK  4 active torsions:
REMARK  status: ('A' for Active; 'I' for Inactive)
REMARK    1  A    between atoms: O1_2  and  C2_3 
REMARK       I    between atoms: C2_3  and  N1_5 
REMARK    2  A    between atoms: N1_5  and  C3_7 
REMARK    3  A    between atoms: C6_14  and  N4_15 
REMARK    4  A    between atoms: N4_15  and  N5_17 
ROOT
HETATM    1  C3  UNL     1      30.732  24.809  43.459  1.00  0.00     0.147 C 
HETATM    2  C4  UNL     1      30.243  23.586  42.962  1.00  0.00     0.151 C 
HETATM    3  N2  UNL     1      29.362  22.844  43.791  1.00  0.00    -0.080 NA
HETATM    4  N3  UNL     1      30.558  23.084  41.740  1.00  0.00    -0.307 N 
ATOM      5  H3  UNL     1      30.115  22.194  41.513  1.00  0.00     0.170 HD
HETATM    6  C5  UNL     1      31.377  23.588  40.767  1.00  0.00     0.292 C 
HETATM    7  O3  UNL     1      31.421  22.909  39.709  1.00  0.00    -0.264 OA
HETATM    8  C6  UNL     1      32.156  24.726  40.784  1.00  0.00     0.192 C 
HETATM    9  N6  UNL     1      32.444  25.518  41.840  1.00  0.00    -0.302 N 
ATOM     10  H6  UNL     1      33.095  26.288  41.683  1.00  0.00     0.171 HD
HETATM   11  C7  UNL     1      31.942  25.376  43.083  1.00  0.00     0.277 C 
HETATM   12  O4  UNL     1      32.651  25.808  44.056  1.00  0.00    -0.266 OA
ENDROOT
BRANCH   1  13
HETATM   13  N1  UNL     1      29.912  25.405  44.410  1.00  0.00    -0.295 N 
HETATM   14  C2  UNL     1      29.897  25.269  45.806  1.00  0.00     0.365 C 
HETATM   15  O2  UNL     1      30.703  24.537  46.403  1.00  0.00    -0.238 OA
ATOM     16  H1  UNL     1      29.211  26.043  44.034  1.00  0.00     0.171 HD
BRANCH  14  17
HETATM   17  O1  UNL     1      28.979  25.945  46.618  1.00  0.00    -0.309 OA
HETATM   18  C1  UNL     1      27.722  25.430  46.938  1.00  0.00     0.215 C 
ENDBRANCH  14  17
ENDBRANCH   1  13
BRANCH   8  19
HETATM   19  N4  UNL     1      32.669  25.071  39.659  1.00  0.00    -0.287 N 
ATOM     20  H4  UNL     1      32.074  25.558  38.989  1.00  0.00     0.188 HD
BRANCH  19  21
HETATM   21  N5  UNL     1      33.986  24.821  39.302  1.00  0.00    -0.343 N 
ATOM     22  H52 UNL     1      34.147  24.409  38.383  1.00  0.00     0.176 HD
ATOM     23  H51 UNL     1      34.785  25.026  39.903  1.00  0.00     0.176 HD
ENDBRANCH  19  21
ENDBRANCH   8  19
TORSDOF 4
ENDMDL
MODEL 4
REMARK VINA RESULT: -6.585629951      3.300      6.332
REMARK  4 active torsions:
REMARK  status: ('A' for Active; 'I' for Inactive)
REMARK    1  A    between atoms: O1_2  and  C2_3 
REMARK       I    between atoms: C2_3  and  N1_5 
REMARK    2  A    between atoms: N1_5  and  C3_7 
REMARK    3  A    between atoms: C6_14  and  N4_15 
REMARK    4  A    between atoms: N4_15  and  N5_17 
ROOT
HETATM    1  C3  UNL     1      30.065  24.571  40.944  1.00  0.00     0.147 C 
HETATM    2  C4  UNL     1      29.655  24.268  39.631  1.00  0.00     0.151 C 
HETATM    3  N2  UNL     1      28.267  24.095  39.398  1.00  0.00    -0.080 NA
HETATM    4  N3  UNL     1      30.508  24.142  38.581  1.00  0.00    -0.307 N 
ATOM      5  H3  UNL     1      30.063  23.935  37.687  1.00  0.00     0.170 HD
HETATM    6  C5  UNL     1      31.871  24.250  38.537  1.00  0.00     0.292 C 
HETATM    7  O3  UNL     1      32.375  24.136  37.390  1.00  0.00    -0.264 OA
HETATM    8  C6  UNL     1      32.764  24.465  39.566  1.00  0.00     0.192 C 
HETATM    9  N6  UNL     1      32.522  24.431  40.895  1.00  0.00    -0.302 N 
ATOM     10  H6  UNL     1      33.320  24.550  41.519  1.00  0.00     0.171 HD
HETATM   11  C7  UNL     1      31.312  24.254  41.464  1.00  0.00     0.277 C 
HETATM   12  O4  UNL     1      31.283  23.728  42.630  1.00  0.00    -0.266 OA
ENDROOT
BRANCH   1  13
HETATM   13  N1  UNL     1      29.089  25.191  41.715  1.00  0.00    -0.295 N 
HETATM   14  C2  UNL     1      29.122  26.412  42.406  1.00  0.00     0.365 C 
HETATM   15  O2  UNL     1      30.121  27.148  42.392  1.00  0.00    -0.238 OA
ATOM     16  H1  UNL     1      28.211  24.679  41.790  1.00  0.00     0.171 HD
BRANCH  14  17
HETATM   17  O1  UNL     1      28.035  26.881  43.154  1.00  0.00    -0.309 OA
HETATM   18  C1  UNL     1      26.728  26.436  42.959  1.00  0.00     0.215 C 
ENDBRANCH  14  17
ENDBRANCH   1  13
BRANCH   8  19
HETATM   19  N4  UNL     1      33.970  24.728  39.216  1.00  0.00    -0.287 N 
ATOM     20  H4  UNL     1      34.261  25.705  39.190  1.00  0.00     0.188 HD
BRANCH  19  21
HETATM   21  N5  UNL     1      34.903  23.759  38.872  1.00  0.00    -0.343 N 
ATOM     22  H52 UNL     1      34.868  23.400  37.918  1.00  0.00     0.176 HD
ATOM     23  H51 UNL     1      35.607  23.395  39.515  1.00  0.00     0.176 HD
ENDBRANCH  19  21
ENDBRANCH   8  19
TORSDOF 4
ENDMDL
MODEL 5
REMARK VINA RESULT: -6.447889438      2.325      5.245
REMARK  4 active torsions:
REMARK  status: ('A' for Active; 'I' for Inactive)
REMARK    1  A    between atoms: O1_2  and  C2_3 
REMARK       I    between atoms: C2_3  and  N1_5 
REMARK    2  A    between atoms: N1_5  and  C3_7 
REMARK    3  A    between atoms: C6_14  and  N4_15 
REMARK    4  A    between atoms: N4_15  and  N5_17 
ROOT
HETATM    1  C3  UNL     1      29.064  25.386  44.180  1.00  0.00     0.147 C 
HETATM    2  C4  UNL     1      29.802  26.037  45.188  1.00  0.00     0.151 C 
HETATM    3  N2  UNL     1      29.104  26.451  46.351  1.00  0.00    -0.080 NA
HETATM    4  N3  UNL     1      31.136  26.282  45.112  1.00  0.00    -0.307 N 
ATOM      5  H3  UNL     1      31.535  26.749  45.926  1.00  0.00     0.170 HD
HETATM    6  C5  UNL     1      32.027  25.998  44.113  1.00  0.00     0.292 C 
HETATM    7  O3  UNL     1      33.221  26.302  44.367  1.00  0.00    -0.264 OA
HETATM    8  C6  UNL     1      31.801  25.430  42.877  1.00  0.00     0.192 C 
HETATM    9  N6  UNL     1      30.614  25.190  42.279  1.00  0.00    -0.302 N 
ATOM     10  H6  UNL     1      30.635  24.821  41.328  1.00  0.00     0.171 HD
HETATM   11  C7  UNL     1      29.403  25.397  42.835  1.00  0.00     0.277 C 
HETATM   12  O4  UNL     1      28.427  25.640  42.044  1.00  0.00    -0.266 OA
ENDROOT
BRANCH   1  13
HETATM   13  N1  UNL     1      27.918  24.746  44.639  1.00  0.00    -0.295 N 
HETATM   14  C2  UNL     1      27.760  23.484  45.230  1.00  0.00     0.365 C 
HETATM   15  O2  UNL     1      28.725  22.732  45.439  1.00  0.00    -0.238 OA
ATOM     16  H1  UNL     1      27.056  25.279  44.528  1.00  0.00     0.171 HD
BRANCH  14  17
HETATM   17  O1  UNL     1      26.511  22.989  45.622  1.00  0.00    -0.309 OA
HETATM   18  C1  UNL     1      25.410  23.809  45.865  1.00  0.00     0.215 C 
ENDBRANCH  14  17
ENDBRANCH   1  13
BRANCH   8  19
HETATM   19  N4  UNL     1      32.848  25.090  42.217  1.00  0.00    -0.287 N 
ATOM     20  H4  UNL     1      33.728  25.001  42.724  1.00  0.00     0.188 HD
BRANCH  19  21
HETATM   21  N5  UNL     1      32.850  24.834  40.853  1.00  0.00    -0.343 N 
ATOM     22  H52 UNL     1      33.314  25.517  40.253  1.00  0.00     0.176 HD
ATOM     23  H51 UNL     1      32.420  24.011  40.429  1.00  0.00     0.176 HD
ENDBRANCH  19  21
ENDBRANCH   8  19
TORSDOF 4
ENDMDL
