MODEL 1
REMARK VINA RESULT: -7.104230889      0.000      0.000
REMARK  6 active torsions:
REMARK  status: ('A' for Active; 'I' for Inactive)
REMARK    1  A    between atoms: C2_2  and  O1_3 
REMARK    2  A    between atoms: O1_3  and  C3_4 
REMARK    3  A    between atoms: C3_4  and  N1_5 
REMARK    4  A    between atoms: N3_9  and  N4_11 
REMARK    5  A    between atoms: C6_17  and  N6_18 
REMARK    6  A    between atoms: C8_23  and  N8_24 
ROOT
HETATM    1  N1  UNL     1      -1.240   7.044  11.862  1.00  0.00    -0.261 N 
HETATM    2  N2  UNL     1      -0.872   6.314  10.808  1.00  0.00    -0.278 N 
ATOM      3  H2  UNL     1      -0.882   5.295  10.783  1.00  0.00     0.189 HD
HETATM    4  C4  UNL     1      -0.491   7.090   9.787  1.00  0.00     0.164 A 
HETATM    5  N3  UNL     1      -0.073   6.763   8.614  1.00  0.00    -0.289 N 
ATOM      6  H3  UNL     1       0.180   7.489   7.943  1.00  0.00     0.188 HD
HETATM    7  C5  UNL     1      -0.618   8.406  10.202  1.00  0.00     0.128 A 
HETATM    8  N5  UNL     1      -0.371   9.560   9.565  1.00  0.00    -0.186 N 
ATOM      9  H5  UNL     1      -0.025   9.568   8.606  1.00  0.00     0.184 HD
HETATM   10  C6  UNL     1      -0.595  10.708  10.236  1.00  0.00     0.679 A 
HETATM   11  N7  UNL     1      -1.053  10.672  11.501  1.00  0.00    -0.175 N 
ATOM     12  H7  UNL     1      -1.214  11.557  11.982  1.00  0.00     0.186 HD
HETATM   13  C8  UNL     1      -1.310   9.531  12.164  1.00  0.00     0.145 A 
HETATM   14  C9  UNL     1      -1.088   8.331  11.504  1.00  0.00     0.128 A 
ENDROOT
BRANCH   5  15
HETATM   15  N4  UNL     1       0.034   5.403   8.252  1.00  0.00    -0.344 N 
ATOM     16  H42 UNL     1      -0.657   5.006   7.615  1.00  0.00     0.176 HD
ATOM     17  H41 UNL     1       0.791   4.832   8.625  1.00  0.00     0.176 HD
ENDBRANCH   5  15
BRANCH   1  18
HETATM   18  C3  UNL     1      -1.702   6.525  13.147  1.00  0.00     0.317 C 
BRANCH  18  19
HETATM   19  O1  UNL     1      -3.035   6.853  13.259  1.00  0.00    -0.371 OA
BRANCH  19  20
HETATM   20  C2  UNL     1      -3.540   6.701  14.533  1.00  0.00     0.165 C 
HETATM   21  C1  UNL     1      -4.639   5.688  14.640  1.00  0.00     0.033 C 
ENDBRANCH  19  20
ENDBRANCH  18  19
ENDBRANCH   1  18
BRANCH  10  22
HETATM   22  N6  UNL     1      -0.380  11.857   9.688  1.00  0.00    -0.230 N 
HETATM   23  C7  UNL     1      -0.496  11.991   8.244  1.00  0.00     0.165 C 
ATOM     24  H6  UNL     1      -0.131  12.663  10.262  1.00  0.00     0.177 HD
ENDBRANCH  10  22
BRANCH  13  25
HETATM   25  N8  UNL     1      -1.749   9.509  13.367  1.00  0.00    -0.383 N 
ATOM     26  H82 UNL     1      -1.944  10.391  13.842  1.00  0.00     0.157 HD
ATOM     27  H81 UNL     1      -1.914   8.644  13.882  1.00  0.00     0.157 HD
ENDBRANCH  13  25
TORSDOF 6
ENDMDL
MODEL 2
REMARK VINA RESULT: -6.937557686      1.174      1.770
REMARK  6 active torsions:
REMARK  status: ('A' for Active; 'I' for Inactive)
REMARK    1  A    between atoms: C2_2  and  O1_3 
REMARK    2  A    between atoms: O1_3  and  C3_4 
REMARK    3  A    between atoms: C3_4  and  N1_5 
REMARK    4  A    between atoms: N3_9  and  N4_11 
REMARK    5  A    between atoms: C6_17  and  N6_18 
REMARK    6  A    between atoms: C8_23  and  N8_24 
ROOT
HETATM    1  N1  UNL     1      -1.177   6.943  11.657  1.00  0.00    -0.261 N 
HETATM    2  N2  UNL     1      -0.739   6.261  10.597  1.00  0.00    -0.278 N 
ATOM      3  H2  UNL     1      -0.738   5.244  10.528  1.00  0.00     0.189 HD
HETATM    4  C4  UNL     1      -0.302   7.083   9.637  1.00  0.00     0.164 A 
HETATM    5  N3  UNL     1       0.191   6.810   8.478  1.00  0.00    -0.289 N 
ATOM      6  H3  UNL     1       0.479   7.566   7.857  1.00  0.00     0.188 HD
HETATM    7  C5  UNL     1      -0.466   8.379  10.099  1.00  0.00     0.128 A 
HETATM    8  N5  UNL     1      -0.190   9.561   9.529  1.00  0.00    -0.186 N 
ATOM      9  H5  UNL     1       0.214   9.614   8.595  1.00  0.00     0.184 HD
HETATM   10  C6  UNL     1      -0.466  10.678  10.234  1.00  0.00     0.679 A 
HETATM   11  N7  UNL     1      -1.001  10.583  11.465  1.00  0.00    -0.175 N 
ATOM     12  H7  UNL     1      -1.199  11.446  11.973  1.00  0.00     0.186 HD
HETATM   13  C8  UNL     1      -1.288   9.413  12.061  1.00  0.00     0.145 A 
HETATM   14  C9  UNL     1      -1.015   8.244  11.364  1.00  0.00     0.128 A 
ENDROOT
BRANCH   5  15
HETATM   15  N4  UNL     1       0.332   5.468   8.066  1.00  0.00    -0.344 N 
ATOM     16  H42 UNL     1       0.998   5.247   7.326  1.00  0.00     0.176 HD
ATOM     17  H41 UNL     1      -0.225   4.736   8.504  1.00  0.00     0.176 HD
ENDBRANCH   5  15
BRANCH   1  18
HETATM   18  C3  UNL     1      -1.714   6.364  12.887  1.00  0.00     0.317 C 
BRANCH  18  19
HETATM   19  O1  UNL     1      -0.726   6.456  13.842  1.00  0.00    -0.371 OA
BRANCH  19  20
HETATM   20  C2  UNL     1      -0.160   5.244  14.174  1.00  0.00     0.165 C 
HETATM   21  C1  UNL     1       1.283   5.116  13.789  1.00  0.00     0.033 C 
ENDBRANCH  19  20
ENDBRANCH  18  19
ENDBRANCH   1  18
BRANCH  10  22
HETATM   22  N6  UNL     1      -0.227  11.850   9.750  1.00  0.00    -0.230 N 
HETATM   23  C7  UNL     1      -0.565  12.132   8.364  1.00  0.00     0.165 C 
ATOM     24  H6  UNL     1       0.193  12.573  10.335  1.00  0.00     0.177 HD
ENDBRANCH  10  22
BRANCH  13  25
HETATM   25  N8  UNL     1      -1.801   9.336  13.232  1.00  0.00    -0.383 N 
ATOM     26  H82 UNL     1      -2.489  10.032  13.521  1.00  0.00     0.157 HD
ATOM     27  H81 UNL     1      -1.552   8.606  13.900  1.00  0.00     0.157 HD
ENDBRANCH  13  25
TORSDOF 6
ENDMDL
MODEL 3
REMARK VINA RESULT: -6.828308576      2.299      4.872
REMARK  6 active torsions:
REMARK  status: ('A' for Active; 'I' for Inactive)
REMARK    1  A    between atoms: C2_2  and  O1_3 
REMARK    2  A    between atoms: O1_3  and  C3_4 
REMARK    3  A    between atoms: C3_4  and  N1_5 
REMARK    4  A    between atoms: N3_9  and  N4_11 
REMARK    5  A    between atoms: C6_17  and  N6_18 
REMARK    6  A    between atoms: C8_23  and  N8_24 
ROOT
HETATM    1  N1  UNL     1      -1.159   8.972   9.377  1.00  0.00    -0.261 N 
HETATM    2  N2  UNL     1      -0.703   7.918   8.699  1.00  0.00    -0.278 N 
ATOM      3  H2  UNL     1      -0.741   7.827   7.684  1.00  0.00     0.189 HD
HETATM    4  C4  UNL     1      -0.189   6.996   9.520  1.00  0.00     0.164 A 
HETATM    5  N3  UNL     1       0.343   5.854   9.249  1.00  0.00    -0.289 N 
ATOM      6  H3  UNL     1       0.692   5.264  10.004  1.00  0.00     0.188 HD
HETATM    7  C5  UNL     1      -0.317   7.479  10.812  1.00  0.00     0.128 A 
HETATM    8  N5  UNL     1       0.039   6.951  11.992  1.00  0.00    -0.186 N 
ATOM      9  H5  UNL     1       0.487   6.036  12.045  1.00  0.00     0.184 HD
HETATM   10  C6  UNL     1      -0.216   7.668  13.105  1.00  0.00     0.679 A 
HETATM   11  N7  UNL     1      -0.807   8.874  13.009  1.00  0.00    -0.175 N 
ATOM     12  H7  UNL     1      -0.986   9.393  13.868  1.00  0.00     0.186 HD
HETATM   13  C8  UNL     1      -1.174   9.429  11.841  1.00  0.00     0.145 A 
HETATM   14  C9  UNL     1      -0.928   8.716  10.676  1.00  0.00     0.128 A 
ENDROOT
BRANCH   5  15
HETATM   15  N4  UNL     1       0.444   5.419   7.911  1.00  0.00    -0.344 N 
ATOM     16  H42 UNL     1      -0.166   4.667   7.589  1.00  0.00     0.176 HD
ATOM     17  H41 UNL     1       1.118   5.852   7.280  1.00  0.00     0.176 HD
ENDBRANCH   5  15
BRANCH   1  18
HETATM   18  C3  UNL     1      -1.791  10.156   8.800  1.00  0.00     0.317 C 
BRANCH  18  19
HETATM   19  O1  UNL     1      -0.872  10.732   7.952  1.00  0.00    -0.371 OA
BRANCH  19  20
HETATM   20  C2  UNL     1      -0.438  11.975   8.362  1.00  0.00     0.165 C 
HETATM   21  C1  UNL     1       0.542  11.939   9.495  1.00  0.00     0.033 C 
ENDBRANCH  19  20
ENDBRANCH  18  19
ENDBRANCH   1  18
BRANCH  10  22
HETATM   22  N6  UNL     1       0.099   7.224  14.275  1.00  0.00    -0.230 N 
HETATM   23  C7  UNL     1      -0.943   6.692  15.139  1.00  0.00     0.165 C 
ATOM     24  H6  UNL     1       1.069   7.245  14.590  1.00  0.00     0.177 HD
ENDBRANCH  10  22
BRANCH  13  25
HETATM   25  N8  UNL     1      -1.733  10.579  11.762  1.00  0.00    -0.383 N 
ATOM     26  H82 UNL     1      -2.619  10.735  12.244  1.00  0.00     0.157 HD
ATOM     27  H81 UNL     1      -1.334  11.355  11.235  1.00  0.00     0.157 HD
ENDBRANCH  13  25
TORSDOF 6
ENDMDL
MODEL 4
REMARK VINA RESULT: -6.773513716      1.974      4.585
REMARK  6 active torsions:
REMARK  status: ('A' for Active; 'I' for Inactive)
REMARK    1  A    between atoms: C2_2  and  O1_3 
REMARK    2  A    between atoms: O1_3  and  C3_4 
REMARK    3  A    between atoms: C3_4  and  N1_5 
REMARK    4  A    between atoms: N3_9  and  N4_11 
REMARK    5  A    between atoms: C6_17  and  N6_18 
REMARK    6  A    between atoms: C8_23  and  N8_24 
ROOT
HETATM    1  N1  UNL     1      -0.430   9.077   9.547  1.00  0.00    -0.261 N 
HETATM    2  N2  UNL     1      -0.119   7.987   8.843  1.00  0.00    -0.278 N 
ATOM      3  H2  UNL     1       0.276   8.002   7.903  1.00  0.00     0.189 HD
HETATM    4  C4  UNL     1      -0.392   6.871   9.528  1.00  0.00     0.164 A 
HETATM    5  N3  UNL     1      -0.235   5.637   9.192  1.00  0.00    -0.289 N 
ATOM      6  H3  UNL     1      -0.497   4.896   9.842  1.00  0.00     0.188 HD
HETATM    7  C5  UNL     1      -0.910   7.257  10.754  1.00  0.00     0.128 A 
HETATM    8  N5  UNL     1      -1.337   6.534  11.800  1.00  0.00    -0.186 N 
ATOM      9  H5  UNL     1      -1.314   5.515  11.779  1.00  0.00     0.184 HD
HETATM   10  C6  UNL     1      -1.796   7.200  12.879  1.00  0.00     0.679 A 
HETATM   11  N7  UNL     1      -1.814   8.546  12.883  1.00  0.00    -0.175 N 
ATOM     12  H7  UNL     1      -2.166   9.022  13.714  1.00  0.00     0.186 HD
HETATM   13  C8  UNL     1      -1.393   9.297  11.850  1.00  0.00     0.145 A 
HETATM   14  C9  UNL     1      -0.916   8.643  10.723  1.00  0.00     0.128 A 
ENDROOT
BRANCH   5  15
HETATM   15  N4  UNL     1       0.299   5.309   7.928  1.00  0.00    -0.344 N 
ATOM     16  H42 UNL     1       0.379   6.041   7.221  1.00  0.00     0.176 HD
ATOM     17  H41 UNL     1       0.598   4.355   7.730  1.00  0.00     0.176 HD
ENDBRANCH   5  15
BRANCH   1  18
HETATM   18  C3  UNL     1      -0.271  10.460   9.103  1.00  0.00     0.317 C 
BRANCH  18  19
HETATM   19  O1  UNL     1      -1.534  10.998   9.000  1.00  0.00    -0.371 OA
BRANCH  19  20
HETATM   20  C2  UNL     1      -2.296  10.441   7.995  1.00  0.00     0.165 C 
HETATM   21  C1  UNL     1      -3.595   9.857   8.463  1.00  0.00     0.033 C 
ENDBRANCH  19  20
ENDBRANCH  18  19
ENDBRANCH   1  18
BRANCH  10  22
HETATM   22  N6  UNL     1      -2.222   6.572  13.922  1.00  0.00    -0.230 N 
HETATM   23  C7  UNL     1      -3.623   6.679  14.296  1.00  0.00     0.165 C 
ATOM     24  H6  UNL     1      -1.582   6.005  14.479  1.00  0.00     0.177 HD
ENDBRANCH  10  22
BRANCH  13  25
HETATM   25  N8  UNL     1      -1.412  10.577  11.867  1.00  0.00    -0.383 N 
ATOM     26  H82 UNL     1      -1.307  11.088  10.990  1.00  0.00     0.157 HD
ATOM     27  H81 UNL     1      -1.527  11.120  12.723  1.00  0.00     0.157 HD
ENDBRANCH  13  25
TORSDOF 6
ENDMDL
MODEL 5
REMARK VINA RESULT: -6.761355694      1.916      3.871
REMARK  6 active torsions:
REMARK  status: ('A' for Active; 'I' for Inactive)
REMARK    1  A    between atoms: C2_2  and  O1_3 
REMARK    2  A    between atoms: O1_3  and  C3_4 
REMARK    3  A    between atoms: C3_4  and  N1_5 
REMARK    4  A    between atoms: N3_9  and  N4_11 
REMARK    5  A    between atoms: C6_17  and  N6_18 
REMARK    6  A    between atoms: C8_23  and  N8_24 
ROOT
HETATM    1  N1  UNL     1      -1.002   6.985  11.579  1.00  0.00    -0.261 N 
HETATM    2  N2  UNL     1      -1.463   7.323  12.784  1.00  0.00    -0.278 N 
ATOM      3  H2  UNL     1      -1.738   6.653  13.503  1.00  0.00     0.189 HD
HETATM    4  C4  UNL     1      -1.519   8.651  12.931  1.00  0.00     0.164 A 
HETATM    5  N3  UNL     1      -1.904   9.355  13.938  1.00  0.00    -0.289 N 
ATOM      6  H3  UNL     1      -1.883  10.373  13.885  1.00  0.00     0.188 HD
HETATM    7  C5  UNL     1      -1.065   9.214  11.748  1.00  0.00     0.128 A 
HETATM    8  N5  UNL     1      -0.919  10.494  11.379  1.00  0.00    -0.186 N 
ATOM      9  H5  UNL     1      -1.162  11.256  12.013  1.00  0.00     0.184 HD
HETATM   10  C6  UNL     1      -0.443  10.742  10.142  1.00  0.00     0.679 A 
HETATM   11  N7  UNL     1      -0.129   9.720   9.324  1.00  0.00    -0.175 N 
ATOM     12  H7  UNL     1       0.231   9.938   8.395  1.00  0.00     0.186 HD
HETATM   13  C8  UNL     1      -0.263   8.427   9.667  1.00  0.00     0.145 A 
HETATM   14  C9  UNL     1      -0.753   8.137  10.933  1.00  0.00     0.128 A 
ENDROOT
BRANCH   5  15
HETATM   15  N4  UNL     1      -2.357   8.721  15.115  1.00  0.00    -0.344 N 
ATOM     16  H42 UNL     1      -1.807   7.954  15.505  1.00  0.00     0.176 HD
ATOM     17  H41 UNL     1      -3.219   9.028  15.563  1.00  0.00     0.176 HD
ENDBRANCH   5  15
BRANCH   1  18
HETATM   18  C3  UNL     1      -0.820   5.624  11.079  1.00  0.00     0.317 C 
BRANCH  18  19
HETATM   19  O1  UNL     1       0.525   5.344  11.151  1.00  0.00    -0.371 OA
BRANCH  19  20
HETATM   20  C2  UNL     1       0.848   4.410  12.113  1.00  0.00     0.165 C 
HETATM   21  C1  UNL     1       1.665   4.955  13.246  1.00  0.00     0.033 C 
ENDBRANCH  19  20
ENDBRANCH  18  19
ENDBRANCH   1  18
BRANCH  10  22
HETATM   22  N6  UNL     1      -0.276  11.949   9.717  1.00  0.00    -0.230 N 
HETATM   23  C7  UNL     1      -0.499  12.247   8.311  1.00  0.00     0.165 C 
ATOM     24  H6  UNL     1       0.008  12.687  10.362  1.00  0.00     0.177 HD
ENDBRANCH  10  22
BRANCH  13  25
HETATM   25  N8  UNL     1       0.043   7.463   8.881  1.00  0.00    -0.383 N 
ATOM     26  H82 UNL     1       0.196   6.533   9.271  1.00  0.00     0.157 HD
ATOM     27  H81 UNL     1       0.143   7.579   7.873  1.00  0.00     0.157 HD
ENDBRANCH  13  25
TORSDOF 6
ENDMDL
