MODEL 1
REMARK VINA RESULT: -7.221280768      0.000      0.000
REMARK  4 active torsions:
REMARK  status: ('A' for Active; 'I' for Inactive)
REMARK    1  A    between atoms: C2_2  and  N1_3 
REMARK    2  A    between atoms: C2_2  and  C3_7 
REMARK    3  A    between atoms: C3_7  and  N2_8 
REMARK    4  A    between atoms: N2_8  and  C4_10 
ROOT
HETATM    1  C4  UNL     1      -0.758   7.594  14.148  1.00  0.00     0.083 A 
HETATM    2  C5  UNL     1       0.188   6.708  13.613  1.00  0.00     0.146 A 
HETATM    3  C6  UNL     1       0.777   7.052  12.342  1.00  0.00     0.120 C 
HETATM    4  N3  UNL     1       1.268   7.331  11.328  1.00  0.00    -0.190 NA
HETATM    5  N4  UNL     1       0.525   5.584  14.273  1.00  0.00    -0.306 N 
HETATM    6  C7  UNL     1       1.508   4.697  13.684  1.00  0.00     0.160 C 
HETATM    7  C8  UNL     1       0.001   5.234  15.449  1.00  0.00     0.277 A 
HETATM    8  O1  UNL     1       0.337   4.168  16.047  1.00  0.00    -0.265 OA
HETATM    9  C9  UNL     1      -0.939   6.090  16.006  1.00  0.00     0.133 A 
HETATM   10  N5  UNL     1      -1.617   5.998  17.163  1.00  0.00    -0.293 N 
ATOM     11  H5  UNL     1      -1.547   5.244  17.847  1.00  0.00     0.187 HD
HETATM   12  N6  UNL     1      -2.383   7.053  17.249  1.00  0.00    -0.284 N 
ATOM     13  H6  UNL     1      -3.010   7.240  18.032  1.00  0.00     0.188 HD
HETATM   14  C10 UNL     1      -2.247   7.871  16.175  1.00  0.00     0.128 A 
HETATM   15  N7  UNL     1      -2.868   8.979  16.000  1.00  0.00    -0.384 N 
ATOM     16  H71 UNL     1      -2.766   9.594  15.193  1.00  0.00     0.157 HD
ATOM     17  H72 UNL     1      -3.555   9.424  16.608  1.00  0.00     0.157 HD
HETATM   18  C11 UNL     1      -1.322   7.273  15.357  1.00  0.00     0.072 A 
ENDROOT
BRANCH   1  19
HETATM   19  N2  UNL     1      -1.085   8.760  13.425  1.00  0.00    -0.385 N 
ATOM     20  H2  UNL     1      -0.542   9.608  13.583  1.00  0.00     0.159 HD
BRANCH  19  21
HETATM   21  C3  UNL     1      -2.172   8.788  12.462  1.00  0.00     0.152 C 
BRANCH  21  22
HETATM   22  C2  UNL     1      -1.916   9.791  11.390  1.00  0.00     0.197 C 
HETATM   23  C1  UNL     1      -2.541   9.435  10.083  1.00  0.00     0.041 C 
BRANCH  22  24
HETATM   24  N1  UNL     1      -0.500  10.051  11.228  1.00  0.00    -0.074 N 
ATOM     25  H13 UNL     1      -0.159  10.725  11.913  1.00  0.00     0.274 HD
ATOM     26  H12 UNL     1       0.066   9.249  11.507  1.00  0.00     0.274 HD
ATOM     27  H11 UNL     1      -0.294  10.345  10.273  1.00  0.00     0.274 HD
ENDBRANCH  22  24
ENDBRANCH  21  22
ENDBRANCH  19  21
ENDBRANCH   1  19
TORSDOF 4
ENDMDL
MODEL 2
REMARK VINA RESULT: -7.141693431      1.421      1.662
REMARK  4 active torsions:
REMARK  status: ('A' for Active; 'I' for Inactive)
REMARK    1  A    between atoms: C2_2  and  N1_3 
REMARK    2  A    between atoms: C2_2  and  C3_7 
REMARK    3  A    between atoms: C3_7  and  N2_8 
REMARK    4  A    between atoms: N2_8  and  C4_10 
ROOT
HETATM    1  C4  UNL     1      -0.847   7.465  14.180  1.00  0.00     0.083 A 
HETATM    2  C5  UNL     1      -0.437   6.126  14.130  1.00  0.00     0.146 A 
HETATM    3  C6  UNL     1       0.605   5.785  13.192  1.00  0.00     0.120 C 
HETATM    4  N3  UNL     1       1.456   5.505  12.453  1.00  0.00    -0.190 NA
HETATM    5  N4  UNL     1      -1.003   5.205  14.931  1.00  0.00    -0.306 N 
HETATM    6  C7  UNL     1      -0.549   3.831  14.846  1.00  0.00     0.160 C 
HETATM    7  C8  UNL     1      -1.969   5.484  15.809  1.00  0.00     0.277 A 
HETATM    8  O1  UNL     1      -2.484   4.595  16.551  1.00  0.00    -0.265 OA
HETATM    9  C9  UNL     1      -2.398   6.802  15.884  1.00  0.00     0.133 A 
HETATM   10  N5  UNL     1      -3.335   7.366  16.666  1.00  0.00    -0.293 N 
ATOM     11  H5  UNL     1      -3.910   6.888  17.360  1.00  0.00     0.187 HD
HETATM   12  N6  UNL     1      -3.371   8.638  16.372  1.00  0.00    -0.284 N 
ATOM     13  H6  UNL     1      -3.997   9.308  16.818  1.00  0.00     0.188 HD
HETATM   14  C10 UNL     1      -2.479   8.964  15.403  1.00  0.00     0.128 A 
HETATM   15  N7  UNL     1      -2.293  10.140  14.928  1.00  0.00    -0.384 N 
ATOM     16  H71 UNL     1      -1.622  10.385  14.199  1.00  0.00     0.157 HD
ATOM     17  H72 UNL     1      -2.769  11.007  15.176  1.00  0.00     0.157 HD
HETATM   18  C11 UNL     1      -1.838   7.797  15.069  1.00  0.00     0.072 A 
ENDROOT
BRANCH   1  19
HETATM   19  N2  UNL     1      -0.231   8.400  13.322  1.00  0.00    -0.385 N 
ATOM     20  H2  UNL     1       0.477   9.028  13.702  1.00  0.00     0.159 HD
BRANCH  19  21
HETATM   21  C3  UNL     1      -0.574   8.494  11.914  1.00  0.00     0.152 C 
BRANCH  21  22
HETATM   22  C2  UNL     1      -1.654   9.496  11.689  1.00  0.00     0.197 C 
HETATM   23  C1  UNL     1      -2.622   9.096  10.626  1.00  0.00     0.041 C 
BRANCH  22  24
HETATM   24  N1  UNL     1      -1.114  10.814  11.423  1.00  0.00    -0.074 N 
ATOM     25  H13 UNL     1      -1.575  11.531  11.984  1.00  0.00     0.274 HD
ATOM     26  H12 UNL     1      -0.168  10.916  11.791  1.00  0.00     0.274 HD
ATOM     27  H11 UNL     1      -1.158  11.027  10.427  1.00  0.00     0.274 HD
ENDBRANCH  22  24
ENDBRANCH  21  22
ENDBRANCH  19  21
ENDBRANCH   1  19
TORSDOF 4
ENDMDL
MODEL 3
REMARK VINA RESULT: -7.127586221      2.596      3.691
REMARK  4 active torsions:
REMARK  status: ('A' for Active; 'I' for Inactive)
REMARK    1  A    between atoms: C2_2  and  N1_3 
REMARK    2  A    between atoms: C2_2  and  C3_7 
REMARK    3  A    between atoms: C3_7  and  N2_8 
REMARK    4  A    between atoms: N2_8  and  C4_10 
ROOT
HETATM    1  C4  UNL     1      -0.273   7.370  10.448  1.00  0.00     0.083 A 
HETATM    2  C5  UNL     1       0.453   6.194  10.217  1.00  0.00     0.146 A 
HETATM    3  C6  UNL     1       0.575   5.745   8.851  1.00  0.00     0.120 C 
HETATM    4  N3  UNL     1       0.692   5.386   7.753  1.00  0.00    -0.190 NA
HETATM    5  N4  UNL     1       1.010   5.520  11.240  1.00  0.00    -0.306 N 
HETATM    6  C7  UNL     1       1.752   4.307  10.957  1.00  0.00     0.160 C 
HETATM    7  C8  UNL     1       0.917   5.905  12.514  1.00  0.00     0.277 A 
HETATM    8  O1  UNL     1       1.452   5.249  13.459  1.00  0.00    -0.265 OA
HETATM    9  C9  UNL     1       0.206   7.067  12.777  1.00  0.00     0.133 A 
HETATM   10  N5  UNL     1      -0.043   7.686  13.944  1.00  0.00    -0.293 N 
ATOM     11  H5  UNL     1       0.265   7.382  14.867  1.00  0.00     0.187 HD
HETATM   12  N6  UNL     1      -0.752   8.750  13.675  1.00  0.00    -0.284 N 
ATOM     13  H6  UNL     1      -1.083   9.408  14.381  1.00  0.00     0.188 HD
HETATM   14  C10 UNL     1      -0.998   8.877  12.347  1.00  0.00     0.128 A 
HETATM   15  N7  UNL     1      -1.659   9.831  11.800  1.00  0.00    -0.384 N 
ATOM     16  H71 UNL     1      -1.844   9.926  10.801  1.00  0.00     0.157 HD
ATOM     17  H72 UNL     1      -2.109  10.629  12.248  1.00  0.00     0.157 HD
HETATM   18  C11 UNL     1      -0.392   7.804  11.744  1.00  0.00     0.072 A 
ENDROOT
BRANCH   1  19
HETATM   19  N2  UNL     1      -0.842   8.047   9.348  1.00  0.00    -0.385 N 
ATOM     20  H2  UNL     1      -1.686   7.668   8.918  1.00  0.00     0.159 HD
BRANCH  19  21
HETATM   21  C3  UNL     1      -0.263   9.265   8.812  1.00  0.00     0.152 C 
BRANCH  21  22
HETATM   22  C2  UNL     1      -1.283  10.071   8.083  1.00  0.00     0.197 C 
HETATM   23  C1  UNL     1      -1.273  11.516   8.454  1.00  0.00     0.041 C 
BRANCH  22  24
HETATM   24  N1  UNL     1      -2.612   9.512   8.231  1.00  0.00    -0.074 N 
ATOM     25  H13 UNL     1      -2.622   8.731   8.887  1.00  0.00     0.274 HD
ATOM     26  H12 UNL     1      -3.233  10.145   8.736  1.00  0.00     0.274 HD
ATOM     27  H11 UNL     1      -2.995   9.248   7.324  1.00  0.00     0.274 HD
ENDBRANCH  22  24
ENDBRANCH  21  22
ENDBRANCH  19  21
ENDBRANCH   1  19
TORSDOF 4
ENDMDL
MODEL 4
REMARK VINA RESULT: -7.122737705      2.422      5.050
REMARK  4 active torsions:
REMARK  status: ('A' for Active; 'I' for Inactive)
REMARK    1  A    between atoms: C2_2  and  N1_3 
REMARK    2  A    between atoms: C2_2  and  C3_7 
REMARK    3  A    between atoms: C3_7  and  N2_8 
REMARK    4  A    between atoms: N2_8  and  C4_10 
ROOT
HETATM    1  C4  UNL     1      -0.349   8.038  12.228  1.00  0.00     0.083 A 
HETATM    2  C5  UNL     1       0.124   6.719  12.205  1.00  0.00     0.146 A 
HETATM    3  C6  UNL     1       0.345   6.069  13.475  1.00  0.00     0.120 C 
HETATM    4  N3  UNL     1       0.507   5.534  14.492  1.00  0.00    -0.190 NA
HETATM    5  N4  UNL     1       0.360   6.094  11.036  1.00  0.00    -0.306 N 
HETATM    6  C7  UNL     1       0.850   4.731  11.059  1.00  0.00     0.160 C 
HETATM    7  C8  UNL     1       0.169   6.664   9.845  1.00  0.00     0.277 A 
HETATM    8  O1  UNL     1       0.400   6.050   8.759  1.00  0.00    -0.265 OA
HETATM    9  C9  UNL     1      -0.301   7.969   9.831  1.00  0.00     0.133 A 
HETATM   10  N5  UNL     1      -0.586   8.778   8.796  1.00  0.00    -0.293 N 
ATOM     11  H5  UNL     1      -0.494   8.548   7.807  1.00  0.00     0.187 HD
HETATM   12  N6  UNL     1      -1.003   9.912   9.293  1.00  0.00    -0.284 N 
ATOM     13  H6  UNL     1      -1.289  10.711   8.728  1.00  0.00     0.188 HD
HETATM   14  C10 UNL     1      -1.011   9.902  10.650  1.00  0.00     0.128 A 
HETATM   15  N7  UNL     1      -1.382  10.875  11.399  1.00  0.00    -0.384 N 
ATOM     16  H71 UNL     1      -1.388  10.867  12.419  1.00  0.00     0.157 HD
ATOM     17  H72 UNL     1      -1.716  11.797  11.122  1.00  0.00     0.157 HD
HETATM   18  C11 UNL     1      -0.561   8.661  11.024  1.00  0.00     0.072 A 
ENDROOT
BRANCH   1  19
HETATM   19  N2  UNL     1      -0.582   8.657  13.473  1.00  0.00    -0.385 N 
ATOM     20  H2  UNL     1       0.215   8.912  14.056  1.00  0.00     0.159 HD
BRANCH  19  21
HETATM   21  C3  UNL     1      -1.924   8.942  13.951  1.00  0.00     0.152 C 
BRANCH  21  22
HETATM   22  C2  UNL     1      -2.402   7.879  14.879  1.00  0.00     0.197 C 
HETATM   23  C1  UNL     1      -3.436   6.987  14.277  1.00  0.00     0.041 C 
BRANCH  22  24
HETATM   24  N1  UNL     1      -2.870   8.434  16.133  1.00  0.00    -0.074 N 
ATOM     25  H13 UNL     1      -3.684   9.034  16.000  1.00  0.00     0.274 HD
ATOM     26  H12 UNL     1      -3.299   7.722  16.724  1.00  0.00     0.274 HD
ATOM     27  H11 UNL     1      -2.116   8.922  16.616  1.00  0.00     0.274 HD
ENDBRANCH  22  24
ENDBRANCH  21  22
ENDBRANCH  19  21
ENDBRANCH   1  19
TORSDOF 4
ENDMDL
MODEL 5
REMARK VINA RESULT: -7.112063941      2.680      3.683
REMARK  4 active torsions:
REMARK  status: ('A' for Active; 'I' for Inactive)
REMARK    1  A    between atoms: C2_2  and  N1_3 
REMARK    2  A    between atoms: C2_2  and  C3_7 
REMARK    3  A    between atoms: C3_7  and  N2_8 
REMARK    4  A    between atoms: N2_8  and  C4_10 
ROOT
HETATM    1  C4  UNL     1      -0.554   7.939  10.575  1.00  0.00     0.083 A 
HETATM    2  C5  UNL     1      -0.316   6.579  10.332  1.00  0.00     0.146 A 
HETATM    3  C6  UNL     1       0.268   6.222   9.063  1.00  0.00     0.120 C 
HETATM    4  N3  UNL     1       0.755   5.929   8.050  1.00  0.00    -0.190 NA
HETATM    5  N4  UNL     1      -0.627   5.653  11.258  1.00  0.00    -0.306 N 
HETATM    6  C7  UNL     1      -0.364   4.258  10.966  1.00  0.00     0.160 C 
HETATM    7  C8  UNL     1      -1.169   5.946  12.442  1.00  0.00     0.277 A 
HETATM    8  O1  UNL     1      -1.451   5.052  13.295  1.00  0.00    -0.265 OA
HETATM    9  C9  UNL     1      -1.416   7.284  12.714  1.00  0.00     0.133 A 
HETATM   10  N5  UNL     1      -1.940   7.865  13.807  1.00  0.00    -0.293 N 
ATOM     11  H5  UNL     1      -2.258   7.388  14.651  1.00  0.00     0.187 HD
HETATM   12  N6  UNL     1      -1.966   9.152  13.588  1.00  0.00    -0.284 N 
ATOM     13  H6  UNL     1      -2.318   9.837  14.258  1.00  0.00     0.188 HD
HETATM   14  C10 UNL     1      -1.471   9.472  12.367  1.00  0.00     0.128 A 
HETATM   15  N7  UNL     1      -1.367  10.660  11.893  1.00  0.00    -0.384 N 
ATOM     16  H71 UNL     1      -0.995  10.900  10.974  1.00  0.00     0.157 HD
ATOM     17  H72 UNL     1      -1.636  11.542  12.329  1.00  0.00     0.157 HD
HETATM   18  C11 UNL     1      -1.109   8.285  11.780  1.00  0.00     0.072 A 
ENDROOT
BRANCH   1  19
HETATM   19  N2  UNL     1      -0.216   8.878   9.578  1.00  0.00    -0.385 N 
ATOM     20  H2  UNL     1       0.729   9.260   9.559  1.00  0.00     0.159 HD
BRANCH  19  21
HETATM   21  C3  UNL     1      -1.175   9.317   8.579  1.00  0.00     0.152 C 
BRANCH  21  22
HETATM   22  C2  UNL     1      -1.074  10.785   8.345  1.00  0.00     0.197 C 
HETATM   23  C1  UNL     1       0.187  11.385   8.871  1.00  0.00     0.041 C 
BRANCH  22  24
HETATM   24  N1  UNL     1      -2.231  11.489   8.858  1.00  0.00    -0.074 N 
ATOM     25  H13 UNL     1      -1.963  12.300   9.416  1.00  0.00     0.274 HD
ATOM     26  H12 UNL     1      -2.737  11.974   8.117  1.00  0.00     0.274 HD
ATOM     27  H11 UNL     1      -2.838  10.856   9.379  1.00  0.00     0.274 HD
ENDBRANCH  22  24
ENDBRANCH  21  22
ENDBRANCH  19  21
ENDBRANCH   1  19
TORSDOF 4
ENDMDL
