MODEL 1
REMARK VINA RESULT: -8.009572358      0.000      0.000
REMARK  7 active torsions:
REMARK  status: ('A' for Active; 'I' for Inactive)
REMARK    1  A    between atoms: C2_2  and  N1_3 
REMARK    2  A    between atoms: C2_2  and  C4_7 
REMARK    3  A    between atoms: N1_3  and  C3_5 
REMARK    4  A    between atoms: C4_7  and  O2_8 
REMARK    5  A    between atoms: C4_7  and  N2_10 
REMARK    6  A    between atoms: N2_10  and  C5_12 
REMARK    7  A    between atoms: C9_22  and  N6_23 
ROOT
HETATM    1  C5  UNL     1      -0.376   8.062  11.559  1.00  0.00     0.119 A 
HETATM    2  C6  UNL     1      -0.955   7.270  10.604  1.00  0.00     0.138 A 
HETATM    3  N3  UNL     1      -1.302   7.785   9.388  1.00  0.00    -0.347 N 
ATOM      4  H3  UNL     1      -1.731   7.182   8.687  1.00  0.00     0.167 HD
HETATM    5  C7  UNL     1      -1.081   9.086   9.107  1.00  0.00     0.137 A 
HETATM    6  N4  UNL     1      -1.416   9.619   7.913  1.00  0.00    -0.337 N 
ATOM      7  H4  UNL     1      -1.846   9.008   7.218  1.00  0.00     0.168 HD
HETATM    8  C8  UNL     1      -1.218  10.898   7.590  1.00  0.00     0.183 A 
HETATM    9  N5  UNL     1      -0.653  11.687   8.514  1.00  0.00    -0.337 N 
ATOM     10  H5  UNL     1      -0.493  12.668   8.287  1.00  0.00     0.168 HD
HETATM   11  C9  UNL     1      -0.282  11.229   9.752  1.00  0.00     0.131 A 
HETATM   12  C10 UNL     1      -0.499   9.905  10.057  1.00  0.00     0.122 A 
HETATM   13  N7  UNL     1      -0.167   9.364  11.249  1.00  0.00    -0.335 N 
ATOM     14  H7  UNL     1       0.263   9.966  11.951  1.00  0.00     0.168 HD
ENDROOT
BRANCH   1  15
HETATM   15  N2  UNL     1      -0.052   7.571  12.699  1.00  0.00    -0.347 N 
ATOM     16  H2  UNL     1       0.748   6.938  12.738  1.00  0.00     0.163 HD
BRANCH  15  17
HETATM   17  C4  UNL     1      -0.747   7.856  13.925  1.00  0.00     0.241 C 
BRANCH  17  18
HETATM   18  C2  UNL     1      -1.811   6.835  14.239  1.00  0.00     0.128 C 
HETATM   19  C1  UNL     1      -3.195   7.339  14.015  1.00  0.00     0.036 C 
BRANCH  18  20
HETATM   20  N1  UNL     1      -1.664   6.355  15.581  1.00  0.00    -0.360 N 
ATOM     21  H1  UNL     1      -1.276   5.424  15.737  1.00  0.00     0.162 HD
BRANCH  20  22
HETATM   22  C3  UNL     1      -2.046   7.144  16.703  1.00  0.00     0.348 C 
HETATM   23  O1  UNL     1      -1.279   7.273  17.694  1.00  0.00    -0.284 OA
ENDBRANCH  20  22
ENDBRANCH  18  20
ENDBRANCH  17  18
BRANCH  17  24
HETATM   24  O2  UNL     1      -1.327   9.122  13.862  1.00  0.00    -0.375 OA
ATOM     25  H2  UNL     1      -0.643   9.780  13.829  1.00  0.00     0.212 HD
ENDBRANCH  17  24
ENDBRANCH  15  17
ENDBRANCH   1  15
BRANCH  11  26
HETATM   26  N6  UNL     1       0.251  12.019  10.589  1.00  0.00    -0.383 N 
ATOM     27  H62 UNL     1      -0.074  12.981  10.690  1.00  0.00     0.157 HD
ATOM     28  H61 UNL     1       1.018  11.698  11.178  1.00  0.00     0.157 HD
ENDBRANCH  11  26
TORSDOF 7
ENDMDL
MODEL 2
REMARK VINA RESULT: -7.656674385      1.788      1.843
REMARK  7 active torsions:
REMARK  status: ('A' for Active; 'I' for Inactive)
REMARK    1  A    between atoms: C2_2  and  N1_3 
REMARK    2  A    between atoms: C2_2  and  C4_7 
REMARK    3  A    between atoms: N1_3  and  C3_5 
REMARK    4  A    between atoms: C4_7  and  O2_8 
REMARK    5  A    between atoms: C4_7  and  N2_10 
REMARK    6  A    between atoms: N2_10  and  C5_12 
REMARK    7  A    between atoms: C9_22  and  N6_23 
ROOT
HETATM    1  C5  UNL     1      -1.703   9.289  12.346  1.00  0.00     0.119 A 
HETATM    2  C6  UNL     1      -2.530   8.476  11.618  1.00  0.00     0.138 A 
HETATM    3  N3  UNL     1      -2.633   8.620  10.264  1.00  0.00    -0.347 N 
ATOM      4  H3  UNL     1      -3.252   8.006   9.736  1.00  0.00     0.167 HD
HETATM    5  C7  UNL     1      -1.921   9.567   9.619  1.00  0.00     0.137 A 
HETATM    6  N4  UNL     1      -2.007   9.729   8.282  1.00  0.00    -0.337 N 
ATOM      7  H4  UNL     1      -2.629   9.111   7.762  1.00  0.00     0.168 HD
HETATM    8  C8  UNL     1      -1.323  10.651   7.602  1.00  0.00     0.183 A 
HETATM    9  N5  UNL     1      -0.510  11.455   8.299  1.00  0.00    -0.337 N 
ATOM     10  H5  UNL     1       0.021  12.167   7.799  1.00  0.00     0.168 HD
HETATM   11  C9  UNL     1      -0.363  11.361   9.659  1.00  0.00     0.131 A 
HETATM   12  C10 UNL     1      -1.081  10.400  10.334  1.00  0.00     0.122 A 
HETATM   13  N7  UNL     1      -1.002  10.232  11.672  1.00  0.00    -0.335 N 
ATOM     14  H7  UNL     1      -0.382  10.845  12.201  1.00  0.00     0.168 HD
ENDROOT
BRANCH   1  15
HETATM   15  N2  UNL     1      -1.611   9.148  13.617  1.00  0.00    -0.347 N 
ATOM     16  H2  UNL     1      -1.206   9.914  14.156  1.00  0.00     0.163 HD
BRANCH  15  17
HETATM   17  C4  UNL     1      -2.045   7.978  14.331  1.00  0.00     0.241 C 
BRANCH  17  18
HETATM   18  C2  UNL     1      -3.007   8.302  15.446  1.00  0.00     0.128 C 
HETATM   19  C1  UNL     1      -2.936   9.724  15.888  1.00  0.00     0.036 C 
BRANCH  18  20
HETATM   20  N1  UNL     1      -2.803   7.422  16.557  1.00  0.00    -0.360 N 
ATOM     21  H1  UNL     1      -1.942   7.497  17.100  1.00  0.00     0.162 HD
BRANCH  20  22
HETATM   22  C3  UNL     1      -3.770   6.444  16.923  1.00  0.00     0.348 C 
HETATM   23  O1  UNL     1      -5.002   6.706  16.881  1.00  0.00    -0.284 OA
ENDBRANCH  20  22
ENDBRANCH  18  20
ENDBRANCH  17  18
BRANCH  17  24
HETATM   24  O2  UNL     1      -0.945   7.301  14.853  1.00  0.00    -0.375 OA
ATOM     25  H2  UNL     1      -1.176   6.928  15.696  1.00  0.00     0.212 HD
ENDBRANCH  17  24
ENDBRANCH  15  17
ENDBRANCH   1  15
BRANCH  11  26
HETATM   26  N6  UNL     1       0.422  12.148  10.270  1.00  0.00    -0.383 N 
ATOM     27  H62 UNL     1       0.077  12.995  10.721  1.00  0.00     0.157 HD
ATOM     28  H61 UNL     1       1.419  11.939  10.319  1.00  0.00     0.157 HD
ENDBRANCH  11  26
TORSDOF 7
ENDMDL
MODEL 3
REMARK VINA RESULT: -7.652744618      1.305      1.630
REMARK  7 active torsions:
REMARK  status: ('A' for Active; 'I' for Inactive)
REMARK    1  A    between atoms: C2_2  and  N1_3 
REMARK    2  A    between atoms: C2_2  and  C4_7 
REMARK    3  A    between atoms: N1_3  and  C3_5 
REMARK    4  A    between atoms: C4_7  and  O2_8 
REMARK    5  A    between atoms: C4_7  and  N2_10 
REMARK    6  A    between atoms: N2_10  and  C5_12 
REMARK    7  A    between atoms: C9_22  and  N6_23 
ROOT
HETATM    1  C5  UNL     1      -0.144   7.971  11.387  1.00  0.00     0.119 A 
HETATM    2  C6  UNL     1      -0.732   7.212  10.411  1.00  0.00     0.138 A 
HETATM    3  N3  UNL     1      -1.164   7.784   9.249  1.00  0.00    -0.347 N 
ATOM      4  H3  UNL     1      -1.599   7.205   8.531  1.00  0.00     0.167 HD
HETATM    5  C7  UNL     1      -1.019   9.109   9.042  1.00  0.00     0.137 A 
HETATM    6  N4  UNL     1      -1.438   9.697   7.902  1.00  0.00    -0.337 N 
ATOM      7  H4  UNL     1      -1.873   9.110   7.190  1.00  0.00     0.168 HD
HETATM    8  C8  UNL     1      -1.317  11.002   7.653  1.00  0.00     0.183 A 
HETATM    9  N5  UNL     1      -0.744  11.760   8.599  1.00  0.00    -0.337 N 
ATOM     10  H5  UNL     1      -0.642  12.760   8.429  1.00  0.00     0.168 HD
HETATM   11  C9  UNL     1      -0.290  11.245   9.786  1.00  0.00     0.131 A 
HETATM   12  C10 UNL     1      -0.429   9.895  10.014  1.00  0.00     0.122 A 
HETATM   13  N7  UNL     1      -0.013   9.299  11.152  1.00  0.00    -0.335 N 
ATOM     14  H7  UNL     1       0.423   9.877  11.871  1.00  0.00     0.168 HD
ENDROOT
BRANCH   1  15
HETATM   15  N2  UNL     1       0.259   7.427  12.476  1.00  0.00    -0.347 N 
ATOM     16  H2  UNL     1       0.904   6.639  12.408  1.00  0.00     0.163 HD
BRANCH  15  17
HETATM   17  C4  UNL     1      -0.142   7.858  13.788  1.00  0.00     0.241 C 
BRANCH  17  18
HETATM   18  C2  UNL     1      -0.672   6.727  14.633  1.00  0.00     0.128 C 
HETATM   19  C1  UNL     1       0.404   5.893  15.241  1.00  0.00     0.036 C 
BRANCH  18  20
HETATM   20  N1  UNL     1      -1.569   5.910  13.872  1.00  0.00    -0.360 N 
ATOM     21  H1  UNL     1      -1.187   5.247  13.198  1.00  0.00     0.162 HD
BRANCH  20  22
HETATM   22  C3  UNL     1      -2.981   6.000  14.034  1.00  0.00     0.348 C 
HETATM   23  O1  UNL     1      -3.567   7.114  13.987  1.00  0.00    -0.284 OA
ENDBRANCH  20  22
ENDBRANCH  18  20
ENDBRANCH  17  18
BRANCH  17  24
HETATM   24  O2  UNL     1      -1.112   8.854  13.689  1.00  0.00    -0.375 OA
ATOM     25  H2  UNL     1      -0.742   9.610  13.247  1.00  0.00     0.212 HD
ENDBRANCH  17  24
ENDBRANCH  15  17
ENDBRANCH   1  15
BRANCH  11  26
HETATM   26  N6  UNL     1       0.246  12.008  10.646  1.00  0.00    -0.383 N 
ATOM     27  H62 UNL     1       0.578  12.939  10.395  1.00  0.00     0.157 HD
ATOM     28  H61 UNL     1       0.350  11.696  11.611  1.00  0.00     0.157 HD
ENDBRANCH  11  26
TORSDOF 7
ENDMDL
MODEL 4
REMARK VINA RESULT: -7.613459397      2.298      6.605
REMARK  7 active torsions:
REMARK  status: ('A' for Active; 'I' for Inactive)
REMARK    1  A    between atoms: C2_2  and  N1_3 
REMARK    2  A    between atoms: C2_2  and  C4_7 
REMARK    3  A    between atoms: N1_3  and  C3_5 
REMARK    4  A    between atoms: C4_7  and  O2_8 
REMARK    5  A    between atoms: C4_7  and  N2_10 
REMARK    6  A    between atoms: N2_10  and  C5_12 
REMARK    7  A    between atoms: C9_22  and  N6_23 
ROOT
HETATM    1  C5  UNL     1      -0.623   8.209  12.867  1.00  0.00     0.119 A 
HETATM    2  C6  UNL     1       0.127   7.069  12.980  1.00  0.00     0.138 A 
HETATM    3  N3  UNL     1       0.034   6.281  14.091  1.00  0.00    -0.347 N 
ATOM      4  H3  UNL     1       0.599   5.435  14.160  1.00  0.00     0.167 HD
HETATM    5  C7  UNL     1      -0.800   6.612  15.099  1.00  0.00     0.137 A 
HETATM    6  N4  UNL     1      -0.908   5.850  16.207  1.00  0.00    -0.337 N 
ATOM      7  H4  UNL     1      -0.339   5.005  16.267  1.00  0.00     0.168 HD
HETATM    8  C8  UNL     1      -1.717   6.137  17.228  1.00  0.00     0.183 A 
HETATM    9  N5  UNL     1      -2.458   7.249  17.134  1.00  0.00    -0.337 N 
ATOM     10  H5  UNL     1      -3.083   7.487  17.904  1.00  0.00     0.168 HD
HETATM   11  C9  UNL     1      -2.410   8.081  16.045  1.00  0.00     0.131 A 
HETATM   12  C10 UNL     1      -1.566   7.759  15.007  1.00  0.00     0.122 A 
HETATM   13  N7  UNL     1      -1.451   8.517  13.895  1.00  0.00    -0.335 N 
ATOM     14  H7  UNL     1      -2.015   9.363  13.826  1.00  0.00     0.168 HD
ENDROOT
BRANCH   1  15
HETATM   15  N2  UNL     1      -0.531   8.944  11.821  1.00  0.00    -0.347 N 
ATOM     16  H2  UNL     1       0.351   8.940  11.309  1.00  0.00     0.163 HD
BRANCH  15  17
HETATM   17  C4  UNL     1      -1.595   9.775  11.325  1.00  0.00     0.241 C 
BRANCH  17  18
HETATM   18  C2  UNL     1      -1.558   9.928   9.825  1.00  0.00     0.128 C 
HETATM   19  C1  UNL     1      -0.608   8.991   9.161  1.00  0.00     0.036 C 
BRANCH  18  20
HETATM   20  N1  UNL     1      -1.257  11.282   9.466  1.00  0.00    -0.360 N 
ATOM     21  H1  UNL     1      -2.018  11.958   9.393  1.00  0.00     0.162 HD
BRANCH  20  22
HETATM   22  C3  UNL     1       0.077  11.709   9.209  1.00  0.00     0.348 C 
HETATM   23  O1  UNL     1       0.788  12.198  10.128  1.00  0.00    -0.284 OA
ENDBRANCH  20  22
ENDBRANCH  18  20
ENDBRANCH  17  18
BRANCH  17  24
HETATM   24  O2  UNL     1      -1.536  11.034  11.919  1.00  0.00    -0.375 OA
ATOM     25  H2  UNL     1      -2.403  11.278  12.222  1.00  0.00     0.212 HD
ENDBRANCH  17  24
ENDBRANCH  15  17
ENDBRANCH   1  15
BRANCH  11  26
HETATM   26  N6  UNL     1      -3.134   9.122  16.007  1.00  0.00    -0.383 N 
ATOM     27  H62 UNL     1      -3.300   9.683  16.843  1.00  0.00     0.157 HD
ATOM     28  H61 UNL     1      -3.563   9.414  15.130  1.00  0.00     0.157 HD
ENDBRANCH  11  26
TORSDOF 7
ENDMDL
MODEL 5
REMARK VINA RESULT: -7.547864066      2.449      6.285
REMARK  7 active torsions:
REMARK  status: ('A' for Active; 'I' for Inactive)
REMARK    1  A    between atoms: C2_2  and  N1_3 
REMARK    2  A    between atoms: C2_2  and  C4_7 
REMARK    3  A    between atoms: N1_3  and  C3_5 
REMARK    4  A    between atoms: C4_7  and  O2_8 
REMARK    5  A    between atoms: C4_7  and  N2_10 
REMARK    6  A    between atoms: N2_10  and  C5_12 
REMARK    7  A    between atoms: C9_22  and  N6_23 
ROOT
HETATM    1  C5  UNL     1      -0.843   8.467  12.022  1.00  0.00     0.119 A 
HETATM    2  C6  UNL     1      -0.897   7.099  11.995  1.00  0.00     0.138 A 
HETATM    3  N3  UNL     1      -1.451   6.403  13.031  1.00  0.00    -0.347 N 
ATOM      4  H3  UNL     1      -1.484   5.385  12.995  1.00  0.00     0.167 HD
HETATM    5  C7  UNL     1      -1.956   7.052  14.100  1.00  0.00     0.137 A 
HETATM    6  N4  UNL     1      -2.508   6.386  15.136  1.00  0.00    -0.337 N 
ATOM      7  H4  UNL     1      -2.536   5.367  15.092  1.00  0.00     0.168 HD
HETATM    8  C8  UNL     1      -3.019   6.983  16.214  1.00  0.00     0.183 A 
HETATM    9  N5  UNL     1      -2.974   8.321  16.256  1.00  0.00    -0.337 N 
ATOM     10  H5  UNL     1      -3.359   8.798  17.071  1.00  0.00     0.168 HD
HETATM   11  C9  UNL     1      -2.432   9.077  15.249  1.00  0.00     0.131 A 
HETATM   12  C10 UNL     1      -1.912   8.433  14.150  1.00  0.00     0.122 A 
HETATM   13  N7  UNL     1      -1.357   9.091  13.109  1.00  0.00    -0.335 N 
ATOM     14  H7  UNL     1      -1.324  10.110  13.144  1.00  0.00     0.168 HD
ENDROOT
BRANCH   1  15
HETATM   15  N2  UNL     1      -0.321   9.115  11.046  1.00  0.00    -0.347 N 
ATOM     16  H2  UNL     1       0.589   8.809  10.701  1.00  0.00     0.163 HD
BRANCH  15  17
HETATM   17  C4  UNL     1      -0.939  10.245  10.409  1.00  0.00     0.241 C 
BRANCH  17  18
HETATM   18  C2  UNL     1      -0.685  10.282   8.922  1.00  0.00     0.128 C 
HETATM   19  C1  UNL     1      -0.564  11.666   8.381  1.00  0.00     0.036 C 
BRANCH  18  20
HETATM   20  N1  UNL     1      -1.702   9.557   8.221  1.00  0.00    -0.360 N 
ATOM     21  H1  UNL     1      -1.479   9.133   7.321  1.00  0.00     0.162 HD
BRANCH  20  22
HETATM   22  C3  UNL     1      -3.017   9.414   8.749  1.00  0.00     0.348 C 
HETATM   23  O1  UNL     1      -3.930  10.225   8.440  1.00  0.00    -0.284 OA
ENDBRANCH  20  22
ENDBRANCH  18  20
ENDBRANCH  17  18
BRANCH  17  24
HETATM   24  O2  UNL     1      -0.482  11.429  10.984  1.00  0.00    -0.375 OA
ATOM     25  H2  UNL     1      -1.125  11.744  11.608  1.00  0.00     0.212 HD
ENDBRANCH  17  24
ENDBRANCH  15  17
ENDBRANCH   1  15
BRANCH  11  26
HETATM   26  N6  UNL     1      -2.416  10.342  15.340  1.00  0.00    -0.383 N 
ATOM     27  H62 UNL     1      -3.281  10.884  15.336  1.00  0.00     0.157 HD
ATOM     28  H61 UNL     1      -1.529  10.837  15.421  1.00  0.00     0.157 HD
ENDBRANCH  11  26
TORSDOF 7
ENDMDL
