MODEL 1
REMARK VINA RESULT: -6.608299413      0.000      0.000
REMARK  6 active torsions:
REMARK  status: ('A' for Active; 'I' for Inactive)
REMARK       I    between atoms: N1_2  and  C2_4 
REMARK    1  A    between atoms: C2_4  and  C3_6 
REMARK    2  A    between atoms: C3_6  and  O3_8 
REMARK    3  A    between atoms: O3_8  and  C4_9 
REMARK    4  A    between atoms: C5_10  and  N2_11 
REMARK    5  A    between atoms: C8_16  and  N4_17 
REMARK    6  A    between atoms: C9_22  and  N6_23 
ROOT
HETATM    1  C4  UNL     1      -0.935   8.822  10.723  1.00  0.00     0.168 A 
HETATM    2  C5  UNL     1      -1.203   7.894   9.762  1.00  0.00     0.156 A 
HETATM    3  N3  UNL     1      -2.173   8.249   8.861  1.00  0.00    -0.174 N 
ATOM      4  H3  UNL     1      -2.414   7.591   8.120  1.00  0.00     0.186 HD
HETATM    5  C8  UNL     1      -2.820   9.422   8.912  1.00  0.00     0.679 A 
HETATM    6  N5  UNL     1      -2.526  10.317   9.880  1.00  0.00    -0.174 N 
ATOM      7  H5  UNL     1      -3.023  11.207   9.908  1.00  0.00     0.186 HD
HETATM    8  C9  UNL     1      -1.597  10.056  10.798  1.00  0.00     0.152 A 
ENDROOT
BRANCH   1   9
HETATM    9  O3  UNL     1       0.049   8.531  11.688  1.00  0.00    -0.263 OA
BRANCH   9  10
HETATM   10  C3  UNL     1      -0.295   7.703  12.758  1.00  0.00     0.356 C 
HETATM   11  O2  UNL     1       0.520   6.808  13.074  1.00  0.00    -0.253 OA
BRANCH  10  12
HETATM   12  C2  UNL     1      -1.528   7.840  13.497  1.00  0.00     0.317 C 
HETATM   13  N1  UNL     1      -2.475   6.788  13.493  1.00  0.00    -0.357 N 
HETATM   14  C1  UNL     1      -3.730   6.851  14.206  1.00  0.00     0.149 C 
ATOM     15  H1  UNL     1      -2.261   5.945  12.961  1.00  0.00     0.162 HD
HETATM   16  O1  UNL     1      -1.787   8.878  14.151  1.00  0.00    -0.262 OA
ENDBRANCH  10  12
ENDBRANCH   9  10
ENDBRANCH   1   9
BRANCH   2  17
HETATM   17  N2  UNL     1      -0.545   6.668   9.657  1.00  0.00    -0.373 N 
HETATM   18  C6  UNL     1      -0.941   5.393  10.155  1.00  0.00     0.150 C 
HETATM   19  C7  UNL     1       0.749   6.688   8.927  1.00  0.00     0.150 C 
ENDBRANCH   2  17
BRANCH   8  20
HETATM   20  N6  UNL     1      -1.286  10.870  11.730  1.00  0.00    -0.383 N 
ATOM     21  H62 UNL     1      -1.386  11.881  11.647  1.00  0.00     0.157 HD
ATOM     22  H61 UNL     1      -0.917  10.500  12.606  1.00  0.00     0.157 HD
ENDBRANCH   8  20
BRANCH   5  23
HETATM   23  N4  UNL     1      -3.722   9.735   8.060  1.00  0.00    -0.234 N 
ATOM     24  H42 UNL     1      -4.527   9.116   7.966  1.00  0.00     0.174 HD
ATOM     25  H41 UNL     1      -3.654  10.576   7.488  1.00  0.00     0.174 HD
ENDBRANCH   5  23
TORSDOF 6
ENDMDL
MODEL 2
REMARK VINA RESULT: -6.596874567      3.620      5.208
REMARK  6 active torsions:
REMARK  status: ('A' for Active; 'I' for Inactive)
REMARK       I    between atoms: N1_2  and  C2_4 
REMARK    1  A    between atoms: C2_4  and  C3_6 
REMARK    2  A    between atoms: C3_6  and  O3_8 
REMARK    3  A    between atoms: O3_8  and  C4_9 
REMARK    4  A    between atoms: C5_10  and  N2_11 
REMARK    5  A    between atoms: C8_16  and  N4_17 
REMARK    6  A    between atoms: C9_22  and  N6_23 
ROOT
HETATM    1  C4  UNL     1      -2.411   7.539  15.330  1.00  0.00     0.168 A 
HETATM    2  C5  UNL     1      -1.895   6.812  14.299  1.00  0.00     0.156 A 
HETATM    3  N3  UNL     1      -1.451   7.545  13.230  1.00  0.00    -0.174 N 
ATOM      4  H3  UNL     1      -1.055   7.050  12.430  1.00  0.00     0.186 HD
HETATM    5  C8  UNL     1      -1.515   8.883  13.188  1.00  0.00     0.679 A 
HETATM    6  N5  UNL     1      -2.032   9.570  14.229  1.00  0.00    -0.174 N 
ATOM      7  H5  UNL     1      -2.074  10.589  14.187  1.00  0.00     0.186 HD
HETATM    8  C9  UNL     1      -2.488   8.940  15.310  1.00  0.00     0.152 A 
ENDROOT
BRANCH   1   9
HETATM    9  O3  UNL     1      -2.891   6.858  16.466  1.00  0.00    -0.263 OA
BRANCH   9  10
HETATM   10  C3  UNL     1      -1.968   6.434  17.423  1.00  0.00     0.356 C 
HETATM   11  O2  UNL     1      -1.209   7.302  17.910  1.00  0.00    -0.253 OA
BRANCH  10  12
HETATM   12  C2  UNL     1      -1.862   5.064  17.864  1.00  0.00     0.317 C 
HETATM   13  N1  UNL     1      -0.682   4.617  18.505  1.00  0.00    -0.357 N 
HETATM   14  C1  UNL     1      -0.499   3.262  18.972  1.00  0.00     0.149 C 
ATOM     15  H1  UNL     1       0.077   5.283  18.643  1.00  0.00     0.162 HD
HETATM   16  O1  UNL     1      -2.797   4.246  17.693  1.00  0.00    -0.262 OA
ENDBRANCH  10  12
ENDBRANCH   9  10
ENDBRANCH   1   9
BRANCH   2  17
HETATM   17  N2  UNL     1      -1.791   5.419  14.304  1.00  0.00    -0.373 N 
HETATM   18  C6  UNL     1      -2.821   4.445  14.165  1.00  0.00     0.150 C 
HETATM   19  C7  UNL     1      -0.421   4.873  14.478  1.00  0.00     0.150 C 
ENDBRANCH   2  17
BRANCH   8  20
HETATM   20  N6  UNL     1      -2.985   9.546  16.316  1.00  0.00    -0.383 N 
ATOM     21  H62 UNL     1      -2.962   9.170  17.264  1.00  0.00     0.157 HD
ATOM     22  H61 UNL     1      -3.431  10.453  16.177  1.00  0.00     0.157 HD
ENDBRANCH   8  20
BRANCH   5  23
HETATM   23  N4  UNL     1      -1.093   9.550  12.181  1.00  0.00    -0.234 N 
ATOM     24  H42 UNL     1      -0.626   9.039  11.431  1.00  0.00     0.174 HD
ATOM     25  H41 UNL     1      -1.215  10.560  12.113  1.00  0.00     0.174 HD
ENDBRANCH   5  23
TORSDOF 6
ENDMDL
MODEL 3
REMARK VINA RESULT: -6.349553362      1.552      1.978
REMARK  6 active torsions:
REMARK  status: ('A' for Active; 'I' for Inactive)
REMARK       I    between atoms: N1_2  and  C2_4 
REMARK    1  A    between atoms: C2_4  and  C3_6 
REMARK    2  A    between atoms: C3_6  and  O3_8 
REMARK    3  A    between atoms: O3_8  and  C4_9 
REMARK    4  A    between atoms: C5_10  and  N2_11 
REMARK    5  A    between atoms: C8_16  and  N4_17 
REMARK    6  A    between atoms: C9_22  and  N6_23 
ROOT
HETATM    1  C4  UNL     1      -0.827   8.924  11.050  1.00  0.00     0.168 A 
HETATM    2  C5  UNL     1      -0.549   8.068  10.028  1.00  0.00     0.156 A 
HETATM    3  N3  UNL     1      -0.811   8.550   8.773  1.00  0.00    -0.174 N 
ATOM      4  H3  UNL     1      -0.621   7.950   7.970  1.00  0.00     0.186 HD
HETATM    5  C8  UNL     1      -1.306   9.777   8.553  1.00  0.00     0.679 A 
HETATM    6  N5  UNL     1      -1.568  10.598   9.592  1.00  0.00    -0.174 N 
ATOM      7  H5  UNL     1      -1.943  11.530   9.413  1.00  0.00     0.186 HD
HETATM    8  C9  UNL     1      -1.345  10.213  10.847  1.00  0.00     0.152 A 
ENDROOT
BRANCH   1   9
HETATM    9  O3  UNL     1      -0.587   8.501  12.372  1.00  0.00    -0.263 OA
BRANCH   9  10
HETATM   10  C3  UNL     1      -1.571   7.750  13.017  1.00  0.00     0.356 C 
HETATM   11  O2  UNL     1      -2.762   8.079  12.819  1.00  0.00    -0.253 OA
BRANCH  10  12
HETATM   12  C2  UNL     1      -1.272   6.635  13.883  1.00  0.00     0.317 C 
HETATM   13  N1  UNL     1      -1.236   6.818  15.286  1.00  0.00    -0.357 N 
HETATM   14  C1  UNL     1      -0.943   5.752  16.216  1.00  0.00     0.149 C 
ATOM     15  H1  UNL     1      -1.425   7.748  15.658  1.00  0.00     0.162 HD
HETATM   16  O1  UNL     1      -1.041   5.492  13.422  1.00  0.00    -0.262 OA
ENDBRANCH  10  12
ENDBRANCH   9  10
ENDBRANCH   1   9
BRANCH   2  17
HETATM   17  N2  UNL     1      -0.017   6.789  10.206  1.00  0.00    -0.373 N 
HETATM   18  C6  UNL     1       1.273   6.414  10.679  1.00  0.00     0.150 C 
HETATM   19  C7  UNL     1      -0.916   5.660   9.853  1.00  0.00     0.150 C 
ENDBRANCH   2  17
BRANCH   8  20
HETATM   20  N6  UNL     1      -1.577  10.953  11.859  1.00  0.00    -0.383 N 
ATOM     21  H62 UNL     1      -1.197  10.768  12.787  1.00  0.00     0.157 HD
ATOM     22  H61 UNL     1      -2.171  11.774  11.745  1.00  0.00     0.157 HD
ENDBRANCH   8  20
BRANCH   5  23
HETATM   23  N4  UNL     1      -1.542  10.210   7.372  1.00  0.00    -0.234 N 
ATOM     24  H42 UNL     1      -1.264   9.625   6.584  1.00  0.00     0.174 HD
ATOM     25  H41 UNL     1      -1.996  11.108   7.208  1.00  0.00     0.174 HD
ENDBRANCH   5  23
TORSDOF 6
ENDMDL
MODEL 4
REMARK VINA RESULT: -6.336072400      1.183      1.802
REMARK  6 active torsions:
REMARK  status: ('A' for Active; 'I' for Inactive)
REMARK       I    between atoms: N1_2  and  C2_4 
REMARK    1  A    between atoms: C2_4  and  C3_6 
REMARK    2  A    between atoms: C3_6  and  O3_8 
REMARK    3  A    between atoms: O3_8  and  C4_9 
REMARK    4  A    between atoms: C5_10  and  N2_11 
REMARK    5  A    between atoms: C8_16  and  N4_17 
REMARK    6  A    between atoms: C9_22  and  N6_23 
ROOT
HETATM    1  C4  UNL     1      -0.978   8.836  10.745  1.00  0.00     0.168 A 
HETATM    2  C5  UNL     1      -1.221   7.908   9.778  1.00  0.00     0.156 A 
HETATM    3  N3  UNL     1      -2.160   8.265   8.847  1.00  0.00    -0.174 N 
ATOM      4  H3  UNL     1      -2.381   7.606   8.100  1.00  0.00     0.186 HD
HETATM    5  C8  UNL     1      -2.800   9.443   8.873  1.00  0.00     0.679 A 
HETATM    6  N5  UNL     1      -2.531  10.339   9.847  1.00  0.00    -0.174 N 
ATOM      7  H5  UNL     1      -3.023  11.232   9.856  1.00  0.00     0.186 HD
HETATM    8  C9  UNL     1      -1.634  10.076  10.795  1.00  0.00     0.152 A 
ENDROOT
BRANCH   1   9
HETATM    9  O3  UNL     1      -0.027   8.542  11.742  1.00  0.00    -0.263 OA
BRANCH   9  10
HETATM   10  C3  UNL     1      -0.467   7.939  12.921  1.00  0.00     0.356 C 
HETATM   11  O2  UNL     1      -1.477   8.431  13.473  1.00  0.00    -0.253 OA
BRANCH  10  12
HETATM   12  C2  UNL     1       0.184   6.795  13.513  1.00  0.00     0.317 C 
HETATM   13  N1  UNL     1      -0.053   6.470  14.870  1.00  0.00    -0.357 N 
HETATM   14  C1  UNL     1       0.562   5.343  15.533  1.00  0.00     0.149 C 
ATOM     15  H1  UNL     1      -0.688   7.060  15.406  1.00  0.00     0.162 HD
HETATM   16  O1  UNL     1       0.964   6.070  12.851  1.00  0.00    -0.262 OA
ENDBRANCH  10  12
ENDBRANCH   9  10
ENDBRANCH   1   9
BRANCH   2  17
HETATM   17  N2  UNL     1      -0.568   6.676   9.699  1.00  0.00    -0.373 N 
HETATM   18  C6  UNL     1      -0.994   5.404  10.178  1.00  0.00     0.150 C 
HETATM   19  C7  UNL     1       0.754   6.688   9.022  1.00  0.00     0.150 C 
ENDBRANCH   2  17
BRANCH   8  20
HETATM   20  N6  UNL     1      -1.347  10.890  11.733  1.00  0.00    -0.383 N 
ATOM     21  H62 UNL     1      -1.354  11.903  11.618  1.00  0.00     0.157 HD
ATOM     22  H61 UNL     1      -1.096  10.519  12.650  1.00  0.00     0.157 HD
ENDBRANCH   8  20
BRANCH   5  23
HETATM   23  N4  UNL     1      -3.673   9.759   7.992  1.00  0.00    -0.234 N 
ATOM     24  H42 UNL     1      -3.347  10.215   7.140  1.00  0.00     0.174 HD
ATOM     25  H41 UNL     1      -4.665   9.565   8.122  1.00  0.00     0.174 HD
ENDBRANCH   5  23
TORSDOF 6
ENDMDL
MODEL 5
REMARK VINA RESULT: -6.247955554      1.386      1.632
REMARK  6 active torsions:
REMARK  status: ('A' for Active; 'I' for Inactive)
REMARK       I    between atoms: N1_2  and  C2_4 
REMARK    1  A    between atoms: C2_4  and  C3_6 
REMARK    2  A    between atoms: C3_6  and  O3_8 
REMARK    3  A    between atoms: O3_8  and  C4_9 
REMARK    4  A    between atoms: C5_10  and  N2_11 
REMARK    5  A    between atoms: C8_16  and  N4_17 
REMARK    6  A    between atoms: C9_22  and  N6_23 
ROOT
HETATM    1  C4  UNL     1      -0.825   8.961  10.848  1.00  0.00     0.168 A 
HETATM    2  C5  UNL     1      -0.696   8.120   9.784  1.00  0.00     0.156 A 
HETATM    3  N3  UNL     1      -1.014   8.663   8.567  1.00  0.00    -0.174 N 
ATOM      4  H3  UNL     1      -0.935   8.076   7.736  1.00  0.00     0.186 HD
HETATM    5  C8  UNL     1      -1.425   9.930   8.420  1.00  0.00     0.679 A 
HETATM    6  N5  UNL     1      -1.540  10.735   9.499  1.00  0.00    -0.174 N 
ATOM      7  H5  UNL     1      -1.852  11.698   9.375  1.00  0.00     0.186 HD
HETATM    8  C9  UNL     1      -1.252  10.292  10.721  1.00  0.00     0.152 A 
ENDROOT
BRANCH   1   9
HETATM    9  O3  UNL     1      -0.518   8.477  12.135  1.00  0.00    -0.263 OA
BRANCH   9  10
HETATM   10  C3  UNL     1      -1.570   8.072  12.959  1.00  0.00     0.356 C 
HETATM   11  O2  UNL     1      -2.730   8.183  12.502  1.00  0.00    -0.253 OA
BRANCH  10  12
HETATM   12  C2  UNL     1      -1.373   7.541  14.287  1.00  0.00     0.317 C 
HETATM   13  N1  UNL     1      -2.337   7.782  15.294  1.00  0.00    -0.357 N 
HETATM   14  C1  UNL     1      -2.210   7.286  16.646  1.00  0.00     0.149 C 
ATOM     15  H1  UNL     1      -3.161   8.332  15.056  1.00  0.00     0.162 HD
HETATM   16  O1  UNL     1      -0.359   6.864  14.577  1.00  0.00    -0.262 OA
ENDBRANCH  10  12
ENDBRANCH   9  10
ENDBRANCH   1   9
BRANCH   2  17
HETATM   17  N2  UNL     1      -0.255   6.799   9.885  1.00  0.00    -0.373 N 
HETATM   18  C6  UNL     1      -1.002   5.593   9.750  1.00  0.00     0.150 C 
HETATM   19  C7  UNL     1       1.191   6.619  10.172  1.00  0.00     0.150 C 
ENDBRANCH   2  17
BRANCH   8  20
HETATM   20  N6  UNL     1      -1.346  11.014  11.768  1.00  0.00    -0.383 N 
ATOM     21  H62 UNL     1      -0.653  11.008  12.517  1.00  0.00     0.157 HD
ATOM     22  H61 UNL     1      -2.151  11.632  11.872  1.00  0.00     0.157 HD
ENDBRANCH   8  20
BRANCH   5  23
HETATM   23  N4  UNL     1      -1.716  10.419   7.274  1.00  0.00    -0.234 N 
ATOM     24  H42 UNL     1      -2.485   9.996   6.755  1.00  0.00     0.174 HD
ATOM     25  H41 UNL     1      -1.206  11.209   6.880  1.00  0.00     0.174 HD
ENDBRANCH   5  23
TORSDOF 6
ENDMDL
