MODEL 1
REMARK VINA RESULT: -5.856099188      0.000      0.000
REMARK  2 active torsions:
REMARK  status: ('A' for Active; 'I' for Inactive)
REMARK    1  A    between atoms: N1_1  and  N2_4 
REMARK       I    between atoms: N2_4  and  C1_6 
REMARK    2  A    between atoms: C1_6  and  C2_8 
ROOT
HETATM    1  C2  UNL     1      -1.085   9.962  10.416  1.00  0.00     0.195 A 
HETATM    2  N3  UNL     1      -1.953  10.750   9.890  1.00  0.00    -0.277 N 
ATOM      3  H3  UNL     1      -2.944  10.728  10.134  1.00  0.00     0.189 HD
HETATM    4  N4  UNL     1      -1.431  11.626   8.971  1.00  0.00    -0.250 N 
ATOM      5  H4  UNL     1      -1.933  12.334   8.435  1.00  0.00     0.192 HD
HETATM    6  C3  UNL     1      -0.045  11.334   8.925  1.00  0.00     0.340 A 
HETATM    7  O2  UNL     1       0.849  11.877   8.227  1.00  0.00    -0.245 OA
HETATM    8  N5  UNL     1       0.183  10.273   9.845  1.00  0.00    -0.288 N 
ATOM      9  H5  UNL     1       1.076   9.825  10.054  1.00  0.00     0.172 HD
ENDROOT
BRANCH   1  10
HETATM   10  C1  UNL     1      -1.274   8.919  11.413  1.00  0.00     0.305 C 
HETATM   11  N2  UNL     1      -1.295   9.205  12.795  1.00  0.00    -0.270 N 
ATOM     12  H2  UNL     1      -1.175  10.165  13.118  1.00  0.00     0.189 HD
HETATM   13  O1  UNL     1      -1.421   7.744  11.010  1.00  0.00    -0.263 OA
BRANCH  11  14
HETATM   14  N1  UNL     1      -1.479   8.176  13.721  1.00  0.00    -0.342 N 
ATOM     15  H12 UNL     1      -1.646   7.229  13.379  1.00  0.00     0.176 HD
ATOM     16  H11 UNL     1      -1.447   8.375  14.721  1.00  0.00     0.176 HD
ENDBRANCH  11  14
ENDBRANCH   1  10
TORSDOF 2
ENDMDL
MODEL 2
REMARK VINA RESULT: -5.794400326      1.132      1.132
REMARK  2 active torsions:
REMARK  status: ('A' for Active; 'I' for Inactive)
REMARK    1  A    between atoms: N1_1  and  N2_4 
REMARK       I    between atoms: N2_4  and  C1_6 
REMARK    2  A    between atoms: C1_6  and  C2_8 
ROOT
HETATM    1  C2  UNL     1      -1.323   9.607  10.146  1.00  0.00     0.195 A 
HETATM    2  N3  UNL     1      -1.952  10.728  10.187  1.00  0.00    -0.277 N 
ATOM      3  H3  UNL     1      -2.419  11.072  11.026  1.00  0.00     0.189 HD
HETATM    4  N4  UNL     1      -1.941  11.420   9.001  1.00  0.00    -0.250 N 
ATOM      5  H4  UNL     1      -2.373  12.323   8.808  1.00  0.00     0.192 HD
HETATM    6  C3  UNL     1      -1.200  10.612   8.105  1.00  0.00     0.340 A 
HETATM    7  O2  UNL     1      -0.920  10.830   6.898  1.00  0.00    -0.245 OA
HETATM    8  N5  UNL     1      -0.802   9.453   8.828  1.00  0.00    -0.288 N 
ATOM      9  H5  UNL     1      -0.254   8.668   8.474  1.00  0.00     0.172 HD
ENDROOT
BRANCH   1  10
HETATM   10  C1  UNL     1      -1.130   8.622  11.198  1.00  0.00     0.305 C 
HETATM   11  N2  UNL     1      -1.131   8.981  12.564  1.00  0.00    -0.270 N 
ATOM     12  H2  UNL     1      -1.269   9.955  12.834  1.00  0.00     0.189 HD
HETATM   13  O1  UNL     1      -0.961   7.430  10.859  1.00  0.00    -0.263 OA
BRANCH  11  14
HETATM   14  N1  UNL     1      -0.942   8.005  13.544  1.00  0.00    -0.342 N 
ATOM     15  H12 UNL     1      -1.199   7.040  13.336  1.00  0.00     0.176 HD
ATOM     16  H11 UNL     1      -0.553   8.260  14.452  1.00  0.00     0.176 HD
ENDBRANCH  11  14
ENDBRANCH   1  10
TORSDOF 2
ENDMDL
MODEL 3
REMARK VINA RESULT: -5.613086742      2.047      2.215
REMARK  2 active torsions:
REMARK  status: ('A' for Active; 'I' for Inactive)
REMARK    1  A    between atoms: N1_1  and  N2_4 
REMARK       I    between atoms: N2_4  and  C1_6 
REMARK    2  A    between atoms: C1_6  and  C2_8 
ROOT
HETATM    1  C2  UNL     1      -1.318   9.383  10.460  1.00  0.00     0.195 A 
HETATM    2  N3  UNL     1      -1.368  10.668  10.422  1.00  0.00    -0.277 N 
ATOM      3  H3  UNL     1      -0.830  11.263  11.053  1.00  0.00     0.189 HD
HETATM    4  N4  UNL     1      -2.209  11.167   9.459  1.00  0.00    -0.250 N 
ATOM      5  H4  UNL     1      -2.400  12.148   9.253  1.00  0.00     0.192 HD
HETATM    6  C3  UNL     1      -2.752  10.030   8.812  1.00  0.00     0.340 A 
HETATM    7  O2  UNL     1      -3.574   9.985   7.861  1.00  0.00    -0.245 OA
HETATM    8  N5  UNL     1      -2.188   8.888   9.446  1.00  0.00    -0.288 N 
ATOM      9  H5  UNL     1      -2.370   7.910   9.219  1.00  0.00     0.172 HD
ENDROOT
BRANCH   1  10
HETATM   10  C1  UNL     1      -0.546   8.519  11.339  1.00  0.00     0.305 C 
HETATM   11  N2  UNL     1      -0.661   8.591  12.744  1.00  0.00    -0.270 N 
ATOM     12  H2  UNL     1      -1.300   9.263  13.168  1.00  0.00     0.189 HD
HETATM   13  O1  UNL     1       0.235   7.696  10.811  1.00  0.00    -0.263 OA
BRANCH  11  14
HETATM   14  N1  UNL     1       0.097   7.743  13.553  1.00  0.00    -0.342 N 
ATOM     15  H12 UNL     1       1.018   8.051  13.866  1.00  0.00     0.176 HD
ATOM     16  H11 UNL     1      -0.270   6.830  13.824  1.00  0.00     0.176 HD
ENDBRANCH  11  14
ENDBRANCH   1  10
TORSDOF 2
ENDMDL
MODEL 4
REMARK VINA RESULT: -5.577313373      1.162      1.162
REMARK  2 active torsions:
REMARK  status: ('A' for Active; 'I' for Inactive)
REMARK    1  A    between atoms: N1_1  and  N2_4 
REMARK       I    between atoms: N2_4  and  C1_6 
REMARK    2  A    between atoms: C1_6  and  C2_8 
ROOT
HETATM    1  C2  UNL     1      -1.010   9.672   9.605  1.00  0.00     0.195 A 
HETATM    2  N3  UNL     1      -1.322   9.552   8.364  1.00  0.00    -0.277 N 
ATOM      3  H3  UNL     1      -1.710   8.695   7.969  1.00  0.00     0.189 HD
HETATM    4  N4  UNL     1      -1.086  10.679   7.615  1.00  0.00    -0.250 N 
ATOM      5  H4  UNL     1      -1.257  10.806   6.618  1.00  0.00     0.192 HD
HETATM    6  C3  UNL     1      -0.554  11.626   8.525  1.00  0.00     0.340 A 
HETATM    7  O2  UNL     1      -0.186  12.808   8.302  1.00  0.00    -0.245 OA
HETATM    8  N5  UNL     1      -0.503  10.991   9.797  1.00  0.00    -0.288 N 
ATOM      9  H5  UNL     1      -0.169  11.398  10.671  1.00  0.00     0.172 HD
ENDROOT
BRANCH   1  10
HETATM   10  C1  UNL     1      -1.120   8.698  10.679  1.00  0.00     0.305 C 
HETATM   11  N2  UNL     1      -1.097   9.081  12.038  1.00  0.00    -0.270 N 
ATOM     12  H2  UNL     1      -1.001  10.066  12.287  1.00  0.00     0.189 HD
HETATM   13  O1  UNL     1      -1.239   7.493  10.366  1.00  0.00    -0.263 OA
BRANCH  11  14
HETATM   14  N1  UNL     1      -1.207   8.115  13.040  1.00  0.00    -0.342 N 
ATOM     15  H12 UNL     1      -0.997   7.143  12.813  1.00  0.00     0.176 HD
ATOM     16  H11 UNL     1      -1.491   8.384  13.982  1.00  0.00     0.176 HD
ENDBRANCH  11  14
ENDBRANCH   1  10
TORSDOF 2
ENDMDL
MODEL 5
REMARK VINA RESULT: -5.552420583      2.215      2.368
REMARK  2 active torsions:
REMARK  status: ('A' for Active; 'I' for Inactive)
REMARK    1  A    between atoms: N1_1  and  N2_4 
REMARK       I    between atoms: N2_4  and  C1_6 
REMARK    2  A    between atoms: C1_6  and  C2_8 
ROOT
HETATM    1  C2  UNL     1      -0.518   9.061  10.149  1.00  0.00     0.195 A 
HETATM    2  N3  UNL     1      -0.840  10.070  10.879  1.00  0.00    -0.277 N 
ATOM      3  H3  UNL     1      -1.355   9.979  11.755  1.00  0.00     0.189 HD
HETATM    4  N4  UNL     1      -0.430  11.279  10.375  1.00  0.00    -0.250 N 
ATOM      5  H4  UNL     1      -0.576  12.202  10.784  1.00  0.00     0.192 HD
HETATM    6  C3  UNL     1       0.239  10.971   9.165  1.00  0.00     0.340 A 
HETATM    7  O2  UNL     1       0.788  11.756   8.349  1.00  0.00    -0.245 OA
HETATM    8  N5  UNL     1       0.187   9.558   9.014  1.00  0.00    -0.288 N 
ATOM      9  H5  UNL     1       0.577   9.009   8.247  1.00  0.00     0.172 HD
ENDROOT
BRANCH   1  10
HETATM   10  C1  UNL     1      -0.782   7.648  10.366  1.00  0.00     0.305 C 
HETATM   11  N2  UNL     1      -0.594   6.689   9.347  1.00  0.00    -0.270 N 
ATOM     12  H2  UNL     1      -0.264   6.983   8.427  1.00  0.00     0.189 HD
HETATM   13  O1  UNL     1      -1.187   7.295  11.496  1.00  0.00    -0.263 OA
BRANCH  11  14
HETATM   14  N1  UNL     1      -0.860   5.341   9.595  1.00  0.00    -0.342 N 
ATOM     15  H12 UNL     1      -0.828   5.001  10.556  1.00  0.00     0.176 HD
ATOM     16  H11 UNL     1      -1.082   4.712   8.823  1.00  0.00     0.176 HD
ENDBRANCH  11  14
ENDBRANCH   1  10
TORSDOF 2
ENDMDL
