MODEL 1
REMARK VINA RESULT: -5.723270883      0.000      0.000
REMARK  1 active torsions:
REMARK  status: ('A' for Active; 'I' for Inactive)
REMARK       I    between atoms: C1_4  and  N3_6 
REMARK    1  A    between atoms: N5_8  and  N6_9 
ROOT
HETATM    1  N1  UNL     1       0.790   8.197  10.679  1.00  0.00    -0.372 N 
ATOM      2  H11 UNL     1       1.402   9.011  10.732  1.00  0.00     0.158 HD
ATOM      3  H12 UNL     1       1.120   7.267  10.939  1.00  0.00     0.158 HD
HETATM    4  C1  UNL     1      -0.427   8.311  10.282  1.00  0.00     0.210 C 
HETATM    5  N2  UNL     1      -1.278   7.179  10.210  1.00  0.00    -0.062 NA
HETATM    6  N3  UNL     1      -0.887   9.607   9.921  1.00  0.00    -0.161 N 
HETATM    7  N4  UNL     1      -0.191  10.822   9.931  1.00  0.00     0.007 NA
HETATM    8  N5  UNL     1      -0.715  11.462   8.808  1.00  0.00    -0.026 NA
HETATM    9  N7  UNL     1      -2.089  11.288   8.993  1.00  0.00    -0.234 N 
ATOM     10  H7  UNL     1      -2.839  11.961   8.832  1.00  0.00     0.189 HD
HETATM   11  C2  UNL     1      -2.194   9.935   9.461  1.00  0.00     0.359 C 
HETATM   12  O1  UNL     1      -3.178   9.170   9.484  1.00  0.00    -0.244 OA
ENDROOT
BRANCH   8  13
HETATM   13  N6  UNL     1      -0.356  12.801   8.719  1.00  0.00    -0.329 NA
ATOM     14  H62 UNL     1       0.288  13.083   9.458  1.00  0.00     0.174 HD
ATOM     15  H61 UNL     1       0.180  13.022   7.879  1.00  0.00     0.174 HD
ENDBRANCH   8  13
TORSDOF 1
ENDMDL
MODEL 2
REMARK VINA RESULT: -5.555417732      5.947      7.343
REMARK  1 active torsions:
REMARK  status: ('A' for Active; 'I' for Inactive)
REMARK       I    between atoms: C1_4  and  N3_6 
REMARK    1  A    between atoms: N5_8  and  N6_9 
ROOT
HETATM    1  N1  UNL     1      -1.556   8.816  13.305  1.00  0.00    -0.372 N 
ATOM      2  H11 UNL     1      -2.473   9.237  13.454  1.00  0.00     0.158 HD
ATOM      3  H12 UNL     1      -0.990   9.052  12.491  1.00  0.00     0.158 HD
HETATM    4  C1  UNL     1      -1.077   7.967  14.143  1.00  0.00     0.210 C 
HETATM    5  N2  UNL     1       0.198   7.382  13.937  1.00  0.00    -0.062 NA
HETATM    6  N3  UNL     1      -1.867   7.638  15.278  1.00  0.00    -0.161 N 
HETATM    7  N4  UNL     1      -3.134   8.115  15.636  1.00  0.00     0.007 NA
HETATM    8  N5  UNL     1      -3.718   6.982  16.202  1.00  0.00    -0.026 NA
HETATM    9  N7  UNL     1      -2.715   6.546  17.073  1.00  0.00    -0.234 N 
ATOM     10  H7  UNL     1      -2.814   6.186  18.022  1.00  0.00     0.189 HD
HETATM   11  C2  UNL     1      -1.511   6.726  16.312  1.00  0.00     0.359 C 
HETATM   12  O1  UNL     1      -0.381   6.224  16.471  1.00  0.00    -0.244 OA
ENDROOT
BRANCH   8  13
HETATM   13  N6  UNL     1      -4.913   7.245  16.857  1.00  0.00    -0.329 NA
ATOM     14  H62 UNL     1      -4.858   8.071  17.454  1.00  0.00     0.174 HD
ATOM     15  H61 UNL     1      -5.675   7.494  16.226  1.00  0.00     0.174 HD
ENDBRANCH   8  13
TORSDOF 1
ENDMDL
MODEL 3
REMARK VINA RESULT: -5.545473300      1.446      1.503
REMARK  1 active torsions:
REMARK  status: ('A' for Active; 'I' for Inactive)
REMARK       I    between atoms: C1_4  and  N3_6 
REMARK    1  A    between atoms: N5_8  and  N6_9 
ROOT
HETATM    1  N1  UNL     1       0.557   7.052   8.853  1.00  0.00    -0.372 N 
ATOM      2  H11 UNL     1       1.169   7.529   8.190  1.00  0.00     0.158 HD
ATOM      3  H12 UNL     1       0.532   6.035   8.916  1.00  0.00     0.158 HD
HETATM    4  C1  UNL     1      -0.211   7.720   9.638  1.00  0.00     0.210 C 
HETATM    5  N2  UNL     1      -1.062   7.059  10.559  1.00  0.00    -0.062 NA
HETATM    6  N3  UNL     1      -0.177   9.139   9.550  1.00  0.00    -0.161 N 
HETATM    7  N4  UNL     1       0.594   9.949   8.708  1.00  0.00     0.007 NA
HETATM    8  N5  UNL     1      -0.286  10.995   8.430  1.00  0.00    -0.026 NA
HETATM    9  N7  UNL     1      -0.752  11.324   9.706  1.00  0.00    -0.234 N 
ATOM     10  H7  UNL     1      -0.916  12.251  10.099  1.00  0.00     0.189 HD
HETATM   11  C2  UNL     1      -0.947  10.047  10.331  1.00  0.00     0.359 C 
HETATM   12  O1  UNL     1      -1.626   9.740  11.330  1.00  0.00    -0.244 OA
ENDROOT
BRANCH   8  13
HETATM   13  N6  UNL     1       0.317  12.069   7.790  1.00  0.00    -0.329 NA
ATOM     14  H62 UNL     1       0.171  12.055   6.781  1.00  0.00     0.174 HD
ATOM     15  H61 UNL     1      -0.084  12.971   8.047  1.00  0.00     0.174 HD
ENDBRANCH   8  13
TORSDOF 1
ENDMDL
MODEL 4
REMARK VINA RESULT: -5.493162337      7.447      8.046
REMARK  1 active torsions:
REMARK  status: ('A' for Active; 'I' for Inactive)
REMARK       I    between atoms: C1_4  and  N3_6 
REMARK    1  A    between atoms: N5_8  and  N6_9 
ROOT
HETATM    1  N1  UNL     1      -0.242   5.059  16.948  1.00  0.00    -0.372 N 
ATOM      2  H11 UNL     1       0.180   5.987  16.980  1.00  0.00     0.158 HD
ATOM      3  H12 UNL     1       0.330   4.215  16.968  1.00  0.00     0.158 HD
HETATM    4  C1  UNL     1      -1.518   4.917  16.882  1.00  0.00     0.210 C 
HETATM    5  N2  UNL     1      -2.105   3.627  16.838  1.00  0.00    -0.062 NA
HETATM    6  N3  UNL     1      -2.315   6.094  16.855  1.00  0.00    -0.161 N 
HETATM    7  N4  UNL     1      -1.907   7.433  16.890  1.00  0.00     0.007 NA
HETATM    8  N5  UNL     1      -2.836   8.039  16.045  1.00  0.00    -0.026 NA
HETATM    9  N7  UNL     1      -4.042   7.522  16.527  1.00  0.00    -0.234 N 
ATOM     10  H7  UNL     1      -4.929   8.008  16.662  1.00  0.00     0.189 HD
HETATM   11  C2  UNL     1      -3.736   6.144  16.784  1.00  0.00     0.359 C 
HETATM   12  O1  UNL     1      -4.498   5.167  16.922  1.00  0.00    -0.244 OA
ENDROOT
BRANCH   8  13
HETATM   13  N6  UNL     1      -2.798   9.427  16.086  1.00  0.00    -0.329 NA
ATOM     14  H62 UNL     1      -2.565   9.838  15.183  1.00  0.00     0.174 HD
ATOM     15  H61 UNL     1      -3.704   9.852  16.283  1.00  0.00     0.174 HD
ENDBRANCH   8  13
TORSDOF 1
ENDMDL
MODEL 5
REMARK VINA RESULT: -5.362373237      6.354      7.760
REMARK  1 active torsions:
REMARK  status: ('A' for Active; 'I' for Inactive)
REMARK       I    between atoms: C1_4  and  N3_6 
REMARK    1  A    between atoms: N5_8  and  N6_9 
ROOT
HETATM    1  N1  UNL     1      -0.450   7.629  13.748  1.00  0.00    -0.372 N 
ATOM      2  H11 UNL     1      -1.301   8.163  13.571  1.00  0.00     0.158 HD
ATOM      3  H12 UNL     1       0.320   7.621  13.080  1.00  0.00     0.158 HD
HETATM    4  C1  UNL     1      -0.315   6.944  14.827  1.00  0.00     0.210 C 
HETATM    5  N2  UNL     1       0.868   6.202  15.074  1.00  0.00    -0.062 NA
HETATM    6  N3  UNL     1      -1.389   6.955  15.758  1.00  0.00    -0.161 N 
HETATM    7  N4  UNL     1      -2.616   7.625  15.677  1.00  0.00     0.007 NA
HETATM    8  N5  UNL     1      -3.482   6.710  16.276  1.00  0.00    -0.026 NA
HETATM    9  N7  UNL     1      -2.789   6.379  17.444  1.00  0.00    -0.234 N 
ATOM     10  H7  UNL     1      -3.161   6.250  18.385  1.00  0.00     0.189 HD
HETATM   11  C2  UNL     1      -1.428   6.264  17.003  1.00  0.00     0.359 C 
HETATM   12  O1  UNL     1      -0.457   5.699  17.542  1.00  0.00    -0.244 OA
ENDROOT
BRANCH   8  13
HETATM   13  N6  UNL     1      -4.743   7.231  16.535  1.00  0.00    -0.329 NA
ATOM     14  H62 UNL     1      -4.733   7.922  17.285  1.00  0.00     0.174 HD
ATOM     15  H61 UNL     1      -5.126   7.770  15.758  1.00  0.00     0.174 HD
ENDBRANCH   8  13
TORSDOF 1
ENDMDL
