MODEL 1
REMARK VINA RESULT: -5.818634738      0.000      0.000
REMARK  1 active torsions:
REMARK  status: ('A' for Active; 'I' for Inactive)
REMARK       I    between atoms: C1_4  and  N3_6 
REMARK    1  A    between atoms: C3_12  and  N6_13 
ROOT
HETATM    1  N1  UNL     1       0.576  12.147  10.406  1.00  0.00    -0.372 N 
ATOM      2  H11 UNL     1       0.165  11.867  11.297  1.00  0.00     0.158 HD
ATOM      3  H12 UNL     1       1.183  12.965  10.348  1.00  0.00     0.158 HD
HETATM    4  C1  UNL     1       0.318  11.456   9.357  1.00  0.00     0.207 C 
HETATM    5  N2  UNL     1       0.888  11.845   8.121  1.00  0.00    -0.062 NA
HETATM    6  N3  UNL     1      -0.524  10.321   9.438  1.00  0.00    -0.190 N 
HETATM    7  N4  UNL     1      -0.109   9.093   9.754  1.00  0.00    -0.008 NA
HETATM    8  N5  UNL     1      -1.134   8.256   9.745  1.00  0.00    -0.246 N 
ATOM      9  H5  UNL     1      -1.104   7.257   9.950  1.00  0.00     0.187 HD
HETATM   10  C2  UNL     1      -2.224   8.973   9.413  1.00  0.00     0.303 A 
HETATM   11  O1  UNL     1      -3.410   8.536   9.296  1.00  0.00    -0.263 OA
HETATM   12  C3  UNL     1      -1.855  10.285   9.215  1.00  0.00     0.192 A 
ENDROOT
BRANCH  12  13
HETATM   13  N6  UNL     1      -2.640  11.252   8.887  1.00  0.00    -0.380 N 
ATOM     14  H62 UNL     1      -2.577  11.817   8.039  1.00  0.00     0.158 HD
ATOM     15  H61 UNL     1      -3.443  11.620   9.397  1.00  0.00     0.158 HD
ENDBRANCH  12  13
TORSDOF 1
ENDMDL
MODEL 2
REMARK VINA RESULT: -5.689708493      2.310      3.839
REMARK  1 active torsions:
REMARK  status: ('A' for Active; 'I' for Inactive)
REMARK       I    between atoms: C1_4  and  N3_6 
REMARK    1  A    between atoms: C3_12  and  N6_13 
ROOT
HETATM    1  N1  UNL     1      -3.846  10.085   8.712  1.00  0.00    -0.372 N 
ATOM      2  H11 UNL     1      -3.946  11.092   8.585  1.00  0.00     0.158 HD
ATOM      3  H12 UNL     1      -4.667   9.482   8.762  1.00  0.00     0.158 HD
HETATM    4  C1  UNL     1      -2.668   9.584   8.809  1.00  0.00     0.207 C 
HETATM    5  N2  UNL     1      -2.529   8.187   8.985  1.00  0.00    -0.062 NA
HETATM    6  N3  UNL     1      -1.528  10.420   8.740  1.00  0.00    -0.190 N 
HETATM    7  N4  UNL     1      -0.929  10.788   7.606  1.00  0.00    -0.008 NA
HETATM    8  N5  UNL     1       0.105  11.568   7.877  1.00  0.00    -0.246 N 
ATOM      9  H5  UNL     1       0.738  11.993   7.200  1.00  0.00     0.187 HD
HETATM   10  C2  UNL     1       0.161  11.695   9.216  1.00  0.00     0.303 A 
HETATM   11  O1  UNL     1       1.013  12.365   9.877  1.00  0.00    -0.263 OA
HETATM   12  C3  UNL     1      -0.868  10.973   9.779  1.00  0.00     0.192 A 
ENDROOT
BRANCH  12  13
HETATM   13  N6  UNL     1      -1.120  10.867  11.038  1.00  0.00    -0.380 N 
ATOM     14  H62 UNL     1      -0.779  11.486  11.774  1.00  0.00     0.158 HD
ATOM     15  H61 UNL     1      -1.688  10.167  11.515  1.00  0.00     0.158 HD
ENDBRANCH  12  13
TORSDOF 1
ENDMDL
MODEL 3
REMARK VINA RESULT: -5.665619997      2.339      3.748
REMARK  1 active torsions:
REMARK  status: ('A' for Active; 'I' for Inactive)
REMARK       I    between atoms: C1_4  and  N3_6 
REMARK    1  A    between atoms: C3_12  and  N6_13 
ROOT
HETATM    1  N1  UNL     1      -3.028   8.249   8.877  1.00  0.00    -0.372 N 
ATOM      2  H11 UNL     1      -2.168   7.726   9.046  1.00  0.00     0.158 HD
ATOM      3  H12 UNL     1      -3.902   7.762   8.679  1.00  0.00     0.158 HD
HETATM    4  C1  UNL     1      -2.995   9.531   8.916  1.00  0.00     0.207 C 
HETATM    5  N2  UNL     1      -4.188  10.255   8.682  1.00  0.00    -0.062 NA
HETATM    6  N3  UNL     1      -1.782  10.206   9.190  1.00  0.00    -0.190 N 
HETATM    7  N4  UNL     1      -1.329  10.477  10.415  1.00  0.00    -0.008 NA
HETATM    8  N5  UNL     1      -0.172  11.115  10.336  1.00  0.00    -0.246 N 
ATOM      9  H5  UNL     1       0.397  11.442  11.117  1.00  0.00     0.187 HD
HETATM   10  C2  UNL     1       0.112  11.252   9.027  1.00  0.00     0.303 A 
HETATM   11  O1  UNL     1       1.137  11.811   8.530  1.00  0.00    -0.263 OA
HETATM   12  C3  UNL     1      -0.899  10.680   8.286  1.00  0.00     0.192 A 
ENDROOT
BRANCH  12  13
HETATM   13  N6  UNL     1      -0.960  10.626   7.001  1.00  0.00    -0.380 N 
ATOM     14  H62 UNL     1      -0.415  10.008   6.398  1.00  0.00     0.158 HD
ATOM     15  H61 UNL     1      -1.544  11.173   6.368  1.00  0.00     0.158 HD
ENDBRANCH  12  13
TORSDOF 1
ENDMDL
MODEL 4
REMARK VINA RESULT: -5.557992975      2.063      2.735
REMARK  1 active torsions:
REMARK  status: ('A' for Active; 'I' for Inactive)
REMARK       I    between atoms: C1_4  and  N3_6 
REMARK    1  A    between atoms: C3_12  and  N6_13 
ROOT
HETATM    1  N1  UNL     1      -1.423  10.674   7.573  1.00  0.00    -0.372 N 
ATOM      2  H11 UNL     1      -2.275  10.135   7.731  1.00  0.00     0.158 HD
ATOM      3  H12 UNL     1      -1.308  11.228   6.725  1.00  0.00     0.158 HD
HETATM    4  C1  UNL     1      -0.495  10.644   8.458  1.00  0.00     0.207 C 
HETATM    5  N2  UNL     1       0.687  11.392   8.239  1.00  0.00    -0.062 NA
HETATM    6  N3  UNL     1      -0.654   9.875   9.636  1.00  0.00    -0.190 N 
HETATM    7  N4  UNL     1      -1.256  10.308  10.745  1.00  0.00    -0.008 NA
HETATM    8  N5  UNL     1      -1.243   9.356  11.664  1.00  0.00    -0.246 N 
ATOM      9  H5  UNL     1      -1.634   9.414  12.604  1.00  0.00     0.187 HD
HETATM   10  C2  UNL     1      -0.617   8.295  11.122  1.00  0.00     0.303 A 
HETATM   11  O1  UNL     1      -0.399   7.177  11.682  1.00  0.00    -0.263 OA
HETATM   12  C3  UNL     1      -0.236   8.607   9.835  1.00  0.00     0.192 A 
ENDROOT
BRANCH  12  13
HETATM   13  N6  UNL     1       0.387   7.830   9.018  1.00  0.00    -0.380 N 
ATOM     14  H62 UNL     1       0.841   8.111   8.149  1.00  0.00     0.158 HD
ATOM     15  H61 UNL     1       0.536   6.823   9.088  1.00  0.00     0.158 HD
ENDBRANCH  12  13
TORSDOF 1
ENDMDL
MODEL 5
REMARK VINA RESULT: -5.487013616      2.163      3.286
REMARK  1 active torsions:
REMARK  status: ('A' for Active; 'I' for Inactive)
REMARK       I    between atoms: C1_4  and  N3_6 
REMARK    1  A    between atoms: C3_12  and  N6_13 
ROOT
HETATM    1  N1  UNL     1      -1.364   9.269  12.436  1.00  0.00    -0.372 N 
ATOM      2  H11 UNL     1      -1.943  10.104  12.343  1.00  0.00     0.158 HD
ATOM      3  H12 UNL     1      -1.135   8.894  13.356  1.00  0.00     0.158 HD
HETATM    4  C1  UNL     1      -0.924   8.696  11.376  1.00  0.00     0.207 C 
HETATM    5  N2  UNL     1      -0.121   7.538  11.504  1.00  0.00    -0.062 NA
HETATM    6  N3  UNL     1      -1.241   9.216  10.098  1.00  0.00    -0.190 N 
HETATM    7  N4  UNL     1      -2.347   8.918   9.414  1.00  0.00    -0.008 NA
HETATM    8  N5  UNL     1      -2.349   9.564   8.259  1.00  0.00    -0.246 N 
ATOM      9  H5  UNL     1      -3.072   9.521   7.540  1.00  0.00     0.187 HD
HETATM   10  C2  UNL     1      -1.215  10.287   8.212  1.00  0.00     0.303 A 
HETATM   11  O1  UNL     1      -0.841  11.047   7.266  1.00  0.00    -0.263 OA
HETATM   12  C3  UNL     1      -0.500  10.079   9.371  1.00  0.00     0.192 A 
ENDROOT
BRANCH  12  13
HETATM   13  N6  UNL     1       0.634  10.611   9.669  1.00  0.00    -0.380 N 
ATOM     14  H62 UNL     1       1.538  10.136   9.677  1.00  0.00     0.158 HD
ATOM     15  H61 UNL     1       0.833  11.573   9.942  1.00  0.00     0.158 HD
ENDBRANCH  12  13
TORSDOF 1
ENDMDL
