MODEL 1
REMARK VINA RESULT: -8.423551606      0.000      0.000
REMARK  6 active torsions:
REMARK  status: ('A' for Active; 'I' for Inactive)
REMARK    1  A    between atoms: O1_2  and  C2_3 
REMARK    2  A    between atoms: C4_5  and  C5_6 
REMARK    3  A    between atoms: C5_6  and  N1_7 
REMARK    4  A    between atoms: C8_10  and  O2_11 
REMARK    5  A    between atoms: C10_13  and  O3_14 
REMARK    6  A    between atoms: C12_16  and  O4_17 
ROOT
HETATM    1  N1  UNL     1       5.243   6.336  19.861  1.00  0.00    -0.254 N 
HETATM    2  C6  UNL     1       5.060   6.769  21.221  1.00  0.00     0.063 A 
HETATM    3  C7  UNL     1       4.129   6.099  21.985  1.00  0.00     0.071 A 
HETATM    4  C8  UNL     1       3.822   6.477  23.269  1.00  0.00     0.106 A 
HETATM    5  C10 UNL     1       4.470   7.567  23.811  1.00  0.00     0.136 A 
HETATM    6  C12 UNL     1       5.426   8.279  23.072  1.00  0.00     0.117 A 
HETATM    7  C14 UNL     1       5.712   7.872  21.798  1.00  0.00     0.065 A 
HETATM    8  C15 UNL     1       6.793   8.494  21.016  1.00  0.00     0.236 C 
HETATM    9  N2  UNL     1       7.666   9.436  21.607  1.00  0.00    -0.303 N 
ATOM     10  H2  UNL     1       7.520  10.003  22.442  1.00  0.00     0.167 HD
HETATM   11  C16 UNL     1       8.845   9.394  20.711  1.00  0.00     0.325 C 
HETATM   12  O5  UNL     1       9.608  10.352  20.435  1.00  0.00    -0.247 OA
HETATM   13  N3  UNL     1       8.933   8.048  20.232  1.00  0.00    -0.275 N 
ATOM     14  H3  UNL     1       9.625   7.658  19.593  1.00  0.00     0.173 HD
HETATM   15  C17 UNL     1       7.823   7.363  20.854  1.00  0.00     0.281 C 
HETATM   16  O6  UNL     1       7.774   6.168  21.160  1.00  0.00    -0.268 OA
HETATM   17  N4  UNL     1       6.288   8.862  19.747  1.00  0.00    -0.257 N 
HETATM   18  C18 UNL     1       6.748  10.001  19.085  1.00  0.00     0.168 C 
HETATM   19  S1  UNL     1       6.000   7.491  18.789  1.00  0.00     0.326 S 
HETATM   20  O7  UNL     1       5.064   7.842  17.637  1.00  0.00    -0.182 OA
HETATM   21  O8  UNL     1       7.215   6.908  18.135  1.00  0.00    -0.182 OA
ENDROOT
BRANCH   1  22
HETATM   22  C5  UNL     1       4.831   5.053  19.412  1.00  0.00     0.182 C 
BRANCH  22  23
HETATM   23  C4  UNL     1       5.912   4.044  19.299  1.00  0.00    -0.036 A 
HETATM   24  C3  UNL     1       6.376   3.632  18.049  1.00  0.00     0.048 A 
HETATM   25  C2  UNL     1       7.372   2.696  17.899  1.00  0.00     0.107 A 
HETATM   26  C21 UNL     1       7.964   2.116  19.014  1.00  0.00     0.149 A 
HETATM   27  C20 UNL     1       7.518   2.513  20.255  1.00  0.00     0.046 A 
HETATM   28  F1  UNL     1       8.940   1.199  18.867  1.00  0.00    -0.203 F 
HETATM   29  C19 UNL     1       6.517   3.454  20.384  1.00  0.00     0.012 A 
BRANCH  25  30
HETATM   30  O1  UNL     1       7.823   2.294  16.649  1.00  0.00    -0.353 OA
HETATM   31  C1  UNL     1       9.001   2.883  16.151  1.00  0.00     0.210 C 
ENDBRANCH  25  30
ENDBRANCH  22  23
ENDBRANCH   1  22
BRANCH   4  32
HETATM   32  O2  UNL     1       2.891   5.825  24.065  1.00  0.00    -0.353 OA
HETATM   33  C9  UNL     1       2.300   4.594  23.697  1.00  0.00     0.210 C 
ENDBRANCH   4  32
BRANCH   6  34
HETATM   34  O4  UNL     1       6.015   9.384  23.727  1.00  0.00    -0.352 OA
HETATM   35  C13 UNL     1       7.004   8.960  24.709  1.00  0.00     0.210 C 
ENDBRANCH   6  34
BRANCH   5  36
HETATM   36  O3  UNL     1       4.208   8.010  25.109  1.00  0.00    -0.351 OA
HETATM   37  C11 UNL     1       3.126   8.901  25.313  1.00  0.00     0.210 C 
ENDBRANCH   5  36
TORSDOF 6
ENDMDL
MODEL 2
REMARK VINA RESULT: -8.202769440      1.638      1.794
REMARK  6 active torsions:
REMARK  status: ('A' for Active; 'I' for Inactive)
REMARK    1  A    between atoms: O1_2  and  C2_3 
REMARK    2  A    between atoms: C4_5  and  C5_6 
REMARK    3  A    between atoms: C5_6  and  N1_7 
REMARK    4  A    between atoms: C8_10  and  O2_11 
REMARK    5  A    between atoms: C10_13  and  O3_14 
REMARK    6  A    between atoms: C12_16  and  O4_17 
ROOT
HETATM    1  N1  UNL     1       5.967   7.553  19.737  1.00  0.00    -0.254 N 
HETATM    2  C6  UNL     1       5.314   7.297  20.993  1.00  0.00     0.063 A 
HETATM    3  C7  UNL     1       4.265   6.403  20.997  1.00  0.00     0.071 A 
HETATM    4  C8  UNL     1       3.525   6.142  22.124  1.00  0.00     0.106 A 
HETATM    5  C10 UNL     1       3.844   6.801  23.293  1.00  0.00     0.136 A 
HETATM    6  C12 UNL     1       4.904   7.720  23.337  1.00  0.00     0.117 A 
HETATM    7  C14 UNL     1       5.624   7.951  22.198  1.00  0.00     0.065 A 
HETATM    8  C15 UNL     1       6.825   8.803  22.206  1.00  0.00     0.236 C 
HETATM    9  N2  UNL     1       7.356   9.295  23.420  1.00  0.00    -0.303 N 
ATOM     10  H2  UNL     1       6.891   9.404  24.321  1.00  0.00     0.167 HD
HETATM   11  C16 UNL     1       8.757   9.612  23.058  1.00  0.00     0.325 C 
HETATM   12  O5  UNL     1       9.460  10.538  23.533  1.00  0.00    -0.247 OA
HETATM   13  N3  UNL     1       9.138   8.654  22.065  1.00  0.00    -0.275 N 
ATOM     14  H3  UNL     1      10.036   8.573  21.588  1.00  0.00     0.173 HD
HETATM   15  C17 UNL     1       7.968   7.824  21.886  1.00  0.00     0.281 C 
HETATM   16  O6  UNL     1       7.953   6.633  21.562  1.00  0.00    -0.268 OA
HETATM   17  N4  UNL     1       6.716   9.761  21.171  1.00  0.00    -0.257 N 
HETATM   18  C18 UNL     1       7.238  11.047  21.314  1.00  0.00     0.168 C 
HETATM   19  S1  UNL     1       6.898   9.031  19.650  1.00  0.00     0.326 S 
HETATM   20  O7  UNL     1       6.347   9.944  18.559  1.00  0.00    -0.182 OA
HETATM   21  O8  UNL     1       8.314   8.756  19.244  1.00  0.00    -0.182 OA
ENDROOT
BRANCH   1  22
HETATM   22  C5  UNL     1       5.861   6.667  18.632  1.00  0.00     0.182 C 
BRANCH  22  23
HETATM   23  C4  UNL     1       6.507   5.345  18.817  1.00  0.00    -0.036 A 
HETATM   24  C3  UNL     1       7.802   5.111  18.352  1.00  0.00     0.048 A 
HETATM   25  C2  UNL     1       8.436   3.899  18.499  1.00  0.00     0.107 A 
HETATM   26  C21 UNL     1       7.792   2.842  19.129  1.00  0.00     0.149 A 
HETATM   27  C20 UNL     1       6.514   3.056  19.594  1.00  0.00     0.046 A 
HETATM   28  F1  UNL     1       8.412   1.655  19.272  1.00  0.00    -0.203 F 
HETATM   29  C19 UNL     1       5.895   4.280  19.438  1.00  0.00     0.012 A 
BRANCH  25  30
HETATM   30  O1  UNL     1       9.724   3.681  18.031  1.00  0.00    -0.353 OA
HETATM   31  C1  UNL     1       9.894   2.782  16.960  1.00  0.00     0.210 C 
ENDBRANCH  25  30
ENDBRANCH  22  23
ENDBRANCH   1  22
BRANCH   4  32
HETATM   32  O2  UNL     1       2.465   5.248  22.163  1.00  0.00    -0.353 OA
HETATM   33  C9  UNL     1       2.647   3.846  22.131  1.00  0.00     0.210 C 
ENDBRANCH   4  32
BRANCH   6  34
HETATM   34  O4  UNL     1       5.130   8.341  24.585  1.00  0.00    -0.352 OA
HETATM   35  C13 UNL     1       4.324   9.544  24.740  1.00  0.00     0.210 C 
ENDBRANCH   6  34
BRANCH   5  36
HETATM   36  O3  UNL     1       3.136   6.588  24.476  1.00  0.00    -0.351 OA
HETATM   37  C11 UNL     1       1.828   7.123  24.586  1.00  0.00     0.210 C 
ENDBRANCH   5  36
TORSDOF 6
ENDMDL
MODEL 3
REMARK VINA RESULT: -8.167834035      1.769      2.256
REMARK  6 active torsions:
REMARK  status: ('A' for Active; 'I' for Inactive)
REMARK    1  A    between atoms: O1_2  and  C2_3 
REMARK    2  A    between atoms: C4_5  and  C5_6 
REMARK    3  A    between atoms: C5_6  and  N1_7 
REMARK    4  A    between atoms: C8_10  and  O2_11 
REMARK    5  A    between atoms: C10_13  and  O3_14 
REMARK    6  A    between atoms: C12_16  and  O4_17 
ROOT
HETATM    1  N1  UNL     1       5.982   7.635  19.751  1.00  0.00    -0.254 N 
HETATM    2  C6  UNL     1       5.331   7.368  21.006  1.00  0.00     0.063 A 
HETATM    3  C7  UNL     1       4.273   6.485  21.002  1.00  0.00     0.071 A 
HETATM    4  C8  UNL     1       3.535   6.217  22.129  1.00  0.00     0.106 A 
HETATM    5  C10 UNL     1       3.866   6.856  23.305  1.00  0.00     0.136 A 
HETATM    6  C12 UNL     1       4.935   7.763  23.357  1.00  0.00     0.117 A 
HETATM    7  C14 UNL     1       5.653   8.003  22.219  1.00  0.00     0.065 A 
HETATM    8  C15 UNL     1       6.863   8.841  22.233  1.00  0.00     0.236 C 
HETATM    9  N2  UNL     1       7.404   9.311  23.451  1.00  0.00    -0.303 N 
ATOM     10  H2  UNL     1       6.943   9.413  24.356  1.00  0.00     0.167 HD
HETATM   11  C16 UNL     1       8.807   9.619  23.088  1.00  0.00     0.325 C 
HETATM   12  O5  UNL     1       9.521  10.531  23.572  1.00  0.00    -0.247 OA
HETATM   13  N3  UNL     1       9.173   8.670  22.080  1.00  0.00    -0.275 N 
ATOM     14  H3  UNL     1      10.069   8.587  21.599  1.00  0.00     0.173 HD
HETATM   15  C17 UNL     1       7.994   7.855  21.896  1.00  0.00     0.281 C 
HETATM   16  O6  UNL     1       7.966   6.669  21.556  1.00  0.00    -0.268 OA
HETATM   17  N4  UNL     1       6.760   9.814  21.212  1.00  0.00    -0.257 N 
HETATM   18  C18 UNL     1       7.295  11.093  21.370  1.00  0.00     0.168 C 
HETATM   19  S1  UNL     1       6.928   9.103  19.680  1.00  0.00     0.326 S 
HETATM   20  O7  UNL     1       6.382  10.037  18.604  1.00  0.00    -0.182 OA
HETATM   21  O8  UNL     1       8.339   8.819  19.265  1.00  0.00    -0.182 OA
ENDROOT
BRANCH   1  22
HETATM   22  C5  UNL     1       5.862   6.764  18.635  1.00  0.00     0.182 C 
BRANCH  22  23
HETATM   23  C4  UNL     1       6.750   5.577  18.660  1.00  0.00    -0.036 A 
HETATM   24  C3  UNL     1       6.514   4.527  19.549  1.00  0.00     0.048 A 
HETATM   25  C2  UNL     1       7.315   3.410  19.608  1.00  0.00     0.107 A 
HETATM   26  C21 UNL     1       8.412   3.288  18.766  1.00  0.00     0.149 A 
HETATM   27  C20 UNL     1       8.659   4.315  17.882  1.00  0.00     0.046 A 
HETATM   28  F1  UNL     1       9.197   2.195  18.824  1.00  0.00    -0.203 F 
HETATM   29  C19 UNL     1       7.843   5.427  17.838  1.00  0.00     0.012 A 
BRANCH  25  30
HETATM   30  O1  UNL     1       7.068   2.374  20.498  1.00  0.00    -0.353 OA
HETATM   31  C1  UNL     1       6.021   2.534  21.425  1.00  0.00     0.210 C 
ENDBRANCH  25  30
ENDBRANCH  22  23
ENDBRANCH   1  22
BRANCH   4  32
HETATM   32  O2  UNL     1       2.466   5.333  22.161  1.00  0.00    -0.353 OA
HETATM   33  C9  UNL     1       2.634   3.936  22.298  1.00  0.00     0.210 C 
ENDBRANCH   4  32
BRANCH   6  34
HETATM   34  O4  UNL     1       5.173   8.365  24.613  1.00  0.00    -0.352 OA
HETATM   35  C13 UNL     1       4.378   9.573  24.789  1.00  0.00     0.210 C 
ENDBRANCH   6  34
BRANCH   5  36
HETATM   36  O3  UNL     1       3.160   6.635  24.489  1.00  0.00    -0.351 OA
HETATM   37  C11 UNL     1       1.855   7.173  24.607  1.00  0.00     0.210 C 
ENDBRANCH   5  36
TORSDOF 6
ENDMDL
MODEL 4
REMARK VINA RESULT: -7.998150513      1.869      2.263
REMARK  6 active torsions:
REMARK  status: ('A' for Active; 'I' for Inactive)
REMARK    1  A    between atoms: O1_2  and  C2_3 
REMARK    2  A    between atoms: C4_5  and  C5_6 
REMARK    3  A    between atoms: C5_6  and  N1_7 
REMARK    4  A    between atoms: C8_10  and  O2_11 
REMARK    5  A    between atoms: C10_13  and  O3_14 
REMARK    6  A    between atoms: C12_16  and  O4_17 
ROOT
HETATM    1  N1  UNL     1       6.357   7.948  19.536  1.00  0.00    -0.254 N 
HETATM    2  C6  UNL     1       5.673   7.546  20.736  1.00  0.00     0.063 A 
HETATM    3  C7  UNL     1       4.631   6.652  20.609  1.00  0.00     0.071 A 
HETATM    4  C8  UNL     1       3.864   6.260  21.678  1.00  0.00     0.106 A 
HETATM    5  C10 UNL     1       4.147   6.783  22.923  1.00  0.00     0.136 A 
HETATM    6  C12 UNL     1       5.197   7.695  23.101  1.00  0.00     0.117 A 
HETATM    7  C14 UNL     1       5.946   8.059  22.016  1.00  0.00     0.065 A 
HETATM    8  C15 UNL     1       7.139   8.910  22.155  1.00  0.00     0.236 C 
HETATM    9  N2  UNL     1       7.634   9.262  23.431  1.00  0.00    -0.303 N 
ATOM     10  H2  UNL     1       7.144   9.265  24.326  1.00  0.00     0.167 HD
HETATM   11  C16 UNL     1       9.042   9.625  23.146  1.00  0.00     0.325 C 
HETATM   12  O5  UNL     1       9.724  10.494  23.743  1.00  0.00    -0.247 OA
HETATM   13  N3  UNL     1       9.456   8.789  22.061  1.00  0.00    -0.275 N 
ATOM     14  H3  UNL     1      10.367   8.768  21.603  1.00  0.00     0.173 HD
HETATM   15  C17 UNL     1       8.298   7.980  21.756  1.00  0.00     0.281 C 
HETATM   16  O6  UNL     1       8.301   6.834  21.298  1.00  0.00    -0.268 OA
HETATM   17  N4  UNL     1       7.050   9.979  21.234  1.00  0.00    -0.257 N 
HETATM   18  C18 UNL     1       7.558  11.243  21.537  1.00  0.00     0.168 C 
HETATM   19  S1  UNL     1       7.278   9.430  19.644  1.00  0.00     0.326 S 
HETATM   20  O7  UNL     1       6.749  10.459  18.651  1.00  0.00    -0.182 OA
HETATM   21  O8  UNL     1       8.706   9.210  19.249  1.00  0.00    -0.182 OA
ENDROOT
BRANCH   1  22
HETATM   22  C5  UNL     1       6.287   7.193  18.335  1.00  0.00     0.182 C 
BRANCH  22  23
HETATM   23  C4  UNL     1       6.821   5.813  18.423  1.00  0.00    -0.036 A 
HETATM   24  C3  UNL     1       5.962   4.712  18.407  1.00  0.00     0.048 A 
HETATM   25  C2  UNL     1       6.415   3.416  18.491  1.00  0.00     0.107 A 
HETATM   26  C21 UNL     1       7.775   3.153  18.598  1.00  0.00     0.149 A 
HETATM   27  C20 UNL     1       8.636   4.228  18.614  1.00  0.00     0.046 A 
HETATM   28  F1  UNL     1       8.218   1.884  18.680  1.00  0.00    -0.203 F 
HETATM   29  C19 UNL     1       8.161   5.521  18.528  1.00  0.00     0.012 A 
BRANCH  25  30
HETATM   30  O1  UNL     1       5.550   2.332  18.475  1.00  0.00    -0.353 OA
HETATM   31  C1  UNL     1       4.409   2.409  17.653  1.00  0.00     0.210 C 
ENDBRANCH  25  30
ENDBRANCH  22  23
ENDBRANCH   1  22
BRANCH   4  32
HETATM   32  O2  UNL     1       2.810   5.363  21.586  1.00  0.00    -0.353 OA
HETATM   33  C9  UNL     1       2.917   4.127  20.906  1.00  0.00     0.210 C 
ENDBRANCH   4  32
BRANCH   6  34
HETATM   34  O4  UNL     1       5.386   8.170  24.418  1.00  0.00    -0.352 OA
HETATM   35  C13 UNL     1       4.594   9.366  24.676  1.00  0.00     0.210 C 
ENDBRANCH   6  34
BRANCH   5  36
HETATM   36  O3  UNL     1       3.408   6.432  24.055  1.00  0.00    -0.351 OA
HETATM   37  C11 UNL     1       2.097   6.950  24.193  1.00  0.00     0.210 C 
ENDBRANCH   5  36
TORSDOF 6
ENDMDL
MODEL 5
REMARK VINA RESULT: -7.777992882      3.211      6.744
REMARK  6 active torsions:
REMARK  status: ('A' for Active; 'I' for Inactive)
REMARK    1  A    between atoms: O1_2  and  C2_3 
REMARK    2  A    between atoms: C4_5  and  C5_6 
REMARK    3  A    between atoms: C5_6  and  N1_7 
REMARK    4  A    between atoms: C8_10  and  O2_11 
REMARK    5  A    between atoms: C10_13  and  O3_14 
REMARK    6  A    between atoms: C12_16  and  O4_17 
ROOT
HETATM    1  N1  UNL     1       6.972   8.715  21.343  1.00  0.00    -0.254 N 
HETATM    2  C6  UNL     1       7.006   7.594  20.441  1.00  0.00     0.063 A 
HETATM    3  C7  UNL     1       7.374   6.370  20.957  1.00  0.00     0.071 A 
HETATM    4  C8  UNL     1       7.513   5.252  20.171  1.00  0.00     0.106 A 
HETATM    5  C10 UNL     1       7.275   5.362  18.816  1.00  0.00     0.136 A 
HETATM    6  C12 UNL     1       6.898   6.587  18.247  1.00  0.00     0.117 A 
HETATM    7  C14 UNL     1       6.763   7.679  19.059  1.00  0.00     0.065 A 
HETATM    8  C15 UNL     1       6.247   8.959  18.548  1.00  0.00     0.236 C 
HETATM    9  N2  UNL     1       5.738   9.063  17.233  1.00  0.00    -0.303 N 
ATOM     10  H2  UNL     1       5.915   8.457  16.432  1.00  0.00     0.167 HD
HETATM   11  C16 UNL     1       4.885  10.271  17.308  1.00  0.00     0.325 C 
HETATM   12  O5  UNL     1       4.676  11.097  16.386  1.00  0.00    -0.247 OA
HETATM   13  N3  UNL     1       4.354  10.301  18.638  1.00  0.00    -0.275 N 
ATOM     14  H3  UNL     1       3.726  10.995  19.043  1.00  0.00     0.173 HD
HETATM   15  C17 UNL     1       4.905   9.129  19.280  1.00  0.00     0.281 C 
HETATM   16  O6  UNL     1       4.380   8.470  20.182  1.00  0.00    -0.268 OA
HETATM   17  N4  UNL     1       7.131   9.995  18.929  1.00  0.00    -0.257 N 
HETATM   18  C18 UNL     1       7.351  11.101  18.108  1.00  0.00     0.168 C 
HETATM   19  S1  UNL     1       7.029  10.295  20.597  1.00  0.00     0.326 S 
HETATM   20  O7  UNL     1       8.259  11.062  21.069  1.00  0.00    -0.182 OA
HETATM   21  O8  UNL     1       5.863  11.136  21.019  1.00  0.00    -0.182 OA
ENDROOT
BRANCH   1  22
HETATM   22  C5  UNL     1       6.900   8.552  22.752  1.00  0.00     0.182 C 
BRANCH  22  23
HETATM   23  C4  UNL     1       8.194   8.663  23.468  1.00  0.00    -0.036 A 
HETATM   24  C3  UNL     1       8.296   8.311  24.815  1.00  0.00     0.048 A 
HETATM   25  C2  UNL     1       9.475   8.403  25.518  1.00  0.00     0.107 A 
HETATM   26  C21 UNL     1      10.630   8.861  24.897  1.00  0.00     0.149 A 
HETATM   27  C20 UNL     1      10.545   9.211  23.567  1.00  0.00     0.046 A 
HETATM   28  F1  UNL     1      11.783   8.952  25.585  1.00  0.00    -0.203 F 
HETATM   29  C19 UNL     1       9.353   9.111  22.879  1.00  0.00     0.012 A 
BRANCH  25  30
HETATM   30  O1  UNL     1       9.563   8.051  26.858  1.00  0.00    -0.353 OA
HETATM   31  C1  UNL     1      10.222   6.850  27.184  1.00  0.00     0.210 C 
ENDBRANCH  25  30
ENDBRANCH  22  23
ENDBRANCH   1  22
BRANCH   4  32
HETATM   32  O2  UNL     1       7.880   4.006  20.657  1.00  0.00    -0.353 OA
HETATM   33  C9  UNL     1       6.939   2.988  20.935  1.00  0.00     0.210 C 
ENDBRANCH   4  32
BRANCH   6  34
HETATM   34  O4  UNL     1       6.692   6.580  16.849  1.00  0.00    -0.352 OA
HETATM   35  C13 UNL     1       5.423   5.957  16.497  1.00  0.00     0.210 C 
ENDBRANCH   6  34
BRANCH   5  36
HETATM   36  O3  UNL     1       7.397   4.269  17.956  1.00  0.00    -0.351 OA
HETATM   37  C11 UNL     1       8.684   3.936  17.466  1.00  0.00     0.210 C 
ENDBRANCH   5  36
TORSDOF 6
ENDMDL
