MODEL 1
REMARK VINA RESULT: -7.664696394      0.000      0.000
REMARK  8 active torsions:
REMARK  status: ('A' for Active; 'I' for Inactive)
REMARK    1  A    between atoms: C2_2  and  O1_5 
REMARK    2  A    between atoms: O1_5  and  C5_6 
REMARK    3  A    between atoms: C5_6  and  C6_8 
REMARK    4  A    between atoms: C6_8  and  N1_9 
REMARK    5  A    between atoms: N1_9  and  C7_12 
REMARK    6  A    between atoms: C7_12  and  C10_15 
REMARK       I    between atoms: C10_15  and  N2_17 
REMARK    7  A    between atoms: C14_23  and  C15_24 
REMARK       I    between atoms: C15_24  and  N3_26 
REMARK    8  A    between atoms: N3_26  and  C16_28 
ROOT
HETATM    1  C10 UNL     1       7.645   7.894  20.276  1.00  0.00     0.257 C 
HETATM    2  O3  UNL     1       8.441   7.672  21.276  1.00  0.00    -0.271 OA
HETATM    3  N2  UNL     1       7.479   9.218  19.830  1.00  0.00    -0.325 N 
HETATM    4  C11 UNL     1       6.911   9.537  18.535  1.00  0.00     0.203 C 
HETATM    5  S1  UNL     1       7.215  11.394  18.417  1.00  0.00    -0.121 SA
HETATM    6  C12 UNL     1       6.980  11.555  20.268  1.00  0.00     0.112 C 
HETATM    7  C13 UNL     1       5.515  11.379  20.454  1.00  0.00     0.047 C 
HETATM    8 CL1  UNL     1       7.652  13.041  20.865  1.00  0.00    -0.105 Cl
HETATM    9  C14 UNL     1       7.832  10.366  20.628  1.00  0.00     0.213 C 
ENDROOT
BRANCH   1  10
HETATM   10  C7  UNL     1       7.021   6.650  19.765  1.00  0.00     0.199 C 
HETATM   11  C8  UNL     1       5.552   6.590  19.784  1.00  0.00     0.056 C 
HETATM   12  C9  UNL     1       7.611   5.508  20.605  1.00  0.00     0.056 C 
BRANCH  10  13
HETATM   13  N1  UNL     1       7.476   6.440  18.378  1.00  0.00    -0.049 N 
ATOM     14  H12 UNL     1       8.303   5.845  18.336  1.00  0.00     0.279 HD
ATOM     15  H11 UNL     1       7.878   7.288  17.978  1.00  0.00     0.279 HD
BRANCH  13  16
HETATM   16  C6  UNL     1       6.417   5.930  17.580  1.00  0.00     0.344 C 
BRANCH  16  17
HETATM   17  C5  UNL     1       6.825   4.652  16.901  1.00  0.00     0.285 C 
HETATM   18  O2  UNL     1       7.061   4.717  15.661  1.00  0.00    -0.263 OA
BRANCH  17  19
HETATM   19  O1  UNL     1       6.928   3.505  17.605  1.00  0.00    -0.310 OA
BRANCH  19  20
HETATM   20  C2  UNL     1       8.044   2.715  17.762  1.00  0.00     0.060 C 
HETATM   21  C1  UNL     1       7.929   2.084  19.180  1.00  0.00     0.045 C 
HETATM   22  C3  UNL     1       9.330   3.579  17.785  1.00  0.00     0.045 C 
HETATM   23  C4  UNL     1       8.213   1.689  16.695  1.00  0.00     0.045 C 
ENDBRANCH  19  20
ENDBRANCH  17  19
ENDBRANCH  16  17
ENDBRANCH  13  16
ENDBRANCH  10  13
ENDBRANCH   1  10
BRANCH   9  24
HETATM   24  C15 UNL     1       7.882  10.051  22.047  1.00  0.00     0.243 C 
HETATM   25  O4  UNL     1       6.829   9.820  22.706  1.00  0.00    -0.271 OA
HETATM   26  N3  UNL     1       9.124   9.979  22.718  1.00  0.00    -0.354 N 
ATOM     27  H3  UNL     1       9.929  10.245  22.151  1.00  0.00     0.162 HD
BRANCH  26  28
HETATM   28  C16 UNL     1       9.433   9.609  24.014  1.00  0.00     0.099 C 
HETATM   29  C17 UNL     1      10.948   9.473  24.253  1.00  0.00     0.041 C 
HETATM   30  C18 UNL     1      11.049   9.263  25.778  1.00  0.00     0.142 C 
HETATM   31  S2  UNL     1       9.713   8.117  26.040  1.00  0.00     0.146 S 
HETATM   32  O5  UNL     1      10.228   6.741  26.237  1.00  0.00    -0.228 OA
HETATM   33  O6  UNL     1       8.826   8.536  27.149  1.00  0.00    -0.228 OA
HETATM   34  C19 UNL     1       8.884   8.293  24.439  1.00  0.00     0.165 C 
ENDBRANCH  26  28
ENDBRANCH   9  24
TORSDOF 8
ENDMDL
MODEL 2
REMARK VINA RESULT: -7.603186582      1.267      1.773
REMARK  8 active torsions:
REMARK  status: ('A' for Active; 'I' for Inactive)
REMARK    1  A    between atoms: C2_2  and  O1_5 
REMARK    2  A    between atoms: O1_5  and  C5_6 
REMARK    3  A    between atoms: C5_6  and  C6_8 
REMARK    4  A    between atoms: C6_8  and  N1_9 
REMARK    5  A    between atoms: N1_9  and  C7_12 
REMARK    6  A    between atoms: C7_12  and  C10_15 
REMARK       I    between atoms: C10_15  and  N2_17 
REMARK    7  A    between atoms: C14_23  and  C15_24 
REMARK       I    between atoms: C15_24  and  N3_26 
REMARK    8  A    between atoms: N3_26  and  C16_28 
ROOT
HETATM    1  C10 UNL     1       7.092   7.876  20.379  1.00  0.00     0.257 C 
HETATM    2  O3  UNL     1       7.910   7.627  21.354  1.00  0.00    -0.271 OA
HETATM    3  N2  UNL     1       7.096   9.164  19.811  1.00  0.00    -0.325 N 
HETATM    4  C11 UNL     1       6.498   9.447  18.521  1.00  0.00     0.203 C 
HETATM    5  S1  UNL     1       7.064  11.217  18.203  1.00  0.00    -0.121 SA
HETATM    6  C12 UNL     1       6.977  11.580  20.038  1.00  0.00     0.112 C 
HETATM    7  C13 UNL     1       5.516  11.649  20.315  1.00  0.00     0.047 C 
HETATM    8 CL1  UNL     1       7.899  12.994  20.449  1.00  0.00    -0.105 Cl
HETATM    9  C14 UNL     1       7.665  10.312  20.472  1.00  0.00     0.213 C 
ENDROOT
BRANCH   1  10
HETATM   10  C7  UNL     1       6.259   6.701  20.026  1.00  0.00     0.199 C 
HETATM   11  C8  UNL     1       6.351   6.217  18.641  1.00  0.00     0.056 C 
HETATM   12  C9  UNL     1       4.814   7.098  20.357  1.00  0.00     0.056 C 
BRANCH  10  13
HETATM   13  N1  UNL     1       6.616   5.592  20.931  1.00  0.00    -0.049 N 
ATOM     14  H12 UNL     1       6.330   5.780  21.891  1.00  0.00     0.279 HD
ATOM     15  H11 UNL     1       7.623   5.534  21.081  1.00  0.00     0.279 HD
BRANCH  13  16
HETATM   16  C6  UNL     1       6.082   4.367  20.449  1.00  0.00     0.344 C 
BRANCH  16  17
HETATM   17  C5  UNL     1       7.134   3.294  20.431  1.00  0.00     0.285 C 
HETATM   18  O2  UNL     1       7.015   2.368  21.283  1.00  0.00    -0.263 OA
BRANCH  17  19
HETATM   19  O1  UNL     1       8.145   3.340  19.540  1.00  0.00    -0.310 OA
BRANCH  19  20
HETATM   20  C2  UNL     1       8.195   2.753  18.296  1.00  0.00     0.060 C 
HETATM   21  C1  UNL     1       9.209   1.578  18.414  1.00  0.00     0.045 C 
HETATM   22  C3  UNL     1       8.793   3.727  17.251  1.00  0.00     0.045 C 
HETATM   23  C4  UNL     1       6.867   2.309  17.785  1.00  0.00     0.045 C 
ENDBRANCH  19  20
ENDBRANCH  17  19
ENDBRANCH  16  17
ENDBRANCH  13  16
ENDBRANCH  10  13
ENDBRANCH   1  10
BRANCH   9  24
HETATM   24  C15 UNL     1       7.760  10.124  21.911  1.00  0.00     0.243 C 
HETATM   25  O4  UNL     1       6.731  10.131  22.644  1.00  0.00    -0.271 OA
HETATM   26  N3  UNL     1       9.018   9.910  22.521  1.00  0.00    -0.354 N 
ATOM     27  H3  UNL     1       9.814   9.987  21.888  1.00  0.00     0.162 HD
BRANCH  26  28
HETATM   28  C16 UNL     1       9.350   9.614  23.830  1.00  0.00     0.099 C 
HETATM   29  C17 UNL     1      10.871   9.585  24.068  1.00  0.00     0.041 C 
HETATM   30  C18 UNL     1      10.987   9.444  25.601  1.00  0.00     0.142 C 
HETATM   31  S2  UNL     1       9.727   8.227  25.914  1.00  0.00     0.146 S 
HETATM   32  O5  UNL     1      10.328   6.896  26.165  1.00  0.00    -0.228 OA
HETATM   33  O6  UNL     1       8.816   8.634  27.008  1.00  0.00    -0.228 OA
HETATM   34  C19 UNL     1       8.887   8.284  24.310  1.00  0.00     0.165 C 
ENDBRANCH  26  28
ENDBRANCH   9  24
TORSDOF 8
ENDMDL
MODEL 3
REMARK VINA RESULT: -7.313976814      1.440      1.693
REMARK  8 active torsions:
REMARK  status: ('A' for Active; 'I' for Inactive)
REMARK    1  A    between atoms: C2_2  and  O1_5 
REMARK    2  A    between atoms: O1_5  and  C5_6 
REMARK    3  A    between atoms: C5_6  and  C6_8 
REMARK    4  A    between atoms: C6_8  and  N1_9 
REMARK    5  A    between atoms: N1_9  and  C7_12 
REMARK    6  A    between atoms: C7_12  and  C10_15 
REMARK       I    between atoms: C10_15  and  N2_17 
REMARK    7  A    between atoms: C14_23  and  C15_24 
REMARK       I    between atoms: C15_24  and  N3_26 
REMARK    8  A    between atoms: N3_26  and  C16_28 
ROOT
HETATM    1  C10 UNL     1       7.455   7.600  19.472  1.00  0.00     0.257 C 
HETATM    2  O3  UNL     1       8.743   7.519  19.600  1.00  0.00    -0.271 OA
HETATM    3  N2  UNL     1       6.856   8.873  19.499  1.00  0.00    -0.325 N 
HETATM    4  C11 UNL     1       5.507   9.109  19.023  1.00  0.00     0.203 C 
HETATM    5  S1  UNL     1       5.399  10.991  19.056  1.00  0.00    -0.121 SA
HETATM    6  C12 UNL     1       6.516  11.033  20.558  1.00  0.00     0.112 C 
HETATM    7  C13 UNL     1       5.645  10.542  21.660  1.00  0.00     0.047 C 
HETATM    8 CL1  UNL     1       7.216  12.607  20.783  1.00  0.00    -0.105 Cl
HETATM    9  C14 UNL     1       7.517  10.042  20.026  1.00  0.00     0.213 C 
ENDROOT
BRANCH   1  10
HETATM   10  C7  UNL     1       6.818   6.270  19.317  1.00  0.00     0.199 C 
HETATM   11  C8  UNL     1       5.392   6.176  19.664  1.00  0.00     0.056 C 
HETATM   12  C9  UNL     1       7.642   5.307  20.183  1.00  0.00     0.056 C 
BRANCH  10  13
HETATM   13  N1  UNL     1       6.985   5.837  17.918  1.00  0.00    -0.049 N 
ATOM     14  H12 UNL     1       7.965   5.831  17.637  1.00  0.00     0.279 HD
ATOM     15  H11 UNL     1       6.642   6.537  17.260  1.00  0.00     0.279 HD
BRANCH  13  16
HETATM   16  C6  UNL     1       6.369   4.573  17.712  1.00  0.00     0.344 C 
BRANCH  16  17
HETATM   17  C5  UNL     1       7.107   3.780  16.670  1.00  0.00     0.285 C 
HETATM   18  O2  UNL     1       7.280   4.338  15.549  1.00  0.00    -0.263 OA
BRANCH  17  19
HETATM   19  O1  UNL     1       7.554   2.537  16.943  1.00  0.00    -0.310 OA
BRANCH  19  20
HETATM   20  C2  UNL     1       8.686   2.187  17.643  1.00  0.00     0.060 C 
HETATM   21  C1  UNL     1       8.223   1.922  19.106  1.00  0.00     0.045 C 
HETATM   22  C3  UNL     1       9.675   3.377  17.719  1.00  0.00     0.045 C 
HETATM   23  C4  UNL     1       9.422   1.030  17.061  1.00  0.00     0.045 C 
ENDBRANCH  19  20
ENDBRANCH  17  19
ENDBRANCH  16  17
ENDBRANCH  13  16
ENDBRANCH  10  13
ENDBRANCH   1  10
BRANCH   9  24
HETATM   24  C15 UNL     1       8.591   9.695  20.944  1.00  0.00     0.243 C 
HETATM   25  O4  UNL     1       9.794   9.984  20.686  1.00  0.00    -0.271 OA
HETATM   26  N3  UNL     1       8.303   9.040  22.163  1.00  0.00    -0.354 N 
ATOM     27  H3  UNL     1       7.327   8.771  22.279  1.00  0.00     0.162 HD
BRANCH  26  28
HETATM   28  C16 UNL     1       9.123   8.700  23.223  1.00  0.00     0.099 C 
HETATM   29  C17 UNL     1       8.368   8.628  24.563  1.00  0.00     0.041 C 
HETATM   30  C18 UNL     1       9.419   8.046  25.531  1.00  0.00     0.142 C 
HETATM   31  S2  UNL     1      10.860   8.971  25.045  1.00  0.00     0.146 S 
HETATM   32  O5  UNL     1      11.157  10.040  26.027  1.00  0.00    -0.228 OA
HETATM   33  O6  UNL     1      12.032   8.098  24.811  1.00  0.00    -0.228 OA
HETATM   34  C19 UNL     1      10.233   9.654  23.489  1.00  0.00     0.165 C 
ENDBRANCH  26  28
ENDBRANCH   9  24
TORSDOF 8
ENDMDL
MODEL 4
REMARK VINA RESULT: -7.125403818      2.711      3.267
REMARK  8 active torsions:
REMARK  status: ('A' for Active; 'I' for Inactive)
REMARK    1  A    between atoms: C2_2  and  O1_5 
REMARK    2  A    between atoms: O1_5  and  C5_6 
REMARK    3  A    between atoms: C5_6  and  C6_8 
REMARK    4  A    between atoms: C6_8  and  N1_9 
REMARK    5  A    between atoms: N1_9  and  C7_12 
REMARK    6  A    between atoms: C7_12  and  C10_15 
REMARK       I    between atoms: C10_15  and  N2_17 
REMARK    7  A    between atoms: C14_23  and  C15_24 
REMARK       I    between atoms: C15_24  and  N3_26 
REMARK    8  A    between atoms: N3_26  and  C16_28 
ROOT
HETATM    1  C10 UNL     1       5.890   8.700  20.310  1.00  0.00     0.257 C 
HETATM    2  O3  UNL     1       7.078   8.893  20.794  1.00  0.00    -0.271 OA
HETATM    3  N2  UNL     1       4.779   9.060  21.095  1.00  0.00    -0.325 N 
HETATM    4  C11 UNL     1       3.450   9.219  20.536  1.00  0.00     0.203 C 
HETATM    5  S1  UNL     1       2.498   9.961  21.983  1.00  0.00    -0.121 SA
HETATM    6  C12 UNL     1       3.540   8.971  23.183  1.00  0.00     0.112 C 
HETATM    7  C13 UNL     1       3.040   7.580  23.020  1.00  0.00     0.047 C 
HETATM    8 CL1  UNL     1       3.456   9.629  24.788  1.00  0.00    -0.105 Cl
HETATM    9  C14 UNL     1       4.858   9.274  22.519  1.00  0.00     0.213 C 
ENDROOT
BRANCH   1  10
HETATM   10  C7  UNL     1       5.923   8.101  18.954  1.00  0.00     0.199 C 
HETATM   11  C8  UNL     1       5.684   9.011  17.824  1.00  0.00     0.056 C 
HETATM   12  C9  UNL     1       4.875   6.980  18.966  1.00  0.00     0.056 C 
BRANCH  10  13
HETATM   13  N1  UNL     1       7.236   7.458  18.763  1.00  0.00    -0.049 N 
ATOM     14  H12 UNL     1       7.808   7.507  19.606  1.00  0.00     0.279 HD
ATOM     15  H11 UNL     1       7.836   7.999  18.141  1.00  0.00     0.279 HD
BRANCH  13  16
HETATM   16  C6  UNL     1       7.073   6.122  18.310  1.00  0.00     0.344 C 
BRANCH  16  17
HETATM   17  C5  UNL     1       7.975   5.186  19.067  1.00  0.00     0.285 C 
HETATM   18  O2  UNL     1       7.801   5.117  20.317  1.00  0.00    -0.263 OA
BRANCH  17  19
HETATM   19  O1  UNL     1       8.915   4.467  18.419  1.00  0.00    -0.310 OA
BRANCH  19  20
HETATM   20  C2  UNL     1       8.777   3.217  17.861  1.00  0.00     0.060 C 
HETATM   21  C1  UNL     1      10.222   2.678  17.649  1.00  0.00     0.045 C 
HETATM   22  C3  UNL     1       8.148   3.311  16.448  1.00  0.00     0.045 C 
HETATM   23  C4  UNL     1       7.935   2.286  18.665  1.00  0.00     0.045 C 
ENDBRANCH  19  20
ENDBRANCH  17  19
ENDBRANCH  16  17
ENDBRANCH  13  16
ENDBRANCH  10  13
ENDBRANCH   1  10
BRANCH   9  24
HETATM   24  C15 UNL     1       6.012   8.613  23.108  1.00  0.00     0.243 C 
HETATM   25  O4  UNL     1       6.075   7.354  23.193  1.00  0.00    -0.271 OA
HETATM   26  N3  UNL     1       7.104   9.374  23.585  1.00  0.00    -0.354 N 
ATOM     27  H3  UNL     1       6.962  10.383  23.553  1.00  0.00     0.162 HD
BRANCH  26  28
HETATM   28  C16 UNL     1       8.330   8.981  24.086  1.00  0.00     0.099 C 
HETATM   29  C17 UNL     1       8.267   8.573  25.569  1.00  0.00     0.041 C 
HETATM   30  C18 UNL     1       9.672   7.993  25.837  1.00  0.00     0.142 C 
HETATM   31  S2  UNL     1      10.686   9.187  24.992  1.00  0.00     0.146 S 
HETATM   32  O5  UNL     1      11.337  10.105  25.956  1.00  0.00    -0.228 OA
HETATM   33  O6  UNL     1      11.671   8.546  24.092  1.00  0.00    -0.228 OA
HETATM   34  C19 UNL     1       9.388  10.027  24.048  1.00  0.00     0.165 C 
ENDBRANCH  26  28
ENDBRANCH   9  24
TORSDOF 8
ENDMDL
MODEL 5
REMARK VINA RESULT: -7.055922761      3.073      7.586
REMARK  8 active torsions:
REMARK  status: ('A' for Active; 'I' for Inactive)
REMARK    1  A    between atoms: C2_2  and  O1_5 
REMARK    2  A    between atoms: O1_5  and  C5_6 
REMARK    3  A    between atoms: C5_6  and  C6_8 
REMARK    4  A    between atoms: C6_8  and  N1_9 
REMARK    5  A    between atoms: N1_9  and  C7_12 
REMARK    6  A    between atoms: C7_12  and  C10_15 
REMARK       I    between atoms: C10_15  and  N2_17 
REMARK    7  A    between atoms: C14_23  and  C15_24 
REMARK       I    between atoms: C15_24  and  N3_26 
REMARK    8  A    between atoms: N3_26  and  C16_28 
ROOT
HETATM    1  C10 UNL     1       7.276   8.503  21.816  1.00  0.00     0.257 C 
HETATM    2  O3  UNL     1       7.887   7.536  21.204  1.00  0.00    -0.271 OA
HETATM    3  N2  UNL     1       6.098   8.209  22.528  1.00  0.00    -0.325 N 
HETATM    4  C11 UNL     1       5.540   9.112  23.516  1.00  0.00     0.203 C 
HETATM    5  S1  UNL     1       4.181   8.060  24.290  1.00  0.00    -0.121 SA
HETATM    6  C12 UNL     1       3.878   7.228  22.640  1.00  0.00     0.112 C 
HETATM    7  C13 UNL     1       3.193   8.278  21.837  1.00  0.00     0.047 C 
HETATM    8 CL1  UNL     1       3.017   5.732  22.832  1.00  0.00    -0.105 Cl
HETATM    9  C14 UNL     1       5.332   7.005  22.318  1.00  0.00     0.213 C 
ENDROOT
BRANCH   1  10
HETATM   10  C7  UNL     1       7.961   9.806  21.641  1.00  0.00     0.199 C 
HETATM   11  C8  UNL     1       7.136  10.930  21.174  1.00  0.00     0.056 C 
HETATM   12  C9  UNL     1       9.111   9.545  20.657  1.00  0.00     0.056 C 
BRANCH  10  13
HETATM   13  N1  UNL     1       8.575  10.183  22.927  1.00  0.00    -0.049 N 
ATOM     14  H12 UNL     1       7.919  10.090  23.702  1.00  0.00     0.279 HD
ATOM     15  H11 UNL     1       8.742  11.187  22.988  1.00  0.00     0.279 HD
BRANCH  13  16
HETATM   16  C6  UNL     1       9.763   9.436  23.148  1.00  0.00     0.344 C 
BRANCH  16  17
HETATM   17  C5  UNL     1       9.699   8.702  24.458  1.00  0.00     0.285 C 
HETATM   18  O2  UNL     1       8.634   8.826  25.127  1.00  0.00    -0.263 OA
BRANCH  17  19
HETATM   19  O1  UNL     1      10.741   7.954  24.877  1.00  0.00    -0.310 OA
BRANCH  19  20
HETATM   20  C2  UNL     1      11.543   8.172  25.973  1.00  0.00     0.060 C 
HETATM   21  C1  UNL     1      11.653   9.717  26.127  1.00  0.00     0.045 C 
HETATM   22  C3  UNL     1      12.984   7.667  25.709  1.00  0.00     0.045 C 
HETATM   23  C4  UNL     1      11.058   7.510  27.217  1.00  0.00     0.045 C 
ENDBRANCH  19  20
ENDBRANCH  17  19
ENDBRANCH  16  17
ENDBRANCH  13  16
ENDBRANCH  10  13
ENDBRANCH   1  10
BRANCH   9  24
HETATM   24  C15 UNL     1       5.592   6.412  21.015  1.00  0.00     0.243 C 
HETATM   25  O4  UNL     1       5.173   6.953  19.953  1.00  0.00    -0.271 OA
HETATM   26  N3  UNL     1       6.341   5.218  20.911  1.00  0.00    -0.354 N 
ATOM     27  H3  UNL     1       6.588   4.794  21.805  1.00  0.00     0.162 HD
BRANCH  26  28
HETATM   28  C16 UNL     1       6.794   4.527  19.803  1.00  0.00     0.099 C 
HETATM   29  C17 UNL     1       7.231   3.088  20.133  1.00  0.00     0.041 C 
HETATM   30  C18 UNL     1       7.493   2.470  18.743  1.00  0.00     0.142 C 
HETATM   31  S2  UNL     1       8.359   3.806  17.948  1.00  0.00     0.146 S 
HETATM   32  O5  UNL     1       9.813   3.529  17.883  1.00  0.00    -0.228 OA
HETATM   33  O6  UNL     1       7.799   4.120  16.614  1.00  0.00    -0.228 OA
HETATM   34  C19 UNL     1       7.985   5.120  19.138  1.00  0.00     0.165 C 
ENDBRANCH  26  28
ENDBRANCH   9  24
TORSDOF 8
ENDMDL
