MODEL 1
REMARK VINA RESULT: -7.838724380      0.000      0.000
REMARK  8 active torsions:
REMARK  status: ('A' for Active; 'I' for Inactive)
REMARK    1  A    between atoms: C3_3  and  C4_4 
REMARK    2  A    between atoms: C5_8  and  N3_9 
REMARK    3  A    between atoms: N3_9  and  C7_11 
REMARK    4  A    between atoms: C7_11  and  C8_12 
REMARK    5  A    between atoms: C8_12  and  N4_13 
REMARK    6  A    between atoms: C11_18  and  N6_19 
REMARK    7  A    between atoms: N6_19  and  C12_21 
REMARK    8  A    between atoms: C14_23  and  C15_24 
ROOT
HETATM    1  C1  UNL     1       7.613  15.268  19.220  1.00  0.00     0.112 C 
HETATM    2  C2  UNL     1       7.615  13.859  19.627  1.00  0.00    -0.103 C 
HETATM    3  C3  UNL     1       7.612  12.700  19.984  1.00  0.00    -0.029 C 
ENDROOT
BRANCH   3   4
HETATM    4  C4  UNL     1       7.602  11.324  20.435  1.00  0.00     0.192 A 
HETATM    5  N1  UNL     1       8.287  10.820  21.470  1.00  0.00    -0.241 N 
HETATM    6  N2  UNL     1       8.020   9.506  21.572  1.00  0.00     0.093 N 
ATOM      7  H1  UNL     1       8.909  11.348  22.082  1.00  0.00     0.191 HD
HETATM    8  C5  UNL     1       8.435   8.547  22.416  1.00  0.00     0.731 A 
HETATM    9  C19 UNL     1       7.156   9.175  20.591  1.00  0.00     0.735 A 
HETATM   10  N5  UNL     1       7.969   7.277  22.249  1.00  0.00    -0.019 N 
HETATM   11  C11 UNL     1       7.110   6.924  21.282  1.00  0.00     0.712 A 
ATOM     12  H5  UNL     1       8.289   6.557  22.896  1.00  0.00     0.203 HD
HETATM   13  N9  UNL     1       6.722   7.918  20.462  1.00  0.00    -0.019 N 
ATOM     14  H9  UNL     1       6.069   7.702  19.710  1.00  0.00     0.203 HD
HETATM   15  N10 UNL     1       6.917  10.308  19.909  1.00  0.00    -0.164 N 
ATOM     16  H10 UNL     1       6.297  10.381  19.101  1.00  0.00     0.186 HD
BRANCH   8  17
HETATM   17  N3  UNL     1       9.324   8.877  23.462  1.00  0.00    -0.218 N 
HETATM   18  C6  UNL     1      10.597   9.490  23.211  1.00  0.00     0.169 C 
BRANCH  17  19
HETATM   19  C7  UNL     1       8.933   8.599  24.837  1.00  0.00     0.171 C 
BRANCH  19  20
HETATM   20  C8  UNL     1      10.025   8.734  25.829  1.00  0.00     0.291 C 
BRANCH  20  21
HETATM   21  N4  UNL     1      10.782   7.579  26.145  1.00  0.00     0.081 N 
HETATM   22  C9  UNL     1      10.254   6.863  27.261  1.00  0.00     0.309 C 
HETATM   23  C10 UNL     1      12.189   7.901  26.275  1.00  0.00     0.309 C 
ENDBRANCH  20  21
ENDBRANCH  19  20
ENDBRANCH  17  19
ENDBRANCH   8  17
BRANCH  11  24
HETATM   24  N6  UNL     1       6.641   5.767  21.069  1.00  0.00    -0.189 N 
ATOM     25  H6  UNL     1       6.160   5.332  21.855  1.00  0.00     0.184 HD
BRANCH  24  26
HETATM   26  C12 UNL     1       6.697   5.005  19.889  1.00  0.00     0.070 A 
HETATM   27  C13 UNL     1       7.840   4.295  19.607  1.00  0.00     0.066 A 
HETATM   28  C14 UNL     1       7.979   3.509  18.454  1.00  0.00     0.101 A 
HETATM   29  N8  UNL     1       6.940   3.471  17.621  1.00  0.00    -0.356 N 
HETATM   30  C16 UNL     1       7.005   2.678  16.402  1.00  0.00     0.156 C 
HETATM   31  C17 UNL     1       5.787   4.165  17.868  1.00  0.00     0.112 A 
HETATM   32  C18 UNL     1       5.652   4.933  18.994  1.00  0.00     0.053 A 
HETATM   33 BR1  UNL     1       4.057   5.908  19.361  1.00  0.00    -0.047 Br
BRANCH  28  34
HETATM   34  C15 UNL     1       9.194   2.782  18.196  1.00  0.00     0.281 C 
HETATM   35  N7  UNL     1       9.455   1.426  18.412  1.00  0.00    -0.056 NA
HETATM   36  O1  UNL     1      10.176   3.454  17.703  1.00  0.00    -0.269 OA
ENDBRANCH  28  34
ENDBRANCH  24  26
ENDBRANCH  11  24
ENDBRANCH   3   4
TORSDOF 8
ENDMDL
MODEL 2
REMARK VINA RESULT: -7.811839436      2.940      7.566
REMARK  8 active torsions:
REMARK  status: ('A' for Active; 'I' for Inactive)
REMARK    1  A    between atoms: C3_3  and  C4_4 
REMARK    2  A    between atoms: C5_8  and  N3_9 
REMARK    3  A    between atoms: N3_9  and  C7_11 
REMARK    4  A    between atoms: C7_11  and  C8_12 
REMARK    5  A    between atoms: C8_12  and  N4_13 
REMARK    6  A    between atoms: C11_18  and  N6_19 
REMARK    7  A    between atoms: N6_19  and  C12_21 
REMARK    8  A    between atoms: C14_23  and  C15_24 
ROOT
HETATM    1  C1  UNL     1       9.529   1.671  18.102  1.00  0.00     0.112 C 
HETATM    2  C2  UNL     1       8.934   2.988  18.349  1.00  0.00    -0.103 C 
HETATM    3  C3  UNL     1       8.424   4.068  18.564  1.00  0.00    -0.029 C 
ENDROOT
BRANCH   3   4
HETATM    4  C4  UNL     1       7.797   5.345  18.832  1.00  0.00     0.192 A 
HETATM    5  N1  UNL     1       7.622   5.910  20.035  1.00  0.00    -0.241 N 
HETATM    6  N2  UNL     1       7.001   7.093  19.876  1.00  0.00     0.093 N 
ATOM      7  H1  UNL     1       7.912   5.508  20.926  1.00  0.00     0.191 HD
HETATM    8  C5  UNL     1       6.595   8.040  20.736  1.00  0.00     0.731 A 
HETATM    9  C19 UNL     1       6.782   7.278  18.558  1.00  0.00     0.735 A 
HETATM   10  N5  UNL     1       5.978   9.152  20.247  1.00  0.00    -0.019 N 
HETATM   11  C11 UNL     1       5.749   9.360  18.943  1.00  0.00     0.712 A 
ATOM     12  H5  UNL     1       5.675   9.866  20.910  1.00  0.00     0.203 HD
HETATM   13  N9  UNL     1       6.174   8.384  18.119  1.00  0.00    -0.019 N 
ATOM     14  H9  UNL     1       6.024   8.494  17.116  1.00  0.00     0.203 HD
HETATM   15  N10 UNL     1       7.280   6.192  17.941  1.00  0.00    -0.164 N 
ATOM     16  H10 UNL     1       7.264   6.038  16.933  1.00  0.00     0.186 HD
BRANCH   8  17
HETATM   17  N3  UNL     1       6.833   7.874  22.118  1.00  0.00    -0.218 N 
HETATM   18  C6  UNL     1       5.782   7.522  23.032  1.00  0.00     0.169 C 
BRANCH  17  19
HETATM   19  C7  UNL     1       8.184   8.050  22.630  1.00  0.00     0.171 C 
BRANCH  19  20
HETATM   20  C8  UNL     1       8.426   9.349  23.301  1.00  0.00     0.291 C 
BRANCH  20  21
HETATM   21  N4  UNL     1       9.277   9.363  24.433  1.00  0.00     0.081 N 
HETATM   22  C9  UNL     1      10.654   9.222  24.088  1.00  0.00     0.309 C 
HETATM   23  C10 UNL     1       8.828   8.412  25.430  1.00  0.00     0.309 C 
ENDBRANCH  20  21
ENDBRANCH  19  20
ENDBRANCH  17  19
ENDBRANCH   8  17
BRANCH  11  24
HETATM   24  N6  UNL     1       5.181  10.365  18.422  1.00  0.00    -0.189 N 
ATOM     25  H6  UNL     1       4.468  10.158  17.722  1.00  0.00     0.184 HD
BRANCH  24  26
HETATM   26  C12 UNL     1       5.404  11.727  18.684  1.00  0.00     0.070 A 
HETATM   27  C13 UNL     1       6.662  12.138  19.056  1.00  0.00     0.066 A 
HETATM   28  C14 UNL     1       6.972  13.478  19.333  1.00  0.00     0.101 A 
HETATM   29  N8  UNL     1       5.981  14.361  19.220  1.00  0.00    -0.356 N 
HETATM   30  C16 UNL     1       6.221  15.772  19.490  1.00  0.00     0.156 C 
HETATM   31  C17 UNL     1       4.716  13.989  18.852  1.00  0.00     0.112 A 
HETATM   32  C18 UNL     1       4.415  12.682  18.582  1.00  0.00     0.053 A 
HETATM   33 BR1  UNL     1       2.662  12.138  18.068  1.00  0.00    -0.047 Br
BRANCH  28  34
HETATM   34  C15 UNL     1       8.303  13.865  19.721  1.00  0.00     0.281 C 
HETATM   35  N7  UNL     1       8.725  14.424  20.929  1.00  0.00    -0.056 NA
HETATM   36  O1  UNL     1       9.235  13.675  18.852  1.00  0.00    -0.269 OA
ENDBRANCH  28  34
ENDBRANCH  24  26
ENDBRANCH  11  24
ENDBRANCH   3   4
TORSDOF 8
ENDMDL
MODEL 3
REMARK VINA RESULT: -7.706634244      2.404      3.065
REMARK  8 active torsions:
REMARK  status: ('A' for Active; 'I' for Inactive)
REMARK    1  A    between atoms: C3_3  and  C4_4 
REMARK    2  A    between atoms: C5_8  and  N3_9 
REMARK    3  A    between atoms: N3_9  and  C7_11 
REMARK    4  A    between atoms: C7_11  and  C8_12 
REMARK    5  A    between atoms: C8_12  and  N4_13 
REMARK    6  A    between atoms: C11_18  and  N6_19 
REMARK    7  A    between atoms: N6_19  and  C12_21 
REMARK    8  A    between atoms: C14_23  and  C15_24 
ROOT
HETATM    1  C1  UNL     1       7.289  15.899  19.089  1.00  0.00     0.112 C 
HETATM    2  C2  UNL     1       7.492  14.467  19.330  1.00  0.00    -0.103 C 
HETATM    3  C3  UNL     1       7.639  13.280  19.536  1.00  0.00    -0.029 C 
ENDROOT
BRANCH   3   4
HETATM    4  C4  UNL     1       7.789  11.863  19.789  1.00  0.00     0.192 A 
HETATM    5  N1  UNL     1       8.104  11.291  20.958  1.00  0.00    -0.241 N 
HETATM    6  N2  UNL     1       8.151   9.956  20.794  1.00  0.00     0.093 N 
ATOM      7  H1  UNL     1       8.280  11.787  21.832  1.00  0.00     0.191 HD
HETATM    8  C5  UNL     1       8.417   8.937  21.627  1.00  0.00     0.731 A 
HETATM    9  C19 UNL     1       7.861   9.682  19.506  1.00  0.00     0.735 A 
HETATM   10  N5  UNL     1       8.384   7.665  21.141  1.00  0.00    -0.019 N 
HETATM   11  C11 UNL     1       8.099   7.366  19.865  1.00  0.00     0.712 A 
ATOM     12  H5  UNL     1       8.586   6.898  21.782  1.00  0.00     0.203 HD
HETATM   13  N9  UNL     1       7.839   8.419  19.069  1.00  0.00    -0.019 N 
ATOM     14  H9  UNL     1       7.615   8.246  18.089  1.00  0.00     0.203 HD
HETATM   15  N10 UNL     1       7.643  10.868  18.912  1.00  0.00    -0.164 N 
ATOM     16  H10 UNL     1       7.401  10.990  17.929  1.00  0.00     0.186 HD
BRANCH   8  17
HETATM   17  N3  UNL     1       8.703   9.203  22.984  1.00  0.00    -0.218 N 
HETATM   18  C6  UNL     1       7.663   9.392  23.956  1.00  0.00     0.169 C 
BRANCH  17  19
HETATM   19  C7  UNL     1      10.092   9.275  23.413  1.00  0.00     0.171 C 
BRANCH  19  20
HETATM   20  C8  UNL     1      10.284   9.334  24.882  1.00  0.00     0.291 C 
BRANCH  20  21
HETATM   21  N4  UNL     1      10.649   8.142  25.552  1.00  0.00     0.081 N 
HETATM   22  C9  UNL     1       9.724   7.783  26.578  1.00  0.00     0.309 C 
HETATM   23  C10 UNL     1      12.024   8.202  26.005  1.00  0.00     0.309 C 
ENDBRANCH  20  21
ENDBRANCH  19  20
ENDBRANCH  17  19
ENDBRANCH   8  17
BRANCH  11  24
HETATM   24  N6  UNL     1       8.054   6.211  19.348  1.00  0.00    -0.189 N 
ATOM     25  H6  UNL     1       8.845   5.959  18.756  1.00  0.00     0.184 HD
BRANCH  24  26
HETATM   26  C12 UNL     1       7.056   5.231  19.485  1.00  0.00     0.070 A 
HETATM   27  C13 UNL     1       6.045   5.430  20.394  1.00  0.00     0.066 A 
HETATM   28  C14 UNL     1       5.009   4.505  20.592  1.00  0.00     0.101 A 
HETATM   29  N8  UNL     1       5.039   3.398  19.850  1.00  0.00    -0.356 N 
HETATM   30  C16 UNL     1       4.000   2.389  19.996  1.00  0.00     0.156 C 
HETATM   31  C17 UNL     1       6.030   3.165  18.935  1.00  0.00     0.112 A 
HETATM   32  C18 UNL     1       7.040   4.069  18.743  1.00  0.00     0.053 A 
HETATM   33 BR1  UNL     1       8.432   3.768  17.476  1.00  0.00    -0.047 Br
BRANCH  28  34
HETATM   34  C15 UNL     1       3.970   4.753  21.556  1.00  0.00     0.281 C 
HETATM   35  N7  UNL     1       3.884   4.298  22.874  1.00  0.00    -0.056 NA
HETATM   36  O1  UNL     1       2.985   5.488  21.167  1.00  0.00    -0.269 OA
ENDBRANCH  28  34
ENDBRANCH  24  26
ENDBRANCH  11  24
ENDBRANCH   3   4
TORSDOF 8
ENDMDL
MODEL 4
REMARK VINA RESULT: -7.606512672      4.364      6.974
REMARK  8 active torsions:
REMARK  status: ('A' for Active; 'I' for Inactive)
REMARK    1  A    between atoms: C3_3  and  C4_4 
REMARK    2  A    between atoms: C5_8  and  N3_9 
REMARK    3  A    between atoms: N3_9  and  C7_11 
REMARK    4  A    between atoms: C7_11  and  C8_12 
REMARK    5  A    between atoms: C8_12  and  N4_13 
REMARK    6  A    between atoms: C11_18  and  N6_19 
REMARK    7  A    between atoms: N6_19  and  C12_21 
REMARK    8  A    between atoms: C14_23  and  C15_24 
ROOT
HETATM    1  C1  UNL     1      13.112   7.753  26.689  1.00  0.00     0.112 C 
HETATM    2  C2  UNL     1      11.813   8.090  26.098  1.00  0.00    -0.103 C 
HETATM    3  C3  UNL     1      10.734   8.347  25.608  1.00  0.00    -0.029 C 
ENDROOT
BRANCH   3   4
HETATM    4  C4  UNL     1       9.441   8.629  25.020  1.00  0.00     0.192 A 
HETATM    5  N1  UNL     1       9.213   9.258  23.860  1.00  0.00    -0.241 N 
HETATM    6  N2  UNL     1       7.885   9.330  23.654  1.00  0.00     0.093 N 
ATOM      7  H1  UNL     1       9.930   9.623  23.233  1.00  0.00     0.191 HD
HETATM    8  C5  UNL     1       7.135   9.849  22.670  1.00  0.00     0.731 A 
HETATM    9  C19 UNL     1       7.267   8.738  24.697  1.00  0.00     0.735 A 
HETATM   10  N5  UNL     1       5.778   9.759  22.759  1.00  0.00    -0.019 N 
HETATM   11  C11 UNL     1       5.140   9.177  23.785  1.00  0.00     0.712 A 
ATOM     12  H5  UNL     1       5.217  10.155  22.005  1.00  0.00     0.203 HD
HETATM   13  N9  UNL     1       5.933   8.670  24.746  1.00  0.00    -0.019 N 
ATOM     14  H9  UNL     1       5.497   8.216  25.549  1.00  0.00     0.203 HD
HETATM   15  N10 UNL     1       8.243   8.317  25.519  1.00  0.00    -0.164 N 
ATOM     16  H10 UNL     1       8.090   7.828  26.401  1.00  0.00     0.186 HD
BRANCH   8  17
HETATM   17  N3  UNL     1       7.764  10.455  21.560  1.00  0.00    -0.218 N 
HETATM   18  C6  UNL     1       8.487   9.687  20.586  1.00  0.00     0.169 C 
BRANCH  17  19
HETATM   19  C7  UNL     1       7.665  11.897  21.392  1.00  0.00     0.171 C 
BRANCH  19  20
HETATM   20  C8  UNL     1       6.813  12.331  20.259  1.00  0.00     0.291 C 
BRANCH  20  21
HETATM   21  N4  UNL     1       7.168  13.522  19.580  1.00  0.00     0.081 N 
HETATM   22  C9  UNL     1       8.481  13.469  19.025  1.00  0.00     0.309 C 
HETATM   23  C10 UNL     1       6.936  14.683  20.415  1.00  0.00     0.309 C 
ENDBRANCH  20  21
ENDBRANCH  19  20
ENDBRANCH  17  19
ENDBRANCH   8  17
BRANCH  11  24
HETATM   24  N6  UNL     1       3.887   9.062  23.933  1.00  0.00    -0.189 N 
ATOM     25  H6  UNL     1       3.439   9.784  24.495  1.00  0.00     0.184 HD
BRANCH  24  26
HETATM   26  C12 UNL     1       3.035   8.067  23.422  1.00  0.00     0.070 A 
HETATM   27  C13 UNL     1       3.359   6.746  23.618  1.00  0.00     0.066 A 
HETATM   28  C14 UNL     1       2.564   5.692  23.144  1.00  0.00     0.101 A 
HETATM   29  N8  UNL     1       1.456   6.023  22.481  1.00  0.00    -0.356 N 
HETATM   30  C16 UNL     1       0.577   4.987  21.957  1.00  0.00     0.156 C 
HETATM   31  C17 UNL     1       1.102   7.328  22.267  1.00  0.00     0.112 A 
HETATM   32  C18 UNL     1       1.879   8.355  22.730  1.00  0.00     0.053 A 
HETATM   33 BR1  UNL     1       1.407  10.180  22.445  1.00  0.00    -0.047 Br
BRANCH  28  34
HETATM   34  C15 UNL     1       2.941   4.321  23.370  1.00  0.00     0.281 C 
HETATM   35  N7  UNL     1       3.731   3.496  22.566  1.00  0.00    -0.056 NA
HETATM   36  O1  UNL     1       2.500   3.772  24.449  1.00  0.00    -0.269 OA
ENDBRANCH  28  34
ENDBRANCH  24  26
ENDBRANCH  11  24
ENDBRANCH   3   4
TORSDOF 8
ENDMDL
MODEL 5
REMARK VINA RESULT: -7.581095839      4.493      7.456
REMARK  8 active torsions:
REMARK  status: ('A' for Active; 'I' for Inactive)
REMARK    1  A    between atoms: C3_3  and  C4_4 
REMARK    2  A    between atoms: C5_8  and  N3_9 
REMARK    3  A    between atoms: N3_9  and  C7_11 
REMARK    4  A    between atoms: C7_11  and  C8_12 
REMARK    5  A    between atoms: C8_12  and  N4_13 
REMARK    6  A    between atoms: C11_18  and  N6_19 
REMARK    7  A    between atoms: N6_19  and  C12_21 
REMARK    8  A    between atoms: C14_23  and  C15_24 
ROOT
HETATM    1  C1  UNL     1      12.844   7.687  26.422  1.00  0.00     0.112 C 
HETATM    2  C2  UNL     1      11.493   8.015  25.957  1.00  0.00    -0.103 C 
HETATM    3  C3  UNL     1      10.376   8.271  25.557  1.00  0.00    -0.029 C 
ENDROOT
BRANCH   3   4
HETATM    4  C4  UNL     1       9.046   8.557  25.063  1.00  0.00     0.192 A 
HETATM    5  N1  UNL     1       8.725   8.964  23.827  1.00  0.00    -0.241 N 
HETATM    6  N2  UNL     1       7.392   9.125  23.752  1.00  0.00     0.093 N 
ATOM      7  H1  UNL     1       9.386   9.126  23.067  1.00  0.00     0.191 HD
HETATM    8  C5  UNL     1       6.567   9.510  22.765  1.00  0.00     0.731 A 
HETATM    9  C19 UNL     1       6.863   8.815  24.953  1.00  0.00     0.735 A 
HETATM   10  N5  UNL     1       5.229   9.574  23.013  1.00  0.00    -0.019 N 
HETATM   11  C11 UNL     1       4.679   9.272  24.198  1.00  0.00     0.712 A 
ATOM     12  H5  UNL     1       4.611   9.868  22.256  1.00  0.00     0.203 HD
HETATM   13  N9  UNL     1       5.544   8.890  25.156  1.00  0.00    -0.019 N 
ATOM     14  H9  UNL     1       5.177   8.648  26.076  1.00  0.00     0.203 HD
HETATM   15  N10 UNL     1       7.899   8.470  25.738  1.00  0.00    -0.164 N 
ATOM     16  H10 UNL     1       7.819   8.183  26.714  1.00  0.00     0.186 HD
BRANCH   8  17
HETATM   17  N3  UNL     1       7.099   9.820  21.494  1.00  0.00    -0.218 N 
HETATM   18  C6  UNL     1       7.277   8.818  20.481  1.00  0.00     0.169 C 
BRANCH  17  19
HETATM   19  C7  UNL     1       7.466  11.198  21.198  1.00  0.00     0.171 C 
BRANCH  19  20
HETATM   20  C8  UNL     1       8.073  11.401  19.861  1.00  0.00     0.291 C 
BRANCH  20  21
HETATM   21  N4  UNL     1       7.602  12.481  19.075  1.00  0.00     0.081 N 
HETATM   22  C9  UNL     1       8.495  13.594  19.078  1.00  0.00     0.309 C 
HETATM   23  C10 UNL     1       6.241  12.828  19.434  1.00  0.00     0.309 C 
ENDBRANCH  20  21
ENDBRANCH  19  20
ENDBRANCH  17  19
ENDBRANCH   8  17
BRANCH  11  24
HETATM   24  N6  UNL     1       3.450   9.312  24.497  1.00  0.00    -0.189 N 
ATOM     25  H6  UNL     1       3.114  10.198  24.875  1.00  0.00     0.184 HD
BRANCH  24  26
HETATM   26  C12 UNL     1       2.487   8.295  24.376  1.00  0.00     0.070 A 
HETATM   27  C13 UNL     1       2.893   7.031  24.021  1.00  0.00     0.066 A 
HETATM   28  C14 UNL     1       2.000   5.959  23.880  1.00  0.00     0.101 A 
HETATM   29  N8  UNL     1       0.712   6.213  24.109  1.00  0.00    -0.356 N 
HETATM   30  C16 UNL     1      -0.278   5.153  23.984  1.00  0.00     0.156 C 
HETATM   31  C17 UNL     1       0.271   7.459  24.465  1.00  0.00     0.112 A 
HETATM   32  C18 UNL     1       1.144   8.505  24.602  1.00  0.00     0.053 A 
HETATM   33 BR1  UNL     1       0.555  10.249  25.096  1.00  0.00    -0.047 Br
BRANCH  28  34
HETATM   34  C15 UNL     1       2.468   4.651  23.505  1.00  0.00     0.281 C 
HETATM   35  N7  UNL     1       2.700   4.149  22.222  1.00  0.00    -0.056 NA
HETATM   36  O1  UNL     1       2.707   3.825  24.465  1.00  0.00    -0.269 OA
ENDBRANCH  28  34
ENDBRANCH  24  26
ENDBRANCH  11  24
ENDBRANCH   3   4
TORSDOF 8
ENDMDL
