MODEL 1
REMARK VINA RESULT: -7.835240398      0.000      0.000
REMARK  7 active torsions:
REMARK  status: ('A' for Active; 'I' for Inactive)
REMARK    1  A    between atoms: C2_2  and  O1_3 
REMARK    2  A    between atoms: O1_3  and  C3_4 
REMARK    3  A    between atoms: C8_10  and  N1_11 
REMARK    4  A    between atoms: C15_22  and  O5_23 
REMARK    5  A    between atoms: O5_23  and  C16_24 
REMARK    6  A    between atoms: C18_27  and  C19_28 
REMARK    7  A    between atoms: C20_29  and  C21_30 
ROOT
HETATM    1  C3  UNL     1       7.803  10.742  20.613  1.00  0.00     0.151 C 
HETATM    2  C4  UNL     1       8.230   9.916  19.419  1.00  0.00     0.200 C 
HETATM    3  O2  UNL     1       9.039   8.867  19.667  1.00  0.00    -0.383 OA
HETATM    4  C5  UNL     1       8.971   8.182  20.822  1.00  0.00     0.127 C 
HETATM    5  C6  UNL     1       8.651   9.031  22.061  1.00  0.00     0.041 C 
HETATM    6  C7  UNL     1       7.369   9.769  21.693  1.00  0.00     0.043 C 
HETATM    7  C8  UNL     1       6.280   8.830  21.234  1.00  0.00     0.107 C 
HETATM    8  C14 UNL     1       6.656   7.386  21.369  1.00  0.00     0.047 C 
HETATM    9  C15 UNL     1       6.120   6.530  20.178  1.00  0.00     0.146 C 
HETATM   10  C18 UNL     1       7.455   6.557  19.544  1.00  0.00     0.045 C 
HETATM   11  C23 UNL     1       8.007   7.037  20.885  1.00  0.00     0.033 C 
ENDROOT
BRANCH   7  12
HETATM   12  N1  UNL     1       5.119   9.086  22.046  1.00  0.00    -0.303 N 
HETATM   13  C9  UNL     1       5.098   8.818  23.364  1.00  0.00     0.108 A 
HETATM   14  C10 UNL     1       3.964   9.076  24.125  1.00  0.00     0.022 A 
HETATM   15  C11 UNL     1       3.965   8.769  25.584  1.00  0.00     0.056 C 
HETATM   16  C12 UNL     1       2.838   9.614  23.524  1.00  0.00     0.256 A 
HETATM   17  O3  UNL     1       1.804   9.852  24.204  1.00  0.00    -0.267 OA
HETATM   18  N2  UNL     1       2.904   9.869  22.193  1.00  0.00    -0.275 N 
HETATM   19  C13 UNL     1       4.023   9.607  21.483  1.00  0.00     0.329 A 
ATOM     20  H2  UNL     1       2.092  10.267  21.719  1.00  0.00     0.173 HD
HETATM   21  O4  UNL     1       4.031   9.861  20.253  1.00  0.00    -0.246 OA
ENDBRANCH   7  12
BRANCH   1  22
HETATM   22  O1  UNL     1       6.791  11.593  20.259  1.00  0.00    -0.384 OA
BRANCH  22  23
HETATM   23  C2  UNL     1       7.176  12.810  19.766  1.00  0.00     0.163 C 
HETATM   24  C1  UNL     1       8.313  13.462  20.464  1.00  0.00     0.033 C 
ENDBRANCH  22  23
ENDBRANCH   1  22
BRANCH   9  25
HETATM   25  O5  UNL     1       5.612   5.334  20.680  1.00  0.00    -0.315 OA
BRANCH  25  26
HETATM   26  C16 UNL     1       4.495   5.297  21.519  1.00  0.00     0.255 C 
HETATM   27  C17 UNL     1       3.245   6.023  21.210  1.00  0.00     0.126 C 
HETATM   28  O6  UNL     1       4.590   4.612  22.569  1.00  0.00    -0.266 OA
ENDBRANCH  25  26
ENDBRANCH   9  25
BRANCH  10  29
HETATM   29  C19 UNL     1       8.095   5.322  19.063  1.00  0.00    -0.019 C 
HETATM   30  C20 UNL     1       8.064   4.802  17.876  1.00  0.00    -0.003 C 
BRANCH  30  31
HETATM   31  C21 UNL     1       8.792   3.542  17.639  1.00  0.00     0.007 C 
HETATM   32  C22 UNL     1       9.057   2.768  18.665  1.00  0.00     0.056 C 
HETATM   33 BR1  UNL     1       9.998   1.130  18.400  1.00  0.00    -0.064 Br
ENDBRANCH  30  31
ENDBRANCH  10  29
TORSDOF 7
ENDMDL
MODEL 2
REMARK VINA RESULT: -7.799106216      1.131      1.401
REMARK  7 active torsions:
REMARK  status: ('A' for Active; 'I' for Inactive)
REMARK    1  A    between atoms: C2_2  and  O1_3 
REMARK    2  A    between atoms: O1_3  and  C3_4 
REMARK    3  A    between atoms: C8_10  and  N1_11 
REMARK    4  A    between atoms: C15_22  and  O5_23 
REMARK    5  A    between atoms: O5_23  and  C16_24 
REMARK    6  A    between atoms: C18_27  and  C19_28 
REMARK    7  A    between atoms: C20_29  and  C21_30 
ROOT
HETATM    1  C3  UNL     1       7.181  11.042  19.734  1.00  0.00     0.151 C 
HETATM    2  C4  UNL     1       7.688  10.069  18.692  1.00  0.00     0.200 C 
HETATM    3  O2  UNL     1       8.703   9.263  19.059  1.00  0.00    -0.383 OA
HETATM    4  C5  UNL     1       8.846   8.843  20.330  1.00  0.00     0.127 C 
HETATM    5  C6  UNL     1       8.443   9.868  21.399  1.00  0.00     0.041 C 
HETATM    6  C7  UNL     1       7.019  10.264  21.026  1.00  0.00     0.043 C 
HETATM    7  C8  UNL     1       6.112   9.066  20.880  1.00  0.00     0.107 C 
HETATM    8  C14 UNL     1       6.776   7.778  21.262  1.00  0.00     0.047 C 
HETATM    9  C15 UNL     1       6.347   6.602  20.330  1.00  0.00     0.146 C 
HETATM   10  C18 UNL     1       7.606   6.732  19.567  1.00  0.00     0.045 C 
HETATM   11  C23 UNL     1       8.136   7.584  20.720  1.00  0.00     0.033 C 
ENDROOT
BRANCH   7  12
HETATM   12  N1  UNL     1       4.977   9.278  21.741  1.00  0.00    -0.303 N 
HETATM   13  C9  UNL     1       5.105   9.379  23.076  1.00  0.00     0.108 A 
HETATM   14  C10 UNL     1       3.992   9.584  23.884  1.00  0.00     0.022 A 
HETATM   15  C11 UNL     1       4.159   9.693  25.362  1.00  0.00     0.056 C 
HETATM   16  C12 UNL     1       2.735   9.684  23.313  1.00  0.00     0.256 A 
HETATM   17  O3  UNL     1       1.719   9.869  24.035  1.00  0.00    -0.267 OA
HETATM   18  N2  UNL     1       2.652   9.576  21.962  1.00  0.00    -0.275 N 
HETATM   19  C13 UNL     1       3.755   9.378  21.206  1.00  0.00     0.329 A 
ATOM     20  H2  UNL     1       1.741   9.645  21.510  1.00  0.00     0.173 HD
HETATM   21  O4  UNL     1       3.624   9.283  19.961  1.00  0.00    -0.246 OA
ENDBRANCH   7  12
BRANCH   1  22
HETATM   22  O1  UNL     1       5.999  11.598  19.324  1.00  0.00    -0.384 OA
BRANCH  22  23
HETATM   23  C2  UNL     1       5.836  11.727  17.971  1.00  0.00     0.163 C 
HETATM   24  C1  UNL     1       5.264  13.017  17.508  1.00  0.00     0.033 C 
ENDBRANCH  22  23
ENDBRANCH   1  22
BRANCH   9  25
HETATM   25  O5  UNL     1       6.120   5.472  21.111  1.00  0.00    -0.315 OA
BRANCH  25  26
HETATM   26  C16 UNL     1       5.435   4.357  20.620  1.00  0.00     0.255 C 
HETATM   27  C17 UNL     1       5.971   2.984  20.731  1.00  0.00     0.126 C 
HETATM   28  O6  UNL     1       4.324   4.563  20.069  1.00  0.00    -0.266 OA
ENDBRANCH  25  26
ENDBRANCH   9  25
BRANCH  10  29
HETATM   29  C19 UNL     1       8.448   5.560  19.280  1.00  0.00    -0.019 C 
HETATM   30  C20 UNL     1       8.365   4.725  18.292  1.00  0.00    -0.003 C 
BRANCH  30  31
HETATM   31  C21 UNL     1       9.333   3.616  18.222  1.00  0.00     0.007 C 
HETATM   32  C22 UNL     1       8.896   2.390  18.391  1.00  0.00     0.056 C 
HETATM   33 BR1  UNL     1      10.118   0.927  18.309  1.00  0.00    -0.064 Br
ENDBRANCH  30  31
ENDBRANCH  10  29
TORSDOF 7
ENDMDL
MODEL 3
REMARK VINA RESULT: -7.067807865      3.911      7.106
REMARK  7 active torsions:
REMARK  status: ('A' for Active; 'I' for Inactive)
REMARK    1  A    between atoms: C2_2  and  O1_3 
REMARK    2  A    between atoms: O1_3  and  C3_4 
REMARK    3  A    between atoms: C8_10  and  N1_11 
REMARK    4  A    between atoms: C15_22  and  O5_23 
REMARK    5  A    between atoms: O5_23  and  C16_24 
REMARK    6  A    between atoms: C18_27  and  C19_28 
REMARK    7  A    between atoms: C20_29  and  C21_30 
ROOT
HETATM    1  C3  UNL     1       6.103   6.736  19.173  1.00  0.00     0.151 C 
HETATM    2  C4  UNL     1       5.982   7.441  17.840  1.00  0.00     0.200 C 
HETATM    3  O2  UNL     1       4.942   8.286  17.694  1.00  0.00    -0.383 OA
HETATM    4  C5  UNL     1       4.442   8.974  18.736  1.00  0.00     0.127 C 
HETATM    5  C6  UNL     1       4.454   8.223  20.075  1.00  0.00     0.041 C 
HETATM    6  C7  UNL     1       5.903   7.785  20.250  1.00  0.00     0.043 C 
HETATM    7  C8  UNL     1       6.868   8.940  20.129  1.00  0.00     0.107 C 
HETATM    8  C14 UNL     1       6.181  10.266  19.999  1.00  0.00     0.047 C 
HETATM    9  C15 UNL     1       6.928  11.214  19.009  1.00  0.00     0.146 C 
HETATM   10  C18 UNL     1       5.953  10.890  17.946  1.00  0.00     0.045 C 
HETATM   11  C23 UNL     1       5.060  10.305  19.040  1.00  0.00     0.033 C 
ENDROOT
BRANCH   7  12
HETATM   12  N1  UNL     1       7.678   8.951  21.320  1.00  0.00    -0.303 N 
HETATM   13  C9  UNL     1       7.139   8.859  22.549  1.00  0.00     0.108 A 
HETATM   14  C10 UNL     1       7.945   8.871  23.682  1.00  0.00     0.022 A 
HETATM   15  C11 UNL     1       7.324   8.768  25.034  1.00  0.00     0.056 C 
HETATM   16  C12 UNL     1       9.319   8.980  23.549  1.00  0.00     0.256 A 
HETATM   17  O3  UNL     1      10.060   8.993  24.569  1.00  0.00    -0.267 OA
HETATM   18  N2  UNL     1       9.820   9.071  22.291  1.00  0.00    -0.275 N 
HETATM   19  C13 UNL     1       9.008   9.055  21.211  1.00  0.00     0.329 A 
ATOM     20  H2  UNL     1      10.828   9.152  22.158  1.00  0.00     0.173 HD
HETATM   21  O4  UNL     1       9.521   9.142  20.068  1.00  0.00    -0.246 OA
ENDBRANCH   7  12
BRANCH   1  22
HETATM   22  O1  UNL     1       7.325   6.129  19.275  1.00  0.00    -0.384 OA
BRANCH  22  23
HETATM   23  C2  UNL     1       7.668   5.295  18.245  1.00  0.00     0.163 C 
HETATM   24  C1  UNL     1       8.757   4.327  18.530  1.00  0.00     0.033 C 
ENDBRANCH  22  23
ENDBRANCH   1  22
BRANCH   9  25
HETATM   25  O5  UNL     1       6.962  12.495  19.555  1.00  0.00    -0.315 OA
BRANCH  25  26
HETATM   26  C16 UNL     1       8.136  13.052  20.067  1.00  0.00     0.255 C 
HETATM   27  C17 UNL     1       8.160  14.361  20.753  1.00  0.00     0.126 C 
HETATM   28  O6  UNL     1       9.195  12.390  19.922  1.00  0.00    -0.266 OA
ENDBRANCH  25  26
ENDBRANCH   9  25
BRANCH  10  29
HETATM   29  C19 UNL     1       5.294  11.950  17.167  1.00  0.00    -0.019 C 
HETATM   30  C20 UNL     1       5.544  12.339  15.956  1.00  0.00    -0.003 C 
BRANCH  30  31
HETATM   31  C21 UNL     1       4.738  13.436  15.388  1.00  0.00     0.007 C 
HETATM   32  C22 UNL     1       4.499  14.490  16.134  1.00  0.00     0.056 C 
HETATM   33 BR1  UNL     1       3.461  15.930  15.436  1.00  0.00    -0.064 Br
ENDBRANCH  30  31
ENDBRANCH  10  29
TORSDOF 7
ENDMDL
MODEL 4
REMARK VINA RESULT: -6.994561939      2.736      5.377
REMARK  7 active torsions:
REMARK  status: ('A' for Active; 'I' for Inactive)
REMARK    1  A    between atoms: C2_2  and  O1_3 
REMARK    2  A    between atoms: O1_3  and  C3_4 
REMARK    3  A    between atoms: C8_10  and  N1_11 
REMARK    4  A    between atoms: C15_22  and  O5_23 
REMARK    5  A    between atoms: O5_23  and  C16_24 
REMARK    6  A    between atoms: C18_27  and  C19_28 
REMARK    7  A    between atoms: C20_29  and  C21_30 
ROOT
HETATM    1  C3  UNL     1       5.936   8.855  24.511  1.00  0.00     0.151 C 
HETATM    2  C4  UNL     1       5.862   7.346  24.576  1.00  0.00     0.200 C 
HETATM    3  O2  UNL     1       4.750   6.772  24.076  1.00  0.00    -0.383 OA
HETATM    4  C5  UNL     1       4.076   7.319  23.048  1.00  0.00     0.127 C 
HETATM    5  C6  UNL     1       4.047   8.854  23.036  1.00  0.00     0.041 C 
HETATM    6  C7  UNL     1       5.514   9.260  23.111  1.00  0.00     0.043 C 
HETATM    7  C8  UNL     1       6.345   8.604  22.035  1.00  0.00     0.107 C 
HETATM    8  C14 UNL     1       5.525   7.813  21.062  1.00  0.00     0.047 C 
HETATM    9  C15 UNL     1       6.247   6.501  20.622  1.00  0.00     0.146 C 
HETATM   10  C18 UNL     1       5.423   5.717  21.566  1.00  0.00     0.045 C 
HETATM   11  C23 UNL     1       4.503   6.934  21.665  1.00  0.00     0.033 C 
ENDROOT
BRANCH   7  12
HETATM   12  N1  UNL     1       7.031   9.651  21.322  1.00  0.00    -0.303 N 
HETATM   13  C9  UNL     1       6.372  10.549  20.568  1.00  0.00     0.108 A 
HETATM   14  C10 UNL     1       7.060  11.550  19.890  1.00  0.00     0.022 A 
HETATM   15  C11 UNL     1       6.307  12.533  19.060  1.00  0.00     0.056 C 
HETATM   16  C12 UNL     1       8.439  11.627  19.989  1.00  0.00     0.256 A 
HETATM   17  O3  UNL     1       9.073  12.530  19.379  1.00  0.00    -0.267 OA
HETATM   18  N2  UNL     1       9.062  10.701  20.761  1.00  0.00    -0.275 N 
HETATM   19  C13 UNL     1       8.363   9.741  21.407  1.00  0.00     0.329 A 
ATOM     20  H2  UNL     1      10.077  10.730  20.855  1.00  0.00     0.173 HD
HETATM   21  O4  UNL     1       8.988   8.908  22.108  1.00  0.00    -0.246 OA
ENDBRANCH   7  12
BRANCH   1  22
HETATM   22  O1  UNL     1       7.205   9.277  24.801  1.00  0.00    -0.384 OA
BRANCH  22  23
HETATM   23  C2  UNL     1       8.030   8.346  25.372  1.00  0.00     0.163 C 
HETATM   24  C1  UNL     1       9.470   8.705  25.432  1.00  0.00     0.033 C 
ENDBRANCH  22  23
ENDBRANCH   1  22
BRANCH   9  25
HETATM   25  O5  UNL     1       6.080   6.336  19.249  1.00  0.00    -0.315 OA
BRANCH  25  26
HETATM   26  C16 UNL     1       7.093   5.823  18.435  1.00  0.00     0.255 C 
HETATM   27  C17 UNL     1       8.189   4.985  18.965  1.00  0.00     0.126 C 
HETATM   28  O6  UNL     1       7.041   6.104  17.211  1.00  0.00    -0.266 OA
ENDBRANCH  25  26
ENDBRANCH   9  25
BRANCH  10  29
HETATM   29  C19 UNL     1       4.723   4.497  21.135  1.00  0.00    -0.019 C 
HETATM   30  C20 UNL     1       4.867   3.284  21.569  1.00  0.00    -0.003 C 
BRANCH  30  31
HETATM   31  C21 UNL     1       4.043   2.218  20.971  1.00  0.00     0.007 C 
HETATM   32  C22 UNL     1       3.180   1.589  21.734  1.00  0.00     0.056 C 
HETATM   33 BR1  UNL     1       2.095   0.204  20.998  1.00  0.00    -0.064 Br
ENDBRANCH  30  31
ENDBRANCH  10  29
TORSDOF 7
ENDMDL
MODEL 5
REMARK VINA RESULT: -6.959685297      2.601      4.129
REMARK  7 active torsions:
REMARK  status: ('A' for Active; 'I' for Inactive)
REMARK    1  A    between atoms: C2_2  and  O1_3 
REMARK    2  A    between atoms: O1_3  and  C3_4 
REMARK    3  A    between atoms: C8_10  and  N1_11 
REMARK    4  A    between atoms: C15_22  and  O5_23 
REMARK    5  A    between atoms: O5_23  and  C16_24 
REMARK    6  A    between atoms: C18_27  and  C19_28 
REMARK    7  A    between atoms: C20_29  and  C21_30 
ROOT
HETATM    1  C3  UNL     1       5.577   9.818  20.594  1.00  0.00     0.151 C 
HETATM    2  C4  UNL     1       4.843   8.851  19.692  1.00  0.00     0.200 C 
HETATM    3  O2  UNL     1       5.526   8.375  18.632  1.00  0.00    -0.383 OA
HETATM    4  C5  UNL     1       6.858   8.195  18.675  1.00  0.00     0.127 C 
HETATM    5  C6  UNL     1       7.627   9.240  19.496  1.00  0.00     0.041 C 
HETATM    6  C7  UNL     1       6.947   9.225  20.860  1.00  0.00     0.043 C 
HETATM    7  C8  UNL     1       6.882   7.837  21.450  1.00  0.00     0.107 C 
HETATM    8  C14 UNL     1       7.611   6.817  20.630  1.00  0.00     0.047 C 
HETATM    9  C15 UNL     1       6.862   5.447  20.603  1.00  0.00     0.146 C 
HETATM   10  C18 UNL     1       6.315   5.760  19.266  1.00  0.00     0.045 C 
HETATM   11  C23 UNL     1       7.356   6.874  19.177  1.00  0.00     0.033 C 
ENDROOT
BRANCH   7  12
HETATM   12  N1  UNL     1       7.480   7.897  22.758  1.00  0.00    -0.303 N 
HETATM   13  C9  UNL     1       8.712   8.397  22.956  1.00  0.00     0.108 A 
HETATM   14  C10 UNL     1       9.266   8.443  24.231  1.00  0.00     0.022 A 
HETATM   15  C11 UNL     1      10.635   9.002  24.425  1.00  0.00     0.056 C 
HETATM   16  C12 UNL     1       8.544   7.967  25.313  1.00  0.00     0.256 A 
HETATM   17  O3  UNL     1       9.036   8.003  26.473  1.00  0.00    -0.267 OA
HETATM   18  N2  UNL     1       7.305   7.471  25.068  1.00  0.00    -0.275 N 
HETATM   19  C13 UNL     1       6.797   7.442  23.816  1.00  0.00     0.329 A 
ATOM     20  H2  UNL     1       6.747   7.114  25.843  1.00  0.00     0.173 HD
HETATM   21  O4  UNL     1       5.646   6.973  23.642  1.00  0.00    -0.246 OA
ENDBRANCH   7  12
BRANCH   1  22
HETATM   22  O1  UNL     1       4.873  10.009  21.753  1.00  0.00    -0.384 OA
BRANCH  22  23
HETATM   23  C2  UNL     1       3.645   9.407  21.813  1.00  0.00     0.163 C 
HETATM   24  C1  UNL     1       2.965   9.452  23.132  1.00  0.00     0.033 C 
ENDBRANCH  22  23
ENDBRANCH   1  22
BRANCH   9  25
HETATM   25  O5  UNL     1       7.795   4.423  20.752  1.00  0.00    -0.315 OA
BRANCH  25  26
HETATM   26  C16 UNL     1       7.425   3.076  20.746  1.00  0.00     0.255 C 
HETATM   27  C17 UNL     1       8.070   2.080  19.865  1.00  0.00     0.126 C 
HETATM   28  O6  UNL     1       6.505   2.731  21.531  1.00  0.00    -0.266 OA
ENDBRANCH  25  26
ENDBRANCH   9  25
BRANCH  10  29
HETATM   29  C19 UNL     1       6.405   4.793  18.161  1.00  0.00    -0.019 C 
HETATM   30  C20 UNL     1       5.451   4.141  17.574  1.00  0.00    -0.003 C 
BRANCH  30  31
HETATM   31  C21 UNL     1       5.797   3.217  16.479  1.00  0.00     0.007 C 
HETATM   32  C22 UNL     1       5.852   1.931  16.738  1.00  0.00     0.056 C 
HETATM   33 BR1  UNL     1       6.297   0.702  15.348  1.00  0.00    -0.064 Br
ENDBRANCH  30  31
ENDBRANCH  10  29
TORSDOF 7
ENDMDL
