MODEL 1
REMARK VINA RESULT: -10.151801329      0.000      0.000
REMARK  8 active torsions:
REMARK  status: ('A' for Active; 'I' for Inactive)
REMARK    1  A    between atoms: C3_6  and  S1_7 
REMARK    2  A    between atoms: S1_7  and  O1_8 
REMARK    3  A    between atoms: S1_7  and  N3_12 
REMARK    4  A    between atoms: C7_16  and  C8_17 
REMARK       I    between atoms: C8_17  and  N4_19 
REMARK    5  A    between atoms: N4_19  and  C9_21 
REMARK    6  A    between atoms: C9_21  and  C12_24 
REMARK    7  A    between atoms: C12_24  and  O4_26 
REMARK    8  A    between atoms: O4_26  and  C13_27 
ROOT
HETATM    1  C8  UNL     1       4.318   5.341  22.242  1.00  0.00     0.224 C 
HETATM    2  O2  UNL     1       4.021   4.662  23.278  1.00  0.00    -0.273 OA
HETATM    3  N4  UNL     1       4.495   4.626  21.011  1.00  0.00    -0.343 N 
ATOM      4  H4  UNL     1       4.736   5.164  20.179  1.00  0.00     0.163 HD
ENDROOT
BRANCH   1   5
HETATM    5  C7  UNL     1       4.472   6.818  22.317  1.00  0.00     0.092 C 
HETATM    6  C6  UNL     1       4.565   7.189  23.783  1.00  0.00     0.016 C 
HETATM    7  C5  UNL     1       4.663   8.683  23.927  1.00  0.00     0.016 C 
HETATM    8  C4  UNL     1       5.554   9.199  22.825  1.00  0.00     0.107 C 
HETATM    9  N3  UNL     1       6.477   8.137  22.478  1.00  0.00    -0.212 NA
HETATM   10  C23 UNL     1       5.723   7.208  21.615  1.00  0.00     0.121 C 
BRANCH   9  11
HETATM   11  S1  UNL     1       8.082   8.670  21.888  1.00  0.00     0.180 SA
HETATM   12  F1  UNL     1       9.497   8.847  21.157  1.00  0.00    -0.122 F 
HETATM   13  F2  UNL     1       8.107   6.911  21.105  1.00  0.00    -0.122 F 
BRANCH  11  14
HETATM   14  C3  UNL     1       8.879   8.502  23.744  1.00  0.00     0.151 A 
HETATM   15  N2  UNL     1       8.325   7.893  24.758  1.00  0.00    -0.341 N 
HETATM   16  C2  UNL     1       9.123   7.988  25.831  1.00  0.00     0.183 A 
ATOM     17  H2  UNL     1       7.423   7.417  24.736  1.00  0.00     0.167 HD
HETATM   18  N1  UNL     1      10.194   8.675  25.459  1.00  0.00    -0.354 N 
HETATM   19  C1  UNL     1      11.338   9.041  26.250  1.00  0.00     0.156 C 
HETATM   20  C24 UNL     1      10.065   9.014  24.139  1.00  0.00     0.134 A 
ENDBRANCH  11  14
BRANCH  11  21
HETATM   21  O1  UNL     1       7.465  10.033  21.339  1.00  0.00    -0.296 OA
ATOM     22  H1  UNL     1       6.560  10.109  21.060  1.00  0.00     0.231 HD
ENDBRANCH  11  21
ENDBRANCH   9  11
ENDBRANCH   1   5
BRANCH   3  23
HETATM   23  C9  UNL     1       4.355   3.211  20.873  1.00  0.00     0.113 C 
HETATM   24  C10 UNL     1       5.317   2.561  21.860  1.00  0.00     0.049 C 
HETATM   25  C11 UNL     1       2.967   2.695  21.177  1.00  0.00     0.049 C 
BRANCH  23  26
HETATM   26  C12 UNL     1       4.682   2.735  19.480  1.00  0.00     0.287 C 
HETATM   27  O3  UNL     1       3.846   2.025  18.885  1.00  0.00    -0.262 OA
BRANCH  26  28
HETATM   28  O4  UNL     1       5.862   3.054  18.843  1.00  0.00    -0.313 OA
BRANCH  28  29
HETATM   29  C13 UNL     1       6.828   2.100  18.451  1.00  0.00     0.140 C 
HETATM   30  C14 UNL     1       7.898   2.095  19.524  1.00  0.00     0.016 C 
HETATM   31  C15 UNL     1       8.431   3.518  19.681  1.00  0.00     0.012 C 
HETATM   32  C19 UNL     1       9.082   1.230  19.144  1.00  0.00     0.012 C 
HETATM   33  C16 UNL     1       9.013   4.006  18.376  1.00  0.00    -0.013 C 
HETATM   34  C17 UNL     1      10.171   3.120  18.011  1.00  0.00     0.009 C 
HETATM   35  C22 UNL     1       7.986   3.961  17.287  1.00  0.00     0.012 C 
HETATM   36  C18 UNL     1       9.662   1.720  17.829  1.00  0.00    -0.013 C 
HETATM   37  C20 UNL     1       8.575   1.637  16.793  1.00  0.00     0.012 C 
HETATM   38  C21 UNL     1       7.437   2.543  17.161  1.00  0.00     0.016 C 
ENDBRANCH  28  29
ENDBRANCH  26  28
ENDBRANCH  23  26
ENDBRANCH   3  23
TORSDOF 8
ENDMDL
MODEL 2
REMARK VINA RESULT: -9.785627223      1.108      1.520
REMARK  8 active torsions:
REMARK  status: ('A' for Active; 'I' for Inactive)
REMARK    1  A    between atoms: C3_6  and  S1_7 
REMARK    2  A    between atoms: S1_7  and  O1_8 
REMARK    3  A    between atoms: S1_7  and  N3_12 
REMARK    4  A    between atoms: C7_16  and  C8_17 
REMARK       I    between atoms: C8_17  and  N4_19 
REMARK    5  A    between atoms: N4_19  and  C9_21 
REMARK    6  A    between atoms: C9_21  and  C12_24 
REMARK    7  A    between atoms: C12_24  and  O4_26 
REMARK    8  A    between atoms: O4_26  and  C13_27 
ROOT
HETATM    1  C8  UNL     1       4.216   5.911  22.020  1.00  0.00     0.224 C 
HETATM    2  O2  UNL     1       3.029   5.478  21.859  1.00  0.00    -0.273 OA
HETATM    3  N4  UNL     1       5.291   4.982  21.824  1.00  0.00    -0.343 N 
ATOM      4  H4  UNL     1       6.243   5.322  21.955  1.00  0.00     0.163 HD
ENDROOT
BRANCH   1   5
HETATM    5  C7  UNL     1       4.465   7.327  22.396  1.00  0.00     0.092 C 
HETATM    6  C6  UNL     1       4.654   7.371  23.898  1.00  0.00     0.016 C 
HETATM    7  C5  UNL     1       4.852   8.793  24.348  1.00  0.00     0.016 C 
HETATM    8  C4  UNL     1       5.717   9.487  23.326  1.00  0.00     0.107 C 
HETATM    9  N3  UNL     1       6.554   8.479  22.707  1.00  0.00    -0.212 NA
HETATM   10  C23 UNL     1       5.701   7.796  21.716  1.00  0.00     0.121 C 
BRANCH   9  11
HETATM   11  S1  UNL     1       8.157   9.046  22.144  1.00  0.00     0.180 SA
HETATM   12  F1  UNL     1       9.560   9.278  21.405  1.00  0.00    -0.122 F 
HETATM   13  F2  UNL     1       8.127   7.388  21.164  1.00  0.00    -0.122 F 
BRANCH  11  14
HETATM   14  C3  UNL     1       8.989   8.650  23.949  1.00  0.00     0.151 A 
HETATM   15  N2  UNL     1       8.420   7.989  24.921  1.00  0.00    -0.341 N 
HETATM   16  C2  UNL     1       9.251   7.927  25.972  1.00  0.00     0.183 A 
ATOM     17  H2  UNL     1       7.485   7.581  24.886  1.00  0.00     0.167 HD
HETATM   18  N1  UNL     1      10.359   8.569  25.628  1.00  0.00    -0.354 N 
HETATM   19  C1  UNL     1      11.547   8.779  26.410  1.00  0.00     0.156 C 
HETATM   20  C24 UNL     1      10.219   9.038  24.349  1.00  0.00     0.134 A 
ENDBRANCH  11  14
BRANCH  11  21
HETATM   21  O1  UNL     1       7.559  10.474  21.769  1.00  0.00    -0.296 OA
ATOM     22  H1  UNL     1       6.894  10.591  21.101  1.00  0.00     0.231 HD
ENDBRANCH  11  21
ENDBRANCH   9  11
ENDBRANCH   1   5
BRANCH   3  23
HETATM   23  C9  UNL     1       5.117   3.613  21.457  1.00  0.00     0.113 C 
HETATM   24  C10 UNL     1       4.453   2.908  22.633  1.00  0.00     0.049 C 
HETATM   25  C11 UNL     1       4.240   3.405  20.243  1.00  0.00     0.049 C 
BRANCH  23  26
HETATM   26  C12 UNL     1       6.426   2.929  21.149  1.00  0.00     0.287 C 
HETATM   27  O3  UNL     1       6.723   1.902  21.792  1.00  0.00    -0.262 OA
BRANCH  26  28
HETATM   28  O4  UNL     1       7.299   3.393  20.188  1.00  0.00    -0.313 OA
BRANCH  28  29
HETATM   29  C13 UNL     1       7.065   3.294  18.799  1.00  0.00     0.140 C 
HETATM   30  C14 UNL     1       7.443   1.884  18.391  1.00  0.00     0.016 C 
HETATM   31  C15 UNL     1       8.887   1.629  18.817  1.00  0.00     0.012 C 
HETATM   32  C19 UNL     1       7.395   1.693  16.889  1.00  0.00     0.012 C 
HETATM   33  C16 UNL     1       9.812   2.620  18.154  1.00  0.00    -0.013 C 
HETATM   34  C17 UNL     1       9.731   2.424  16.666  1.00  0.00     0.009 C 
HETATM   35  C22 UNL     1       9.419   4.024  18.496  1.00  0.00     0.012 C 
HETATM   36  C18 UNL     1       8.322   2.696  16.225  1.00  0.00    -0.013 C 
HETATM   37  C20 UNL     1       7.857   4.072  16.612  1.00  0.00     0.012 C 
HETATM   38  C21 UNL     1       7.965   4.258  18.096  1.00  0.00     0.016 C 
ENDBRANCH  28  29
ENDBRANCH  26  28
ENDBRANCH  23  26
ENDBRANCH   3  23
TORSDOF 8
ENDMDL
MODEL 3
REMARK VINA RESULT: -9.783114143      1.005      1.254
REMARK  8 active torsions:
REMARK  status: ('A' for Active; 'I' for Inactive)
REMARK    1  A    between atoms: C3_6  and  S1_7 
REMARK    2  A    between atoms: S1_7  and  O1_8 
REMARK    3  A    between atoms: S1_7  and  N3_12 
REMARK    4  A    between atoms: C7_16  and  C8_17 
REMARK       I    between atoms: C8_17  and  N4_19 
REMARK    5  A    between atoms: N4_19  and  C9_21 
REMARK    6  A    between atoms: C9_21  and  C12_24 
REMARK    7  A    between atoms: C12_24  and  O4_26 
REMARK    8  A    between atoms: O4_26  and  C13_27 
ROOT
HETATM    1  C8  UNL     1       4.168   5.753  21.864  1.00  0.00     0.224 C 
HETATM    2  O2  UNL     1       2.986   5.321  21.666  1.00  0.00    -0.273 OA
HETATM    3  N4  UNL     1       5.249   4.826  21.693  1.00  0.00    -0.343 N 
ATOM      4  H4  UNL     1       6.197   5.165  21.854  1.00  0.00     0.163 HD
ENDROOT
BRANCH   1   5
HETATM    5  C7  UNL     1       4.405   7.167  22.258  1.00  0.00     0.092 C 
HETATM    6  C6  UNL     1       4.605   7.192  23.759  1.00  0.00     0.016 C 
HETATM    7  C5  UNL     1       4.792   8.609  24.227  1.00  0.00     0.016 C 
HETATM    8  C4  UNL     1       5.642   9.326  23.209  1.00  0.00     0.107 C 
HETATM    9  N3  UNL     1       6.485   8.336  22.570  1.00  0.00    -0.212 NA
HETATM   10  C23 UNL     1       5.632   7.657  21.576  1.00  0.00     0.121 C 
BRANCH   9  11
HETATM   11  S1  UNL     1       8.078   8.926  22.003  1.00  0.00     0.180 SA
HETATM   12  F1  UNL     1       9.481   9.172  21.269  1.00  0.00    -0.122 F 
HETATM   13  F2  UNL     1       8.097   7.241  21.072  1.00  0.00    -0.122 F 
BRANCH  11  14
HETATM   14  C3  UNL     1       8.904   8.603  23.825  1.00  0.00     0.151 A 
HETATM   15  N2  UNL     1       8.367   7.909  24.793  1.00  0.00    -0.341 N 
HETATM   16  C2  UNL     1       9.181   7.915  25.858  1.00  0.00     0.183 A 
ATOM     17  H2  UNL     1       7.465   7.436  24.745  1.00  0.00     0.167 HD
HETATM   18  N1  UNL     1      10.247   8.632  25.528  1.00  0.00    -0.354 N 
HETATM   19  C1  UNL     1      11.403   8.932  26.329  1.00  0.00     0.156 C 
HETATM   20  C24 UNL     1      10.096   9.081  24.243  1.00  0.00     0.134 A 
ENDBRANCH  11  14
BRANCH  11  21
HETATM   21  O1  UNL     1       7.448  10.327  21.583  1.00  0.00    -0.296 OA
ATOM     22  H1  UNL     1       7.444  10.638  20.686  1.00  0.00     0.231 HD
ENDBRANCH  11  21
ENDBRANCH   9  11
ENDBRANCH   1   5
BRANCH   3  23
HETATM   23  C9  UNL     1       5.086   3.459  21.311  1.00  0.00     0.113 C 
HETATM   24  C10 UNL     1       4.381   2.747  22.459  1.00  0.00     0.049 C 
HETATM   25  C11 UNL     1       4.250   3.261  20.066  1.00  0.00     0.049 C 
BRANCH  23  26
HETATM   26  C12 UNL     1       6.403   2.777  21.043  1.00  0.00     0.287 C 
HETATM   27  O3  UNL     1       6.850   1.993  21.905  1.00  0.00    -0.262 OA
BRANCH  26  28
HETATM   28  O4  UNL     1       7.128   2.983  19.888  1.00  0.00    -0.313 OA
BRANCH  28  29
HETATM   29  C13 UNL     1       7.578   1.944  19.044  1.00  0.00     0.140 C 
HETATM   30  C14 UNL     1       9.088   2.059  18.977  1.00  0.00     0.016 C 
HETATM   31  C15 UNL     1       9.443   3.468  18.503  1.00  0.00     0.012 C 
HETATM   32  C19 UNL     1       9.688   1.101  17.969  1.00  0.00     0.012 C 
HETATM   33  C16 UNL     1       8.846   3.728  17.141  1.00  0.00    -0.013 C 
HETATM   34  C17 UNL     1       9.442   2.753  16.166  1.00  0.00     0.009 C 
HETATM   35  C22 UNL     1       7.359   3.560  17.174  1.00  0.00     0.012 C 
HETATM   36  C18 UNL     1       9.081   1.362  16.602  1.00  0.00    -0.013 C 
HETATM   37  C20 UNL     1       7.595   1.166  16.719  1.00  0.00     0.012 C 
HETATM   38  C21 UNL     1       7.014   2.161  17.678  1.00  0.00     0.016 C 
ENDBRANCH  28  29
ENDBRANCH  26  28
ENDBRANCH  23  26
ENDBRANCH   3  23
TORSDOF 8
ENDMDL
MODEL 4
REMARK VINA RESULT: -9.404402509      2.321      3.225
REMARK  8 active torsions:
REMARK  status: ('A' for Active; 'I' for Inactive)
REMARK    1  A    between atoms: C3_6  and  S1_7 
REMARK    2  A    between atoms: S1_7  and  O1_8 
REMARK    3  A    between atoms: S1_7  and  N3_12 
REMARK    4  A    between atoms: C7_16  and  C8_17 
REMARK       I    between atoms: C8_17  and  N4_19 
REMARK    5  A    between atoms: N4_19  and  C9_21 
REMARK    6  A    between atoms: C9_21  and  C12_24 
REMARK    7  A    between atoms: C12_24  and  O4_26 
REMARK    8  A    between atoms: O4_26  and  C13_27 
ROOT
HETATM    1  C8  UNL     1       6.097   6.200  19.626  1.00  0.00     0.224 C 
HETATM    2  O2  UNL     1       5.204   6.351  18.730  1.00  0.00    -0.273 OA
HETATM    3  N4  UNL     1       5.957   5.085  20.517  1.00  0.00    -0.343 N 
ATOM      4  H4  UNL     1       6.667   4.960  21.239  1.00  0.00     0.163 HD
ENDROOT
BRANCH   1   5
HETATM    5  C7  UNL     1       7.236   7.149  19.733  1.00  0.00     0.092 C 
HETATM    6  C6  UNL     1       6.805   8.449  19.088  1.00  0.00     0.016 C 
HETATM    7  C5  UNL     1       7.941   9.435  19.113  1.00  0.00     0.016 C 
HETATM    8  C4  UNL     1       8.647   9.295  20.438  1.00  0.00     0.107 C 
HETATM    9  N3  UNL     1       7.675   8.824  21.403  1.00  0.00    -0.212 NA
HETATM   10  C23 UNL     1       7.542   7.373  21.171  1.00  0.00     0.121 C 
BRANCH   9  11
HETATM   11  S1  UNL     1       7.943   9.354  23.093  1.00  0.00     0.180 SA
HETATM   12  F1  UNL     1       8.383   9.526  24.624  1.00  0.00    -0.122 F 
HETATM   13  F2  UNL     1       8.695   7.590  23.268  1.00  0.00    -0.122 F 
BRANCH  11  14
HETATM   14  C3  UNL     1       5.966   9.197  23.511  1.00  0.00     0.151 A 
HETATM   15  N2  UNL     1       4.994   9.694  22.793  1.00  0.00    -0.341 N 
HETATM   16  C2  UNL     1       3.817   9.412  23.370  1.00  0.00     0.183 A 
ATOM     17  H2  UNL     1       5.113  10.218  21.926  1.00  0.00     0.167 HD
HETATM   18  N1  UNL     1       4.081   8.722  24.471  1.00  0.00    -0.354 N 
HETATM   19  C1  UNL     1       3.154   8.188  25.433  1.00  0.00     0.156 C 
HETATM   20  C24 UNL     1       5.437   8.571  24.584  1.00  0.00     0.134 A 
ENDBRANCH  11  14
BRANCH  11  21
HETATM   21  O1  UNL     1       8.610  10.713  22.597  1.00  0.00    -0.296 OA
ATOM     22  H1  UNL     1       9.153  10.762  21.820  1.00  0.00     0.231 HD
ENDBRANCH  11  21
ENDBRANCH   9  11
ENDBRANCH   1   5
BRANCH   3  23
HETATM   23  C9  UNL     1       4.890   4.137  20.461  1.00  0.00     0.113 C 
HETATM   24  C10 UNL     1       5.009   3.245  21.691  1.00  0.00     0.049 C 
HETATM   25  C11 UNL     1       3.511   4.757  20.474  1.00  0.00     0.049 C 
BRANCH  23  26
HETATM   26  C12 UNL     1       4.950   3.277  19.223  1.00  0.00     0.287 C 
HETATM   27  O3  UNL     1       3.959   2.572  18.943  1.00  0.00    -0.262 OA
BRANCH  26  28
HETATM   28  O4  UNL     1       6.051   3.243  18.393  1.00  0.00    -0.313 OA
BRANCH  28  29
HETATM   29  C13 UNL     1       6.920   2.135  18.284  1.00  0.00     0.140 C 
HETATM   30  C14 UNL     1       7.915   2.246  19.423  1.00  0.00     0.016 C 
HETATM   31  C15 UNL     1       8.600   3.608  19.334  1.00  0.00     0.012 C 
HETATM   32  C19 UNL     1       9.010   1.204  19.326  1.00  0.00     0.012 C 
HETATM   33  C16 UNL     1       9.314   3.750  18.012  1.00  0.00    -0.013 C 
HETATM   34  C17 UNL     1      10.380   2.695  17.932  1.00  0.00     0.009 C 
HETATM   35  C22 UNL     1       8.358   3.584  16.872  1.00  0.00     0.012 C 
HETATM   36  C18 UNL     1       9.723   1.347  17.993  1.00  0.00    -0.013 C 
HETATM   37  C20 UNL     1       8.700   1.160  16.907  1.00  0.00     0.012 C 
HETATM   38  C21 UNL     1       7.656   2.233  16.987  1.00  0.00     0.016 C 
ENDBRANCH  28  29
ENDBRANCH  26  28
ENDBRANCH  23  26
ENDBRANCH   3  23
TORSDOF 8
ENDMDL
MODEL 5
REMARK VINA RESULT: -9.253882435      1.718      2.435
REMARK  8 active torsions:
REMARK  status: ('A' for Active; 'I' for Inactive)
REMARK    1  A    between atoms: C3_6  and  S1_7 
REMARK    2  A    between atoms: S1_7  and  O1_8 
REMARK    3  A    between atoms: S1_7  and  N3_12 
REMARK    4  A    between atoms: C7_16  and  C8_17 
REMARK       I    between atoms: C8_17  and  N4_19 
REMARK    5  A    between atoms: N4_19  and  C9_21 
REMARK    6  A    between atoms: C9_21  and  C12_24 
REMARK    7  A    between atoms: C12_24  and  O4_26 
REMARK    8  A    between atoms: O4_26  and  C13_27 
ROOT
HETATM    1  C8  UNL     1       4.657   7.126  21.505  1.00  0.00     0.224 C 
HETATM    2  O2  UNL     1       3.572   6.471  21.634  1.00  0.00    -0.273 OA
HETATM    3  N4  UNL     1       5.448   6.872  20.337  1.00  0.00    -0.343 N 
ATOM      4  H4  UNL     1       6.320   7.391  20.230  1.00  0.00     0.163 HD
ENDROOT
BRANCH   1   5
HETATM    5  C7  UNL     1       5.074   8.115  22.533  1.00  0.00     0.092 C 
HETATM    6  C6  UNL     1       5.146   7.387  23.860  1.00  0.00     0.016 C 
HETATM    7  C5  UNL     1       5.508   8.353  24.955  1.00  0.00     0.016 C 
HETATM    8  C4  UNL     1       6.543   9.305  24.410  1.00  0.00     0.107 C 
HETATM    9  N3  UNL     1       7.274   8.607  23.373  1.00  0.00    -0.212 NA
HETATM   10  C23 UNL     1       6.416   8.646  22.174  1.00  0.00     0.121 C 
BRANCH   9  11
HETATM   11  S1  UNL     1       8.983   9.104  23.163  1.00  0.00     0.180 SA
HETATM   12  F1  UNL     1      10.498   9.323  22.691  1.00  0.00    -0.122 F 
HETATM   13  F2  UNL     1       8.993   7.655  21.895  1.00  0.00    -0.122 F 
BRANCH  11  14
HETATM   14  C3  UNL     1       9.486   8.318  24.962  1.00  0.00     0.151 A 
HETATM   15  N2  UNL     1       8.683   7.670  25.762  1.00  0.00    -0.341 N 
HETATM   16  C2  UNL     1       9.346   7.304  26.869  1.00  0.00     0.183 A 
ATOM     17  H2  UNL     1       7.700   7.471  25.572  1.00  0.00     0.167 HD
HETATM   18  N1  UNL     1      10.590   7.742  26.738  1.00  0.00    -0.354 N 
HETATM   19  C1  UNL     1      11.687   7.601  27.657  1.00  0.00     0.156 C 
HETATM   20  C24 UNL     1      10.707   8.389  25.536  1.00  0.00     0.134 A 
ENDBRANCH  11  14
BRANCH  11  21
HETATM   21  O1  UNL     1       8.553  10.627  22.982  1.00  0.00    -0.296 OA
ATOM     22  H1  UNL     1       8.158  10.956  22.184  1.00  0.00     0.231 HD
ENDBRANCH  11  21
ENDBRANCH   9  11
ENDBRANCH   1   5
BRANCH   3  23
HETATM   23  C9  UNL     1       5.098   5.940  19.313  1.00  0.00     0.113 C 
HETATM   24  C10 UNL     1       4.836   4.599  19.988  1.00  0.00     0.049 C 
HETATM   25  C11 UNL     1       3.856   6.314  18.535  1.00  0.00     0.049 C 
BRANCH  23  26
HETATM   26  C12 UNL     1       6.195   5.770  18.291  1.00  0.00     0.287 C 
HETATM   27  O3  UNL     1       6.771   6.792  17.865  1.00  0.00    -0.262 OA
BRANCH  26  28
HETATM   28  O4  UNL     1       6.584   4.536  17.815  1.00  0.00    -0.313 OA
BRANCH  28  29
HETATM   29  C13 UNL     1       7.905   4.223  17.425  1.00  0.00     0.140 C 
HETATM   30  C14 UNL     1       7.855   2.862  16.762  1.00  0.00     0.016 C 
HETATM   31  C15 UNL     1       7.224   1.871  17.739  1.00  0.00     0.012 C 
HETATM   32  C19 UNL     1       9.237   2.332  16.442  1.00  0.00     0.012 C 
HETATM   33  C16 UNL     1       8.041   1.796  19.007  1.00  0.00    -0.013 C 
HETATM   34  C17 UNL     1       9.411   1.288  18.660  1.00  0.00     0.009 C 
HETATM   35  C22 UNL     1       8.153   3.144  19.647  1.00  0.00     0.012 C 
HETATM   36  C18 UNL     1      10.057   2.262  17.718  1.00  0.00    -0.013 C 
HETATM   37  C20 UNL     1      10.127   3.651  18.291  1.00  0.00     0.012 C 
HETATM   38  C21 UNL     1       8.754   4.133  18.651  1.00  0.00     0.016 C 
ENDBRANCH  28  29
ENDBRANCH  26  28
ENDBRANCH  23  26
ENDBRANCH   3  23
TORSDOF 8
ENDMDL
