MODEL 1
REMARK VINA RESULT: -9.296772332      0.000      0.000
REMARK  8 active torsions:
REMARK  status: ('A' for Active; 'I' for Inactive)
REMARK    1  A    between atoms: C1_2  and  C2_3 
REMARK    2  A    between atoms: C1_2  and  O4_20 
REMARK    3  A    between atoms: C2_3  and  C3_4 
REMARK    4  A    between atoms: C7_8  and  O2_9 
REMARK    5  A    between atoms: O2_9  and  C8_10 
REMARK    6  A    between atoms: C8_10  and  C9_12 
REMARK    7  A    between atoms: O4_20  and  C14_21 
REMARK    8  A    between atoms: C21_30  and  N3_31 
ROOT
HETATM    1  C2  UNL     1       5.483   6.786  22.780  1.00  0.00     0.149 C 
ENDROOT
BRANCH   1   2
HETATM    2  C1  UNL     1       5.207   6.099  21.497  1.00  0.00     0.265 C 
HETATM    3  O1  UNL     1       4.181   6.473  20.832  1.00  0.00    -0.265 OA
BRANCH   2   4
HETATM    4  O4  UNL     1       5.962   5.098  20.961  1.00  0.00    -0.286 OA
BRANCH   4   5
HETATM    5  C14 UNL     1       5.831   4.557  19.654  1.00  0.00     0.311 C 
HETATM    6  O5  UNL     1       6.462   5.364  18.705  1.00  0.00    -0.312 OA
HETATM    7  C15 UNL     1       7.818   5.292  18.720  1.00  0.00     0.236 C 
HETATM    8  N2  UNL     1       8.376   3.963  18.686  1.00  0.00    -0.314 N 
HETATM    9  C16 UNL     1       9.622   3.721  18.220  1.00  0.00     0.098 A 
HETATM   10  C20 UNL     1       7.644   2.943  19.129  1.00  0.00     0.051 A 
HETATM   11  C17 UNL     1      10.172   2.478  18.180  1.00  0.00     0.018 A 
HETATM   12  C18 UNL     1       9.408   1.425  18.642  1.00  0.00     0.003 A 
HETATM   13  C19 UNL     1       8.146   1.649  19.116  1.00  0.00     0.028 A 
HETATM   14  C21 UNL     1       6.290   3.154  19.639  1.00  0.00     0.261 C 
BRANCH  14  15
HETATM   15  N3  UNL     1       6.256   2.599  21.001  1.00  0.00    -0.140 N 
HETATM   16  O6  UNL     1       7.266   2.465  21.708  1.00  0.00    -0.536 OA
HETATM   17  O7  UNL     1       5.019   2.224  21.475  1.00  0.00    -0.536 OA
ENDBRANCH  14  15
ENDBRANCH   4   5
ENDBRANCH   2   4
ENDBRANCH   1   2
BRANCH   1  18
HETATM   18  C3  UNL     1       6.533   7.807  22.729  1.00  0.00    -0.046 A 
HETATM   19  C4  UNL     1       6.188   9.055  22.211  1.00  0.00     0.008 A 
HETATM   20  C5  UNL     1       7.084  10.086  22.100  1.00  0.00     0.003 A 
HETATM   21  C6  UNL     1       8.373   9.906  22.508  1.00  0.00     0.037 A 
HETATM   22  C7  UNL     1       8.742   8.675  23.029  1.00  0.00     0.080 A 
HETATM   23  C13 UNL     1       7.843   7.643  23.139  1.00  0.00     0.045 A 
BRANCH  22  24
HETATM   24  O2  UNL     1      10.057   8.553  23.426  1.00  0.00    -0.275 OA
BRANCH  24  25
HETATM   25  C8  UNL     1      10.529   9.137  24.619  1.00  0.00     0.301 C 
HETATM   26  O3  UNL     1      10.983  10.300  24.559  1.00  0.00    -0.259 OA
BRANCH  25  27
HETATM   27  C9  UNL     1      10.472   8.378  25.856  1.00  0.00     0.073 A 
HETATM   28  C10 UNL     1       9.292   8.148  26.557  1.00  0.00     0.106 A 
HETATM   29  N1  UNL     1       9.608   7.443  27.647  1.00  0.00    -0.373 N 
HETATM   30  C11 UNL     1      10.936   7.207  27.685  1.00  0.00     0.107 A 
ATOM     31  H1  UNL     1       8.940   7.129  28.351  1.00  0.00     0.164 HD
HETATM   32  C12 UNL     1      11.512   7.782  26.573  1.00  0.00     0.043 A 
HETATM   33 BR1  UNL     1      13.308   7.833  26.000  1.00  0.00    -0.049 Br
ENDBRANCH  25  27
ENDBRANCH  24  25
ENDBRANCH  22  24
ENDBRANCH   1  18
TORSDOF 8
ENDMDL
MODEL 2
REMARK VINA RESULT: -9.255045386      1.660      2.352
REMARK  8 active torsions:
REMARK  status: ('A' for Active; 'I' for Inactive)
REMARK    1  A    between atoms: C1_2  and  C2_3 
REMARK    2  A    between atoms: C1_2  and  O4_20 
REMARK    3  A    between atoms: C2_3  and  C3_4 
REMARK    4  A    between atoms: C7_8  and  O2_9 
REMARK    5  A    between atoms: O2_9  and  C8_10 
REMARK    6  A    between atoms: C8_10  and  C9_12 
REMARK    7  A    between atoms: O4_20  and  C14_21 
REMARK    8  A    between atoms: C21_30  and  N3_31 
ROOT
HETATM    1  C2  UNL     1       7.779   9.717  19.342  1.00  0.00     0.149 C 
ENDROOT
BRANCH   1   2
HETATM    2  C1  UNL     1       7.130   8.620  18.588  1.00  0.00     0.265 C 
HETATM    3  O1  UNL     1       6.385   8.939  17.600  1.00  0.00    -0.265 OA
BRANCH   2   4
HETATM    4  O4  UNL     1       7.263   7.290  18.860  1.00  0.00    -0.286 OA
BRANCH   4   5
HETATM    5  C14 UNL     1       6.337   6.268  18.518  1.00  0.00     0.311 C 
HETATM    6  O5  UNL     1       6.690   5.643  17.321  1.00  0.00    -0.312 OA
HETATM    7  C15 UNL     1       7.752   4.803  17.418  1.00  0.00     0.236 C 
HETATM    8  N2  UNL     1       7.688   3.831  18.480  1.00  0.00    -0.314 N 
HETATM    9  C16 UNL     1       8.371   2.665  18.428  1.00  0.00     0.098 A 
HETATM   10  C20 UNL     1       6.936   4.089  19.549  1.00  0.00     0.051 A 
HETATM   11  C17 UNL     1       8.330   1.733  19.417  1.00  0.00     0.018 A 
HETATM   12  C18 UNL     1       7.549   2.009  20.522  1.00  0.00     0.003 A 
HETATM   13  C19 UNL     1       6.850   3.180  20.594  1.00  0.00     0.028 A 
HETATM   14  C21 UNL     1       6.175   5.334  19.651  1.00  0.00     0.261 C 
BRANCH  14  15
HETATM   15  N3  UNL     1       6.588   5.985  20.903  1.00  0.00    -0.140 N 
HETATM   16  O6  UNL     1       7.762   6.006  21.305  1.00  0.00    -0.536 OA
HETATM   17  O7  UNL     1       5.591   6.590  21.633  1.00  0.00    -0.536 OA
ENDBRANCH  14  15
ENDBRANCH   4   5
ENDBRANCH   2   4
ENDBRANCH   1   2
BRANCH   1  18
HETATM   18  C3  UNL     1       7.886   9.501  20.788  1.00  0.00    -0.046 A 
HETATM   19  C4  UNL     1       6.778   9.828  21.569  1.00  0.00     0.008 A 
HETATM   20  C5  UNL     1       6.761   9.682  22.931  1.00  0.00     0.003 A 
HETATM   21  C6  UNL     1       7.864   9.198  23.571  1.00  0.00     0.037 A 
HETATM   22  C7  UNL     1       8.979   8.864  22.819  1.00  0.00     0.080 A 
HETATM   23  C13 UNL     1       8.994   9.011  21.453  1.00  0.00     0.045 A 
BRANCH  22  24
HETATM   24  O2  UNL     1      10.062   8.379  23.521  1.00  0.00    -0.275 OA
BRANCH  24  25
HETATM   25  C8  UNL     1      10.545   9.022  24.678  1.00  0.00     0.301 C 
HETATM   26  O3  UNL     1      10.953  10.199  24.564  1.00  0.00    -0.259 OA
BRANCH  25  27
HETATM   27  C9  UNL     1      10.552   8.308  25.943  1.00  0.00     0.073 A 
HETATM   28  C10 UNL     1       9.403   8.067  26.690  1.00  0.00     0.106 A 
HETATM   29  N1  UNL     1       9.776   7.414  27.793  1.00  0.00    -0.373 N 
HETATM   30  C11 UNL     1      11.111   7.220  27.796  1.00  0.00     0.107 A 
ATOM     31  H1  UNL     1       9.141   7.104  28.530  1.00  0.00     0.164 HD
HETATM   32  C12 UNL     1      11.632   7.771  26.646  1.00  0.00     0.043 A 
HETATM   33 BR1  UNL     1      13.407   7.856  26.012  1.00  0.00    -0.049 Br
ENDBRANCH  25  27
ENDBRANCH  24  25
ENDBRANCH  22  24
ENDBRANCH   1  18
TORSDOF 8
ENDMDL
MODEL 3
REMARK VINA RESULT: -8.955396985      3.169      8.058
REMARK  8 active torsions:
REMARK  status: ('A' for Active; 'I' for Inactive)
REMARK    1  A    between atoms: C1_2  and  C2_3 
REMARK    2  A    between atoms: C1_2  and  O4_20 
REMARK    3  A    between atoms: C2_3  and  C3_4 
REMARK    4  A    between atoms: C7_8  and  O2_9 
REMARK    5  A    between atoms: O2_9  and  C8_10 
REMARK    6  A    between atoms: C8_10  and  C9_12 
REMARK    7  A    between atoms: O4_20  and  C14_21 
REMARK    8  A    between atoms: C21_30  and  N3_31 
ROOT
HETATM    1  C2  UNL     1       4.934   7.352  20.977  1.00  0.00     0.149 C 
ENDROOT
BRANCH   1   2
HETATM    2  C1  UNL     1       5.510   8.549  21.632  1.00  0.00     0.265 C 
HETATM    3  O1  UNL     1       4.904   9.663  21.472  1.00  0.00    -0.265 OA
BRANCH   2   4
HETATM    4  O4  UNL     1       6.638   8.562  22.398  1.00  0.00    -0.286 OA
BRANCH   4   5
HETATM    5  C14 UNL     1       7.072   9.626  23.234  1.00  0.00     0.311 C 
HETATM    6  O5  UNL     1       6.632   9.453  24.547  1.00  0.00    -0.312 OA
HETATM    7  C15 UNL     1       7.294   8.491  25.239  1.00  0.00     0.236 C 
HETATM    8  N2  UNL     1       8.733   8.577  25.209  1.00  0.00    -0.314 N 
HETATM    9  C16 UNL     1       9.503   8.041  26.183  1.00  0.00     0.098 A 
HETATM   10  C20 UNL     1       9.324   9.199  24.190  1.00  0.00     0.051 A 
HETATM   11  C17 UNL     1      10.862   8.104  26.177  1.00  0.00     0.018 A 
HETATM   12  C18 UNL     1      11.466   8.750  25.117  1.00  0.00     0.003 A 
HETATM   13  C19 UNL     1      10.706   9.299  24.124  1.00  0.00     0.028 A 
HETATM   14  C21 UNL     1       8.534   9.798  23.115  1.00  0.00     0.261 C 
BRANCH  14  15
HETATM   15  N3  UNL     1       9.010   9.205  21.856  1.00  0.00    -0.140 N 
HETATM   16  O6  UNL     1       9.042   7.983  21.647  1.00  0.00    -0.536 OA
HETATM   17  O7  UNL     1       9.429  10.089  20.887  1.00  0.00    -0.536 OA
ENDBRANCH  14  15
ENDBRANCH   4   5
ENDBRANCH   2   4
ENDBRANCH   1   2
BRANCH   1  18
HETATM   18  C3  UNL     1       5.868   6.585  20.147  1.00  0.00    -0.046 A 
HETATM   19  C4  UNL     1       5.986   6.953  18.807  1.00  0.00     0.008 A 
HETATM   20  C5  UNL     1       6.816   6.307  17.930  1.00  0.00     0.003 A 
HETATM   21  C6  UNL     1       7.568   5.255  18.364  1.00  0.00     0.037 A 
HETATM   22  C7  UNL     1       7.471   4.868  19.692  1.00  0.00     0.080 A 
HETATM   23  C13 UNL     1       6.638   5.518  20.570  1.00  0.00     0.045 A 
BRANCH  22  24
HETATM   24  O2  UNL     1       8.256   3.801  20.072  1.00  0.00    -0.275 OA
BRANCH  24  25
HETATM   25  C8  UNL     1       7.906   2.472  19.756  1.00  0.00     0.301 C 
HETATM   26  O3  UNL     1       7.034   1.915  20.459  1.00  0.00    -0.259 OA
BRANCH  25  27
HETATM   27  C9  UNL     1       8.559   1.808  18.642  1.00  0.00     0.073 A 
HETATM   28  C10 UNL     1       9.838   1.265  18.719  1.00  0.00     0.106 A 
HETATM   29  N1  UNL     1      10.128   0.759  17.518  1.00  0.00    -0.373 N 
HETATM   30  C11 UNL     1       9.099   0.948  16.667  1.00  0.00     0.107 A 
ATOM     31  H1  UNL     1      11.005   0.295  17.278  1.00  0.00     0.164 HD
HETATM   32  C12 UNL     1       8.093   1.606  17.340  1.00  0.00     0.043 A 
HETATM   33 BR1  UNL     1       6.390   2.177  16.765  1.00  0.00    -0.049 Br
ENDBRANCH  25  27
ENDBRANCH  24  25
ENDBRANCH  22  24
ENDBRANCH   1  18
TORSDOF 8
ENDMDL
MODEL 4
REMARK VINA RESULT: -8.779671481      1.234      2.101
REMARK  8 active torsions:
REMARK  status: ('A' for Active; 'I' for Inactive)
REMARK    1  A    between atoms: C1_2  and  C2_3 
REMARK    2  A    between atoms: C1_2  and  O4_20 
REMARK    3  A    between atoms: C2_3  and  C3_4 
REMARK    4  A    between atoms: C7_8  and  O2_9 
REMARK    5  A    between atoms: O2_9  and  C8_10 
REMARK    6  A    between atoms: C8_10  and  C9_12 
REMARK    7  A    between atoms: O4_20  and  C14_21 
REMARK    8  A    between atoms: C21_30  and  N3_31 
ROOT
HETATM    1  C2  UNL     1       5.617   6.722  22.203  1.00  0.00     0.149 C 
ENDROOT
BRANCH   1   2
HETATM    2  C1  UNL     1       5.354   6.280  20.814  1.00  0.00     0.265 C 
HETATM    3  O1  UNL     1       4.315   6.742  20.231  1.00  0.00    -0.265 OA
BRANCH   2   4
HETATM    4  O4  UNL     1       6.134   5.419  20.100  1.00  0.00    -0.286 OA
BRANCH   4   5
HETATM    5  C14 UNL     1       7.550   5.459  19.998  1.00  0.00     0.311 C 
HETATM    6  O5  UNL     1       8.150   4.610  20.930  1.00  0.00    -0.312 OA
HETATM    7  C15 UNL     1       8.054   3.290  20.630  1.00  0.00     0.236 C 
HETATM    8  N2  UNL     1       8.456   2.919  19.296  1.00  0.00    -0.314 N 
HETATM    9  C16 UNL     1       8.877   1.670  18.995  1.00  0.00     0.098 A 
HETATM   10  C20 UNL     1       8.409   3.833  18.328  1.00  0.00     0.051 A 
HETATM   11  C17 UNL     1       9.258   1.293  17.746  1.00  0.00     0.018 A 
HETATM   12  C18 UNL     1       9.206   2.247  16.748  1.00  0.00     0.003 A 
HETATM   13  C19 UNL     1       8.784   3.514  17.031  1.00  0.00     0.028 A 
HETATM   14  C21 UNL     1       7.964   5.198  18.605  1.00  0.00     0.261 C 
BRANCH  14  15
HETATM   15  N3  UNL     1       6.849   5.477  17.687  1.00  0.00    -0.140 N 
HETATM   16  O6  UNL     1       6.061   4.607  17.288  1.00  0.00    -0.536 OA
HETATM   17  O7  UNL     1       6.708   6.784  17.280  1.00  0.00    -0.536 OA
ENDBRANCH  14  15
ENDBRANCH   4   5
ENDBRANCH   2   4
ENDBRANCH   1   2
BRANCH   1  18
HETATM   18  C3  UNL     1       6.603   7.798  22.339  1.00  0.00    -0.046 A 
HETATM   19  C4  UNL     1       6.198   9.086  21.991  1.00  0.00     0.008 A 
HETATM   20  C5  UNL     1       7.030  10.171  22.065  1.00  0.00     0.003 A 
HETATM   21  C6  UNL     1       8.315  10.008  22.494  1.00  0.00     0.037 A 
HETATM   22  C7  UNL     1       8.743   8.738  22.848  1.00  0.00     0.080 A 
HETATM   23  C13 UNL     1       7.907   7.651  22.773  1.00  0.00     0.045 A 
BRANCH  22  24
HETATM   24  O2  UNL     1      10.050   8.636  23.275  1.00  0.00    -0.275 OA
BRANCH  24  25
HETATM   25  C8  UNL     1      10.483   9.213  24.486  1.00  0.00     0.301 C 
HETATM   26  O3  UNL     1      10.968  10.366  24.442  1.00  0.00    -0.259 OA
BRANCH  25  27
HETATM   27  C9  UNL     1      10.352   8.463  25.722  1.00  0.00     0.073 A 
HETATM   28  C10 UNL     1       9.135   8.254  26.364  1.00  0.00     0.106 A 
HETATM   29  N1  UNL     1       9.385   7.551  27.471  1.00  0.00    -0.373 N 
HETATM   30  C11 UNL     1      10.706   7.296  27.578  1.00  0.00     0.107 A 
ATOM     31  H1  UNL     1       8.678   7.250  28.142  1.00  0.00     0.164 HD
HETATM   32  C12 UNL     1      11.346   7.855  26.493  1.00  0.00     0.043 A 
HETATM   33 BR1  UNL     1      13.169   7.877  26.011  1.00  0.00    -0.049 Br
ENDBRANCH  25  27
ENDBRANCH  24  25
ENDBRANCH  22  24
ENDBRANCH   1  18
TORSDOF 8
ENDMDL
MODEL 5
REMARK VINA RESULT: -8.775569081      1.787      2.364
REMARK  8 active torsions:
REMARK  status: ('A' for Active; 'I' for Inactive)
REMARK    1  A    between atoms: C1_2  and  C2_3 
REMARK    2  A    between atoms: C1_2  and  O4_20 
REMARK    3  A    between atoms: C2_3  and  C3_4 
REMARK    4  A    between atoms: C7_8  and  O2_9 
REMARK    5  A    between atoms: O2_9  and  C8_10 
REMARK    6  A    between atoms: C8_10  and  C9_12 
REMARK    7  A    between atoms: O4_20  and  C14_21 
REMARK    8  A    between atoms: C21_30  and  N3_31 
ROOT
HETATM    1  C2  UNL     1       5.075   9.440  23.394  1.00  0.00     0.149 C 
ENDROOT
BRANCH   1   2
HETATM    2  C1  UNL     1       4.241   8.291  22.970  1.00  0.00     0.265 C 
HETATM    3  O1  UNL     1       2.972   8.411  23.065  1.00  0.00    -0.265 OA
BRANCH   2   4
HETATM    4  O4  UNL     1       4.716   7.110  22.483  1.00  0.00    -0.286 OA
BRANCH   4   5
HETATM    5  C14 UNL     1       4.680   6.687  21.127  1.00  0.00     0.311 C 
HETATM    6  O5  UNL     1       5.844   7.054  20.449  1.00  0.00    -0.312 OA
HETATM    7  C15 UNL     1       6.936   6.313  20.767  1.00  0.00     0.236 C 
HETATM    8  N2  UNL     1       6.763   4.883  20.708  1.00  0.00    -0.314 N 
HETATM    9  C16 UNL     1       7.804   4.042  20.517  1.00  0.00     0.098 A 
HETATM   10  C20 UNL     1       5.540   4.373  20.850  1.00  0.00     0.051 A 
HETATM   11  C17 UNL     1       7.668   2.690  20.461  1.00  0.00     0.018 A 
HETATM   12  C18 UNL     1       6.397   2.169  20.610  1.00  0.00     0.003 A 
HETATM   13  C19 UNL     1       5.332   3.002  20.803  1.00  0.00     0.028 A 
HETATM   14  C21 UNL     1       4.382   5.242  21.056  1.00  0.00     0.261 C 
BRANCH  14  15
HETATM   15  N3  UNL     1       3.733   4.800  22.299  1.00  0.00    -0.140 N 
HETATM   16  O6  UNL     1       4.360   4.376  23.282  1.00  0.00    -0.536 OA
HETATM   17  O7  UNL     1       2.359   4.881  22.331  1.00  0.00    -0.536 OA
ENDBRANCH  14  15
ENDBRANCH   4   5
ENDBRANCH   2   4
ENDBRANCH   1   2
BRANCH   1  18
HETATM   18  C3  UNL     1       6.448   9.436  22.882  1.00  0.00    -0.046 A 
HETATM   19  C4  UNL     1       6.670  10.026  21.639  1.00  0.00     0.008 A 
HETATM   20  C5  UNL     1       7.906  10.074  21.050  1.00  0.00     0.003 A 
HETATM   21  C6  UNL     1       8.980   9.529  21.691  1.00  0.00     0.037 A 
HETATM   22  C7  UNL     1       8.787   8.937  22.930  1.00  0.00     0.080 A 
HETATM   23  C13 UNL     1       7.547   8.889  23.518  1.00  0.00     0.045 A 
BRANCH  22  24
HETATM   24  O2  UNL     1       9.909   8.405  23.529  1.00  0.00    -0.275 OA
BRANCH  24  25
HETATM   25  C8  UNL     1      10.506   9.007  24.655  1.00  0.00     0.301 C 
HETATM   26  O3  UNL     1      11.007  10.144  24.511  1.00  0.00    -0.259 OA
BRANCH  25  27
HETATM   27  C9  UNL     1      10.518   8.298  25.922  1.00  0.00     0.073 A 
HETATM   28  C10 UNL     1       9.375   8.073  26.683  1.00  0.00     0.106 A 
HETATM   29  N1  UNL     1       9.751   7.420  27.784  1.00  0.00    -0.373 N 
HETATM   30  C11 UNL     1      11.084   7.212  27.774  1.00  0.00     0.107 A 
ATOM     31  H1  UNL     1       9.121   7.121  28.529  1.00  0.00     0.164 HD
HETATM   32  C12 UNL     1      11.600   7.751  26.616  1.00  0.00     0.043 A 
HETATM   33 BR1  UNL     1      13.369   7.814  25.963  1.00  0.00    -0.049 Br
ENDBRANCH  25  27
ENDBRANCH  24  25
ENDBRANCH  22  24
ENDBRANCH   1  18
TORSDOF 8
ENDMDL
