MODEL 1
REMARK VINA RESULT: -6.898747142      0.000      0.000
REMARK  14 active torsions:
REMARK  status: ('A' for Active; 'I' for Inactive)
REMARK    1  A    between atoms: C3_8  and  C4_9 
REMARK    2  A    between atoms: C4_9  and  O1_10 
REMARK    3  A    between atoms: C4_9  and  N3_12 
REMARK    4  A    between atoms: N3_12  and  N4_14 
REMARK    5  A    between atoms: N4_14  and  C5_15 
REMARK    6  A    between atoms: C5_15  and  C6_16 
REMARK    7  A    between atoms: C5_15  and  C17_37 
REMARK    8  A    between atoms: C7_18  and  C8_19 
REMARK    9  A    between atoms: C8_19  and  C9_20 
REMARK   10  A    between atoms: C8_19  and  N7_27 
REMARK   11  A    between atoms: C14_30  and  C15_31 
REMARK   12  A    between atoms: C16_34  and  O4_35 
REMARK   13  A    between atoms: C17_37  and  N9_38 
REMARK   14  A    between atoms: C17_37  and  N10_42 
ROOT
HETATM    1  C5  UNL     1      12.000  73.747  49.871  1.00  0.00     0.202 C 
ENDROOT
BRANCH   1   2
HETATM    2  N4  UNL     1      11.274  73.131  49.176  1.00  0.00    -0.321 NA
BRANCH   2   3
HETATM    3  N3  UNL     1      10.416  72.430  48.484  1.00  0.00    -0.211 N 
ATOM      4  H3  UNL     1      10.770  71.645  47.937  1.00  0.00     0.204 HD
BRANCH   3   5
HETATM    5  C4  UNL     1       9.016  72.695  48.445  1.00  0.00     0.186 C 
BRANCH   5   6
HETATM    6  C3  UNL     1       8.164  72.935  47.298  1.00  0.00     0.099 A 
HETATM    7  C2  UNL     1       8.311  73.563  46.100  1.00  0.00     0.045 A 
HETATM    8  C1  UNL     1       9.603  74.241  45.679  1.00  0.00     0.071 C 
HETATM    9  N1  UNL     1       7.286  73.576  45.289  1.00  0.00    -0.298 N 
HETATM   10  N2  UNL     1       6.180  73.008  45.625  1.00  0.00    -0.269 N 
ATOM     11  H1  UNL     1       7.363  74.039  44.383  1.00  0.00     0.187 HD
HETATM   12  S1  UNL     1       6.497  72.395  47.148  1.00  0.00     0.008 SA
ATOM     13  H2  UNL     1       5.315  72.947  45.088  1.00  0.00     0.195 HD
ENDBRANCH   5   6
BRANCH   5  14
HETATM   14  O1  UNL     1       8.422  72.722  49.603  1.00  0.00    -0.344 OA
ATOM     15  H1  UNL     1       7.772  72.043  49.748  1.00  0.00     0.219 HD
ENDBRANCH   5  14
ENDBRANCH   3   5
ENDBRANCH   2   3
ENDBRANCH   1   2
BRANCH   1  16
HETATM   16  C6  UNL     1      11.885  73.841  51.363  1.00  0.00     0.152 A 
HETATM   17  O2  UNL     1      12.329  74.768  52.135  1.00  0.00    -0.305 OA
HETATM   18  C7  UNL     1      12.057  74.546  53.399  1.00  0.00     0.100 A 
HETATM   19  C14 UNL     1      11.359  73.338  53.446  1.00  0.00     0.097 A 
HETATM   20  C16 UNL     1      11.242  72.880  52.152  1.00  0.00     0.120 A 
BRANCH  18  21
HETATM   21  C8  UNL     1      12.421  75.422  54.557  1.00  0.00     0.184 C 
BRANCH  21  22
HETATM   22  C9  UNL     1      13.882  75.183  54.852  1.00  0.00     0.027 C 
HETATM   23  C10 UNL     1      14.181  74.241  55.949  1.00  0.00     0.137 C 
HETATM   24  S2  UNL     1      15.669  73.424  55.284  1.00  0.00    -0.091 SA
HETATM   25  C11 UNL     1      15.606  74.196  53.674  1.00  0.00     0.154 C 
HETATM   26  N5  UNL     1      16.442  73.963  52.551  1.00  0.00    -0.075 NA
HETATM   27  N6  UNL     1      14.664  75.009  53.703  1.00  0.00    -0.343 N 
ATOM     28  H6  UNL     1      14.456  75.560  52.871  1.00  0.00     0.167 HD
ENDBRANCH  21  22
BRANCH  21  29
HETATM   29  N7  UNL     1      12.028  76.719  54.285  1.00  0.00    -0.406 N 
HETATM   30  C12 UNL     1      10.609  76.928  54.335  1.00  0.00     0.143 C 
HETATM   31  C13 UNL     1      12.732  77.859  54.641  1.00  0.00     0.143 C 
ENDBRANCH  21  29
ENDBRANCH  18  21
BRANCH  19  32
HETATM   32  C15 UNL     1      10.848  72.644  54.611  1.00  0.00     0.270 C 
HETATM   33  N8  UNL     1       9.505  72.679  55.044  1.00  0.00    -0.057 NA
HETATM   34  O3  UNL     1      11.620  71.957  55.305  1.00  0.00    -0.271 OA
ENDBRANCH  19  32
BRANCH  20  35
HETATM   35  O4  UNL     1      10.653  71.755  51.643  1.00  0.00    -0.357 OA
ATOM     36  H4  UNL     1      10.985  70.878  51.788  1.00  0.00     0.218 HD
ENDBRANCH  20  35
ENDBRANCH   1  16
BRANCH   1  37
HETATM   37  C17 UNL     1      13.192  74.543  49.339  1.00  0.00     0.446 C 
BRANCH  37  38
HETATM   38  N9  UNL     1      14.409  74.165  49.999  1.00  0.00    -0.043 N 
ATOM     39  H93 UNL     1      15.135  74.871  49.879  1.00  0.00     0.277 HD
ATOM     40  H92 UNL     1      14.313  74.209  51.014  1.00  0.00     0.277 HD
ATOM     41  H91 UNL     1      14.727  73.245  49.692  1.00  0.00     0.277 HD
ENDBRANCH  37  38
BRANCH  37  42
HETATM   42  N10 UNL     1      13.344  74.400  47.930  1.00  0.00    -0.043 N 
ATOM     43 3H10 UNL     1      14.325  74.297  47.673  1.00  0.00     0.277 HD
ATOM     44 2H10 UNL     1      12.997  73.495  47.610  1.00  0.00     0.277 HD
ATOM     45 1H10 UNL     1      12.906  75.166  47.418  1.00  0.00     0.277 HD
ENDBRANCH  37  42
ENDBRANCH   1  37
TORSDOF 14
ENDMDL
MODEL 2
REMARK VINA RESULT: -6.814891229      0.945      1.322
REMARK  14 active torsions:
REMARK  status: ('A' for Active; 'I' for Inactive)
REMARK    1  A    between atoms: C3_8  and  C4_9 
REMARK    2  A    between atoms: C4_9  and  O1_10 
REMARK    3  A    between atoms: C4_9  and  N3_12 
REMARK    4  A    between atoms: N3_12  and  N4_14 
REMARK    5  A    between atoms: N4_14  and  C5_15 
REMARK    6  A    between atoms: C5_15  and  C6_16 
REMARK    7  A    between atoms: C5_15  and  C17_37 
REMARK    8  A    between atoms: C7_18  and  C8_19 
REMARK    9  A    between atoms: C8_19  and  C9_20 
REMARK   10  A    between atoms: C8_19  and  N7_27 
REMARK   11  A    between atoms: C14_30  and  C15_31 
REMARK   12  A    between atoms: C16_34  and  O4_35 
REMARK   13  A    between atoms: C17_37  and  N9_38 
REMARK   14  A    between atoms: C17_37  and  N10_42 
ROOT
HETATM    1  C5  UNL     1      11.842  73.684  50.002  1.00  0.00     0.202 C 
ENDROOT
BRANCH   1   2
HETATM    2  N4  UNL     1      11.076  73.054  49.364  1.00  0.00    -0.321 NA
BRANCH   2   3
HETATM    3  N3  UNL     1      10.157  72.408  48.698  1.00  0.00    -0.211 N 
ATOM      4  H3  UNL     1       9.982  71.434  48.945  1.00  0.00     0.204 HD
BRANCH   3   5
HETATM    5  C4  UNL     1       9.384  72.979  47.646  1.00  0.00     0.186 C 
BRANCH   5   6
HETATM    6  C3  UNL     1       7.965  72.848  47.381  1.00  0.00     0.099 A 
HETATM    7  C2  UNL     1       6.843  72.765  48.146  1.00  0.00     0.045 A 
HETATM    8  C1  UNL     1       6.878  72.795  49.664  1.00  0.00     0.071 C 
HETATM    9  N1  UNL     1       5.695  72.654  47.533  1.00  0.00    -0.298 N 
HETATM   10  N2  UNL     1       5.640  72.625  46.247  1.00  0.00    -0.269 N 
ATOM     11  H1  UNL     1       4.834  72.589  48.078  1.00  0.00     0.187 HD
HETATM   12  S1  UNL     1       7.241  72.755  45.781  1.00  0.00     0.008 SA
ATOM     13  H2  UNL     1       4.815  72.543  45.653  1.00  0.00     0.195 HD
ENDBRANCH   5   6
BRANCH   5  14
HETATM   14  O1  UNL     1      10.047  73.724  46.808  1.00  0.00    -0.344 OA
ATOM     15  H1  UNL     1      10.985  73.578  46.782  1.00  0.00     0.219 HD
ENDBRANCH   5  14
ENDBRANCH   3   5
ENDBRANCH   2   3
ENDBRANCH   1   2
BRANCH   1  16
HETATM   16  C6  UNL     1      11.823  73.798  51.497  1.00  0.00     0.152 A 
HETATM   17  O2  UNL     1      12.314  74.736  52.226  1.00  0.00    -0.305 OA
HETATM   18  C7  UNL     1      12.125  74.532  53.507  1.00  0.00     0.100 A 
HETATM   19  C14 UNL     1      11.434  73.324  53.617  1.00  0.00     0.097 A 
HETATM   20  C16 UNL     1      11.235  72.848  52.339  1.00  0.00     0.120 A 
BRANCH  18  21
HETATM   21  C8  UNL     1      12.561  75.425  54.627  1.00  0.00     0.184 C 
BRANCH  21  22
HETATM   22  C9  UNL     1      14.028  75.155  54.864  1.00  0.00     0.027 C 
HETATM   23  C10 UNL     1      14.349  74.182  55.928  1.00  0.00     0.137 C 
HETATM   24  S2  UNL     1      15.798  73.357  55.192  1.00  0.00    -0.091 SA
HETATM   25  C11 UNL     1      15.691  74.167  53.603  1.00  0.00     0.154 C 
HETATM   26  N5  UNL     1      16.482  73.945  52.446  1.00  0.00    -0.075 NA
HETATM   27  N6  UNL     1      14.765  74.994  53.684  1.00  0.00    -0.343 N 
ATOM     28  H6  UNL     1      14.537  75.567  52.873  1.00  0.00     0.167 HD
ENDBRANCH  21  22
BRANCH  21  29
HETATM   29  N7  UNL     1      12.189  76.725  54.342  1.00  0.00    -0.406 N 
HETATM   30  C12 UNL     1      10.778  76.968  54.436  1.00  0.00     0.143 C 
HETATM   31  C13 UNL     1      12.931  77.854  54.650  1.00  0.00     0.143 C 
ENDBRANCH  21  29
ENDBRANCH  18  21
BRANCH  19  32
HETATM   32  C15 UNL     1      11.002  72.645  54.822  1.00  0.00     0.270 C 
HETATM   33  N8  UNL     1       9.738  72.810  55.428  1.00  0.00    -0.057 NA
HETATM   34  O3  UNL     1      11.774  71.852  55.391  1.00  0.00    -0.271 OA
ENDBRANCH  19  32
BRANCH  20  35
HETATM   35  O4  UNL     1      10.617  71.715  51.884  1.00  0.00    -0.357 OA
ATOM     36  H4  UNL     1       9.745  71.709  51.507  1.00  0.00     0.218 HD
ENDBRANCH  20  35
ENDBRANCH   1  16
BRANCH   1  37
HETATM   37  C17 UNL     1      12.990  74.480  49.382  1.00  0.00     0.446 C 
BRANCH  37  38
HETATM   38  N9  UNL     1      14.251  74.115  49.963  1.00  0.00    -0.043 N 
ATOM     39  H93 UNL     1      14.349  73.103  50.041  1.00  0.00     0.277 HD
ATOM     40  H92 UNL     1      15.025  74.299  49.325  1.00  0.00     0.277 HD
ATOM     41  H91 UNL     1      14.391  74.575  50.864  1.00  0.00     0.277 HD
ENDBRANCH  37  38
BRANCH  37  42
HETATM   42  N10 UNL     1      13.048  74.322  47.968  1.00  0.00    -0.043 N 
ATOM     43 3H10 UNL     1      13.471  75.135  47.522  1.00  0.00     0.277 HD
ATOM     44 2H10 UNL     1      13.737  73.617  47.703  1.00  0.00     0.277 HD
ATOM     45 1H10 UNL     1      12.133  74.114  47.568  1.00  0.00     0.277 HD
ENDBRANCH  37  42
ENDBRANCH   1  37
TORSDOF 14
ENDMDL
MODEL 3
REMARK VINA RESULT: -6.393717495      2.617      4.108
REMARK  14 active torsions:
REMARK  status: ('A' for Active; 'I' for Inactive)
REMARK    1  A    between atoms: C3_8  and  C4_9 
REMARK    2  A    between atoms: C4_9  and  O1_10 
REMARK    3  A    between atoms: C4_9  and  N3_12 
REMARK    4  A    between atoms: N3_12  and  N4_14 
REMARK    5  A    between atoms: N4_14  and  C5_15 
REMARK    6  A    between atoms: C5_15  and  C6_16 
REMARK    7  A    between atoms: C5_15  and  C17_37 
REMARK    8  A    between atoms: C7_18  and  C8_19 
REMARK    9  A    between atoms: C8_19  and  C9_20 
REMARK   10  A    between atoms: C8_19  and  N7_27 
REMARK   11  A    between atoms: C14_30  and  C15_31 
REMARK   12  A    between atoms: C16_34  and  O4_35 
REMARK   13  A    between atoms: C17_37  and  N9_38 
REMARK   14  A    between atoms: C17_37  and  N10_42 
ROOT
HETATM    1  C5  UNL     1       8.023  72.978  50.448  1.00  0.00     0.202 C 
ENDROOT
BRANCH   1   2
HETATM    2  N4  UNL     1       8.545  72.623  49.452  1.00  0.00    -0.321 NA
BRANCH   2   3
HETATM    3  N3  UNL     1       9.036  72.235  48.306  1.00  0.00    -0.211 N 
ATOM      4  H3  UNL     1       9.207  71.238  48.173  1.00  0.00     0.204 HD
BRANCH   3   5
HETATM    5  C4  UNL     1       9.349  73.116  47.232  1.00  0.00     0.186 C 
BRANCH   5   6
HETATM    6  C3  UNL     1      10.621  73.719  46.886  1.00  0.00     0.099 A 
HETATM    7  C2  UNL     1      11.818  73.874  47.513  1.00  0.00     0.045 A 
HETATM    8  C1  UNL     1      12.083  73.366  48.919  1.00  0.00     0.071 C 
HETATM    9  N1  UNL     1      12.770  74.491  46.864  1.00  0.00    -0.298 N 
HETATM   10  N2  UNL     1      12.569  74.932  45.671  1.00  0.00    -0.269 N 
ATOM     11  H1  UNL     1      13.680  74.624  47.306  1.00  0.00     0.187 HD
HETATM   12  S1  UNL     1      10.983  74.505  45.355  1.00  0.00     0.008 SA
ATOM     13  H2  UNL     1      13.222  75.425  45.062  1.00  0.00     0.195 HD
ENDBRANCH   5   6
BRANCH   5  14
HETATM   14  O1  UNL     1       8.352  73.419  46.451  1.00  0.00    -0.344 OA
ATOM     15  H1  UNL     1       7.812  74.147  46.737  1.00  0.00     0.219 HD
ENDBRANCH   5  14
ENDBRANCH   3   5
ENDBRANCH   2   3
ENDBRANCH   1   2
BRANCH   1  16
HETATM   16  C6  UNL     1       8.747  73.376  51.701  1.00  0.00     0.152 A 
HETATM   17  O2  UNL     1       8.720  74.510  52.304  1.00  0.00    -0.305 OA
HETATM   18  C7  UNL     1       9.469  74.527  53.381  1.00  0.00     0.100 A 
HETATM   19  C14 UNL     1      10.044  73.259  53.482  1.00  0.00     0.097 A 
HETATM   20  C16 UNL     1       9.589  72.515  52.415  1.00  0.00     0.120 A 
BRANCH  18  21
HETATM   21  C8  UNL     1       9.661  75.679  54.317  1.00  0.00     0.184 C 
BRANCH  21  22
HETATM   22  C9  UNL     1      10.691  76.590  53.693  1.00  0.00     0.027 C 
HETATM   23  C10 UNL     1      11.386  77.515  54.612  1.00  0.00     0.137 C 
HETATM   24  S2  UNL     1      13.056  77.511  53.879  1.00  0.00    -0.091 SA
HETATM   25  C11 UNL     1      12.734  76.227  52.679  1.00  0.00     0.154 C 
HETATM   26  N5  UNL     1      13.642  75.619  51.774  1.00  0.00    -0.075 NA
HETATM   27  N6  UNL     1      11.526  75.944  52.773  1.00  0.00    -0.343 N 
ATOM     28  H6  UNL     1      11.135  75.223  52.167  1.00  0.00     0.167 HD
ENDBRANCH  21  22
BRANCH  21  29
HETATM   29  N7  UNL     1       8.428  76.224  54.623  1.00  0.00    -0.406 N 
HETATM   30  C12 UNL     1       8.058  76.105  56.004  1.00  0.00     0.143 C 
HETATM   31  C13 UNL     1       7.889  77.359  54.038  1.00  0.00     0.143 C 
ENDBRANCH  21  29
ENDBRANCH  18  21
BRANCH  19  32
HETATM   32  C15 UNL     1      10.968  72.771  54.486  1.00  0.00     0.270 C 
HETATM   33  N8  UNL     1      10.588  72.249  55.741  1.00  0.00    -0.057 NA
HETATM   34  O3  UNL     1      12.192  72.798  54.261  1.00  0.00    -0.271 OA
ENDBRANCH  19  32
BRANCH  20  35
HETATM   35  O4  UNL     1       9.839  71.223  52.042  1.00  0.00    -0.357 OA
ATOM     36  H4  UNL     1      10.260  70.587  52.608  1.00  0.00     0.218 HD
ENDBRANCH  20  35
ENDBRANCH   1  16
BRANCH   1  37
HETATM   37  C17 UNL     1       6.507  73.096  50.602  1.00  0.00     0.446 C 
BRANCH  37  38
HETATM   38  N9  UNL     1       6.055  74.428  50.314  1.00  0.00    -0.043 N 
ATOM     39  H93 UNL     1       6.042  75.009  51.152  1.00  0.00     0.277 HD
ATOM     40  H92 UNL     1       6.746  74.948  49.773  1.00  0.00     0.277 HD
ATOM     41  H91 UNL     1       5.146  74.418  49.851  1.00  0.00     0.277 HD
ENDBRANCH  37  38
BRANCH  37  42
HETATM   42  N10 UNL     1       5.812  72.163  49.780  1.00  0.00    -0.043 N 
ATOM     43 3H10 UNL     1       6.389  71.861  48.995  1.00  0.00     0.277 HD
ATOM     44 2H10 UNL     1       5.699  71.266  50.252  1.00  0.00     0.277 HD
ATOM     45 1H10 UNL     1       4.915  72.529  49.461  1.00  0.00     0.277 HD
ENDBRANCH  37  42
ENDBRANCH   1  37
TORSDOF 14
ENDMDL
MODEL 4
REMARK VINA RESULT: -6.280835015      2.030      4.165
REMARK  14 active torsions:
REMARK  status: ('A' for Active; 'I' for Inactive)
REMARK    1  A    between atoms: C3_8  and  C4_9 
REMARK    2  A    between atoms: C4_9  and  O1_10 
REMARK    3  A    between atoms: C4_9  and  N3_12 
REMARK    4  A    between atoms: N3_12  and  N4_14 
REMARK    5  A    between atoms: N4_14  and  C5_15 
REMARK    6  A    between atoms: C5_15  and  C6_16 
REMARK    7  A    between atoms: C5_15  and  C17_37 
REMARK    8  A    between atoms: C7_18  and  C8_19 
REMARK    9  A    between atoms: C8_19  and  C9_20 
REMARK   10  A    between atoms: C8_19  and  N7_27 
REMARK   11  A    between atoms: C14_30  and  C15_31 
REMARK   12  A    between atoms: C16_34  and  O4_35 
REMARK   13  A    between atoms: C17_37  and  N9_38 
REMARK   14  A    between atoms: C17_37  and  N10_42 
ROOT
HETATM    1  C5  UNL     1       9.977  72.972  51.195  1.00  0.00     0.202 C 
ENDROOT
BRANCH   1   2
HETATM    2  N4  UNL     1       9.599  72.498  50.183  1.00  0.00    -0.321 NA
BRANCH   2   3
HETATM    3  N3  UNL     1       9.268  71.989  49.028  1.00  0.00    -0.211 N 
ATOM      4  H3  UNL     1       9.231  70.973  48.945  1.00  0.00     0.204 HD
BRANCH   3   5
HETATM    5  C4  UNL     1       8.955  72.764  47.874  1.00  0.00     0.186 C 
BRANCH   5   6
HETATM    6  C3  UNL     1       7.688  72.903  47.183  1.00  0.00     0.099 A 
HETATM    7  C2  UNL     1       6.384  72.699  47.508  1.00  0.00     0.045 A 
HETATM    8  C1  UNL     1       5.943  72.204  48.874  1.00  0.00     0.071 C 
HETATM    9  N1  UNL     1       5.483  72.943  46.593  1.00  0.00    -0.298 N 
HETATM   10  N2  UNL     1       5.832  73.362  45.427  1.00  0.00    -0.269 N 
ATOM     11  H1  UNL     1       4.495  72.800  46.805  1.00  0.00     0.187 HD
HETATM   12  S1  UNL     1       7.500  73.450  45.522  1.00  0.00     0.008 SA
ATOM     13  H2  UNL     1       5.233  73.588  44.633  1.00  0.00     0.195 HD
ENDBRANCH   5   6
BRANCH   5  14
HETATM   14  O1  UNL     1       9.947  73.443  47.372  1.00  0.00    -0.344 OA
ATOM     15  H1  UNL     1      10.814  73.172  47.654  1.00  0.00     0.219 HD
ENDBRANCH   5  14
ENDBRANCH   3   5
ENDBRANCH   2   3
ENDBRANCH   1   2
BRANCH   1  16
HETATM   16  C6  UNL     1      11.343  73.553  51.412  1.00  0.00     0.152 A 
HETATM   17  O2  UNL     1      11.836  74.029  52.499  1.00  0.00    -0.305 OA
HETATM   18  C7  UNL     1      13.066  74.459  52.348  1.00  0.00     0.100 A 
HETATM   19  C14 UNL     1      13.402  74.235  51.012  1.00  0.00     0.097 A 
HETATM   20  C16 UNL     1      12.309  73.656  50.405  1.00  0.00     0.120 A 
BRANCH  18  21
HETATM   21  C8  UNL     1      13.936  75.065  53.406  1.00  0.00     0.184 C 
BRANCH  21  22
HETATM   22  C9  UNL     1      13.064  75.989  54.222  1.00  0.00     0.027 C 
HETATM   23  C10 UNL     1      13.722  77.191  54.771  1.00  0.00     0.137 C 
HETATM   24  S2  UNL     1      12.370  78.405  54.616  1.00  0.00    -0.091 SA
HETATM   25  C11 UNL     1      11.257  77.336  53.715  1.00  0.00     0.154 C 
HETATM   26  N5  UNL     1       9.988  77.648  53.163  1.00  0.00    -0.075 NA
HETATM   27  N6  UNL     1      11.806  76.221  53.650  1.00  0.00    -0.343 N 
ATOM     28  H6  UNL     1      11.330  75.458  53.169  1.00  0.00     0.167 HD
ENDBRANCH  21  22
BRANCH  21  29
HETATM   29  N7  UNL     1      14.602  74.057  54.077  1.00  0.00    -0.406 N 
HETATM   30  C12 UNL     1      16.031  74.185  54.066  1.00  0.00     0.143 C 
HETATM   31  C13 UNL     1      14.147  73.425  55.224  1.00  0.00     0.143 C 
ENDBRANCH  21  29
ENDBRANCH  18  21
BRANCH  19  32
HETATM   32  C15 UNL     1      14.644  74.552  50.334  1.00  0.00     0.270 C 
HETATM   33  N8  UNL     1      14.735  75.240  49.105  1.00  0.00    -0.057 NA
HETATM   34  O3  UNL     1      15.727  74.209  50.842  1.00  0.00    -0.271 OA
ENDBRANCH  19  32
BRANCH  20  35
HETATM   35  O4  UNL     1      12.107  73.237  49.118  1.00  0.00    -0.357 OA
ATOM     36  H4  UNL     1      12.173  73.811  48.364  1.00  0.00     0.218 HD
ENDBRANCH  20  35
ENDBRANCH   1  16
BRANCH   1  37
HETATM   37  C17 UNL     1       9.108  73.071  52.448  1.00  0.00     0.446 C 
BRANCH  37  38
HETATM   38  N9  UNL     1       9.629  72.259  53.510  1.00  0.00    -0.043 N 
ATOM     39  H93 UNL     1       9.179  71.344  53.538  1.00  0.00     0.277 HD
ATOM     40  H92 UNL     1      10.585  71.958  53.317  1.00  0.00     0.277 HD
ATOM     41  H91 UNL     1       9.562  72.736  54.410  1.00  0.00     0.277 HD
ENDBRANCH  37  38
BRANCH  37  42
HETATM   42  N10 UNL     1       8.967  74.416  52.896  1.00  0.00    -0.043 N 
ATOM     43 3H10 UNL     1       8.524  74.456  53.813  1.00  0.00     0.277 HD
ATOM     44 2H10 UNL     1       9.871  74.823  53.136  1.00  0.00     0.277 HD
ATOM     45 1H10 UNL     1       8.469  74.995  52.218  1.00  0.00     0.277 HD
ENDBRANCH  37  42
ENDBRANCH   1  37
TORSDOF 14
ENDMDL
MODEL 5
REMARK VINA RESULT: -6.160380627      3.565      8.062
REMARK  14 active torsions:
REMARK  status: ('A' for Active; 'I' for Inactive)
REMARK    1  A    between atoms: C3_8  and  C4_9 
REMARK    2  A    between atoms: C4_9  and  O1_10 
REMARK    3  A    between atoms: C4_9  and  N3_12 
REMARK    4  A    between atoms: N3_12  and  N4_14 
REMARK    5  A    between atoms: N4_14  and  C5_15 
REMARK    6  A    between atoms: C5_15  and  C6_16 
REMARK    7  A    between atoms: C5_15  and  C17_37 
REMARK    8  A    between atoms: C7_18  and  C8_19 
REMARK    9  A    between atoms: C8_19  and  C9_20 
REMARK   10  A    between atoms: C8_19  and  N7_27 
REMARK   11  A    between atoms: C14_30  and  C15_31 
REMARK   12  A    between atoms: C16_34  and  O4_35 
REMARK   13  A    between atoms: C17_37  and  N9_38 
REMARK   14  A    between atoms: C17_37  and  N10_42 
ROOT
HETATM    1  C5  UNL     1      10.706  72.977  50.418  1.00  0.00     0.202 C 
ENDROOT
BRANCH   1   2
HETATM    2  N4  UNL     1      11.642  73.368  49.818  1.00  0.00    -0.321 NA
BRANCH   2   3
HETATM    3  N3  UNL     1      12.623  73.804  49.074  1.00  0.00    -0.211 N 
ATOM      4  H3  UNL     1      12.590  73.605  48.074  1.00  0.00     0.204 HD
BRANCH   3   5
HETATM    5  C4  UNL     1      13.737  74.539  49.572  1.00  0.00     0.186 C 
BRANCH   5   6
HETATM    6  C3  UNL     1      14.252  74.611  50.926  1.00  0.00     0.099 A 
HETATM    7  C2  UNL     1      13.818  75.150  52.096  1.00  0.00     0.045 A 
HETATM    8  C1  UNL     1      12.504  75.901  52.220  1.00  0.00     0.071 C 
HETATM    9  N1  UNL     1      14.577  75.009  53.150  1.00  0.00    -0.298 N 
HETATM   10  N2  UNL     1      15.697  74.377  53.070  1.00  0.00    -0.269 N 
ATOM     11  H1  UNL     1      14.281  75.402  54.044  1.00  0.00     0.187 HD
HETATM   12  S1  UNL     1      15.777  73.919  51.463  1.00  0.00     0.008 SA
ATOM     13  H2  UNL     1      16.374  74.199  53.811  1.00  0.00     0.195 HD
ENDBRANCH   5   6
BRANCH   5  14
HETATM   14  O1  UNL     1      14.383  75.241  48.686  1.00  0.00    -0.344 OA
ATOM     15  H1  UNL     1      13.937  75.366  47.856  1.00  0.00     0.219 HD
ENDBRANCH   5  14
ENDBRANCH   3   5
ENDBRANCH   2   3
ENDBRANCH   1   2
BRANCH   1  16
HETATM   16  C6  UNL     1       9.304  72.930  49.887  1.00  0.00     0.152 A 
HETATM   17  O2  UNL     1       8.205  72.909  50.553  1.00  0.00    -0.305 OA
HETATM   18  C7  UNL     1       7.147  72.870  49.779  1.00  0.00     0.100 A 
HETATM   19  C14 UNL     1       7.618  72.864  48.465  1.00  0.00     0.097 A 
HETATM   20  C16 UNL     1       8.994  72.904  48.522  1.00  0.00     0.120 A 
BRANCH  18  21
HETATM   21  C8  UNL     1       5.717  72.842  50.223  1.00  0.00     0.184 C 
BRANCH  21  22
HETATM   22  C9  UNL     1       5.698  72.275  51.622  1.00  0.00     0.027 C 
HETATM   23  C10 UNL     1       5.915  73.238  52.720  1.00  0.00     0.137 C 
HETATM   24  S2  UNL     1       4.789  72.556  53.982  1.00  0.00    -0.091 SA
HETATM   25  C11 UNL     1       4.056  71.312  52.930  1.00  0.00     0.154 C 
HETATM   26  N5  UNL     1       2.994  70.418  53.229  1.00  0.00    -0.075 NA
HETATM   27  N6  UNL     1       4.658  71.363  51.842  1.00  0.00    -0.343 N 
ATOM     28  H6  UNL     1       4.388  70.726  51.093  1.00  0.00     0.167 HD
ENDBRANCH  21  22
BRANCH  21  29
HETATM   29  N7  UNL     1       5.159  74.092  50.033  1.00  0.00    -0.406 N 
HETATM   30  C12 UNL     1       3.757  74.072  49.731  1.00  0.00     0.143 C 
HETATM   31  C13 UNL     1       5.526  75.242  50.713  1.00  0.00     0.143 C 
ENDBRANCH  21  29
ENDBRANCH  18  21
BRANCH  19  32
HETATM   32  C15 UNL     1       6.850  72.807  47.237  1.00  0.00     0.270 C 
HETATM   33  N8  UNL     1       7.106  73.591  46.092  1.00  0.00    -0.057 NA
HETATM   34  O3  UNL     1       5.887  72.024  47.150  1.00  0.00    -0.271 OA
ENDBRANCH  19  32
BRANCH  20  35
HETATM   35  O4  UNL     1       9.938  72.918  47.532  1.00  0.00    -0.357 OA
ATOM     36  H4  UNL     1      10.300  72.131  47.142  1.00  0.00     0.218 HD
ENDBRANCH  20  35
ENDBRANCH   1  16
BRANCH   1  37
HETATM   37  C17 UNL     1      10.793  72.444  51.848  1.00  0.00     0.446 C 
BRANCH  37  38
HETATM   38  N9  UNL     1      10.247  73.382  52.788  1.00  0.00    -0.043 N 
ATOM     39  H93 UNL     1      10.483  74.343  52.539  1.00  0.00     0.277 HD
ATOM     40  H92 UNL     1       9.232  73.444  52.709  1.00  0.00     0.277 HD
ATOM     41  H91 UNL     1      10.536  73.162  53.742  1.00  0.00     0.277 HD
ENDBRANCH  37  38
BRANCH  37  42
HETATM   42  N10 UNL     1      10.140  71.186  51.990  1.00  0.00    -0.043 N 
ATOM     43 3H10 UNL     1      10.209  70.840  52.947  1.00  0.00     0.277 HD
ATOM     44 2H10 UNL     1       9.127  71.286  51.927  1.00  0.00     0.277 HD
ATOM     45 1H10 UNL     1      10.487  70.498  51.321  1.00  0.00     0.277 HD
ENDBRANCH  37  42
ENDBRANCH   1  37
TORSDOF 14
ENDMDL
