MODEL 1
REMARK VINA RESULT: -9.264335035      0.000      0.000
REMARK  14 active torsions:
REMARK  status: ('A' for Active; 'I' for Inactive)
REMARK    1  A    between atoms: C2_2  and  O1_3 
REMARK    2  A    between atoms: C2_2  and  C3_5 
REMARK       I    between atoms: C3_5  and  N1_7 
REMARK    3  A    between atoms: N1_7  and  N2_9 
REMARK    4  A    between atoms: N2_9  and  N3_11 
REMARK    5  A    between atoms: N3_11  and  C4_13 
REMARK    6  A    between atoms: C7_16  and  C8_17 
REMARK    7  A    between atoms: C8_17  and  C9_18 
REMARK    8  A    between atoms: C9_18  and  N4_19 
REMARK    9  A    between atoms: N4_19  and  C10_21 
REMARK   10  A    between atoms: C11_24  and  N6_25 
REMARK   11  A    between atoms: C12_29  and  C13_30 
REMARK   12  A    between atoms: C18_41  and  N12_42 
REMARK   13  A    between atoms: C19_47  and  N14_48 
REMARK   14  A    between atoms: N15_51  and  N16_52 
ROOT
HETATM    1  N4  UNL     1      14.322  74.584  54.826  1.00  0.00    -0.225 N 
ATOM      2  H4  UNL     1      14.391  75.466  55.335  1.00  0.00     0.177 HD
ENDROOT
BRANCH   1   3
HETATM    3  C9  UNL     1      13.263  73.665  55.141  1.00  0.00     0.142 C 
BRANCH   3   4
HETATM    4  C8  UNL     1      11.885  74.328  55.078  1.00  0.00     0.062 C 
BRANCH   4   5
HETATM    5  C7  UNL     1      11.134  73.824  53.890  1.00  0.00    -0.011 A 
HETATM    6  C6  UNL     1      11.293  74.444  52.649  1.00  0.00     0.015 A 
HETATM    7  C5  UNL     1      10.609  73.986  51.545  1.00  0.00     0.052 A 
HETATM    8  C4  UNL     1       9.762  72.891  51.718  1.00  0.00     0.144 A 
HETATM    9  N15 UNL     1       9.619  72.306  52.918  1.00  0.00    -0.229 N 
HETATM   10  C19 UNL     1      10.286  72.754  53.995  1.00  0.00     0.128 A 
BRANCH   8  11
HETATM   11  N3  UNL     1       9.027  72.363  50.628  1.00  0.00    -0.269 N 
ATOM     12  H3  UNL     1       9.376  71.508  50.195  1.00  0.00     0.190 HD
BRANCH  11  13
HETATM   13  N2  UNL     1       7.986  72.865  50.157  1.00  0.00    -0.238 N 
ATOM     14  H2  UNL     1       7.351  73.364  50.780  1.00  0.00     0.208 HD
BRANCH  13  15
HETATM   15  N1  UNL     1       7.671  72.764  48.823  1.00  0.00    -0.253 N 
HETATM   16  C3  UNL     1       6.352  72.734  48.348  1.00  0.00     0.265 C 
HETATM   17  O2  UNL     1       5.394  72.799  49.143  1.00  0.00    -0.269 OA
ATOM     18  H1  UNL     1       8.432  72.709  48.147  1.00  0.00     0.191 HD
BRANCH  16  19
HETATM   19  C2  UNL     1       6.038  72.626  46.894  1.00  0.00     0.207 C 
HETATM   20  C1  UNL     1       7.219  72.044  46.140  1.00  0.00     0.049 C 
BRANCH  19  21
HETATM   21  O1  UNL     1       5.813  73.914  46.419  1.00  0.00    -0.386 OA
ATOM     22  H1  UNL     1       4.980  74.215  46.764  1.00  0.00     0.210 HD
ENDBRANCH  19  21
ENDBRANCH  16  19
ENDBRANCH  13  15
ENDBRANCH  11  13
ENDBRANCH   8  11
BRANCH   9  23
HETATM   23  N16 UNL     1       8.770  71.219  53.059  1.00  0.00    -0.335 N 
ATOM     24 2H16 UNL     1       8.842  70.449  52.395  1.00  0.00     0.177 HD
ATOM     25 1H16 UNL     1       8.089  71.202  53.818  1.00  0.00     0.177 HD
ENDBRANCH   9  23
BRANCH  10  26
HETATM   26  N14 UNL     1      10.152  72.199  55.149  1.00  0.00    -0.384 N 
ATOM     27 2H14 UNL     1      10.280  72.726  56.013  1.00  0.00     0.157 HD
ATOM     28 1H14 UNL     1       9.913  71.208  55.180  1.00  0.00     0.157 HD
ENDBRANCH  10  26
ENDBRANCH   4   5
ENDBRANCH   3   4
ENDBRANCH   1   3
BRANCH   1  29
HETATM   29  C10 UNL     1      15.182  74.311  53.913  1.00  0.00     0.707 A 
HETATM   30  N5  UNL     1      14.742  74.405  52.614  1.00  0.00    -0.018 N 
HETATM   31  C11 UNL     1      15.534  74.149  51.562  1.00  0.00     0.746 A 
ATOM     32  H5  UNL     1      13.775  74.680  52.442  1.00  0.00     0.203 HD
HETATM   33  N11 UNL     1      16.802  73.787  51.821  1.00  0.00    -0.019 N 
HETATM   34  C18 UNL     1      17.282  73.680  53.074  1.00  0.00     0.705 A 
ATOM     35  H11 UNL     1      17.424  73.586  51.038  1.00  0.00     0.203 HD
HETATM   36  N13 UNL     1      16.455  73.946  54.121  1.00  0.00    -0.022 N 
ATOM     37  H13 UNL     1      16.808  73.867  55.075  1.00  0.00     0.203 HD
BRANCH  31  38
HETATM   38  N6  UNL     1      15.057  74.254  50.222  1.00  0.00    -0.002 N 
HETATM   39  N7  UNL     1      15.794  74.501  49.131  1.00  0.00     0.018 NA
HETATM   40  N8  UNL     1      15.014  74.527  48.062  1.00  0.00    -0.264 N 
HETATM   41  C12 UNL     1      13.748  74.295  48.448  1.00  0.00     0.162 A 
ATOM     42  H8  UNL     1      15.323  74.695  47.104  1.00  0.00     0.186 HD
HETATM   43  N10 UNL     1      13.818  74.134  49.776  1.00  0.00    -0.248 N 
ATOM     44  H10 UNL     1      13.012  73.942  50.372  1.00  0.00     0.191 HD
BRANCH  41  45
HETATM   45  C13 UNL     1      12.586  74.244  47.569  1.00  0.00     0.079 A 
HETATM   46  C14 UNL     1      11.415  73.612  47.936  1.00  0.00     0.033 A 
HETATM   47  C15 UNL     1      10.313  73.561  47.108  1.00  0.00     0.004 A 
HETATM   48  C16 UNL     1      10.364  74.159  45.860  1.00  0.00     0.017 A 
HETATM   49  C17 UNL     1      11.546  74.785  45.518  1.00  0.00     0.088 A 
HETATM   50  N9  UNL     1      12.616  74.818  46.355  1.00  0.00    -0.363 N 
ATOM     51  H9  UNL     1      13.467  75.294  46.053  1.00  0.00     0.165 HD
ENDBRANCH  41  45
ENDBRANCH  31  38
BRANCH  34  52
HETATM   52  N12 UNL     1      18.496  73.334  53.344  1.00  0.00    -0.234 N 
ATOM     53 2H12 UNL     1      19.242  73.775  52.807  1.00  0.00     0.174 HD
ATOM     54 1H12 UNL     1      18.740  72.651  54.061  1.00  0.00     0.174 HD
ENDBRANCH  34  52
ENDBRANCH   1  29
TORSDOF 14
ENDMDL
MODEL 2
REMARK VINA RESULT: -9.053637936      1.129      1.224
REMARK  14 active torsions:
REMARK  status: ('A' for Active; 'I' for Inactive)
REMARK    1  A    between atoms: C2_2  and  O1_3 
REMARK    2  A    between atoms: C2_2  and  C3_5 
REMARK       I    between atoms: C3_5  and  N1_7 
REMARK    3  A    between atoms: N1_7  and  N2_9 
REMARK    4  A    between atoms: N2_9  and  N3_11 
REMARK    5  A    between atoms: N3_11  and  C4_13 
REMARK    6  A    between atoms: C7_16  and  C8_17 
REMARK    7  A    between atoms: C8_17  and  C9_18 
REMARK    8  A    between atoms: C9_18  and  N4_19 
REMARK    9  A    between atoms: N4_19  and  C10_21 
REMARK   10  A    between atoms: C11_24  and  N6_25 
REMARK   11  A    between atoms: C12_29  and  C13_30 
REMARK   12  A    between atoms: C18_41  and  N12_42 
REMARK   13  A    between atoms: C19_47  and  N14_48 
REMARK   14  A    between atoms: N15_51  and  N16_52 
ROOT
HETATM    1  N4  UNL     1      14.375  74.883  54.888  1.00  0.00    -0.225 N 
ATOM      2  H4  UNL     1      14.710  74.990  55.845  1.00  0.00     0.177 HD
ENDROOT
BRANCH   1   3
HETATM    3  C9  UNL     1      13.003  75.175  54.578  1.00  0.00     0.142 C 
BRANCH   3   4
HETATM    4  C8  UNL     1      12.037  74.212  55.272  1.00  0.00     0.062 C 
BRANCH   4   5
HETATM    5  C7  UNL     1      10.792  74.069  54.461  1.00  0.00    -0.011 A 
HETATM    6  C6  UNL     1       9.885  75.129  54.382  1.00  0.00     0.015 A 
HETATM    7  C5  UNL     1       8.736  75.012  53.633  1.00  0.00     0.052 A 
HETATM    8  C4  UNL     1       8.518  73.805  52.968  1.00  0.00     0.144 A 
HETATM    9  N15 UNL     1       9.399  72.795  53.054  1.00  0.00    -0.229 N 
HETATM   10  C19 UNL     1      10.520  72.910  53.785  1.00  0.00     0.128 A 
BRANCH   8  11
HETATM   11  N3  UNL     1       7.359  73.612  52.177  1.00  0.00    -0.269 N 
ATOM     12  H3  UNL     1       6.862  72.727  52.278  1.00  0.00     0.190 HD
BRANCH  11  13
HETATM   13  N2  UNL     1       6.899  74.442  51.366  1.00  0.00    -0.238 N 
ATOM     14  H2  UNL     1       7.023  75.437  51.552  1.00  0.00     0.208 HD
BRANCH  13  15
HETATM   15  N1  UNL     1       6.232  74.053  50.230  1.00  0.00    -0.253 N 
HETATM   16  C3  UNL     1       6.717  73.070  49.355  1.00  0.00     0.265 C 
HETATM   17  O2  UNL     1       7.800  72.501  49.585  1.00  0.00    -0.269 OA
ATOM     18  H1  UNL     1       5.342  74.501  50.012  1.00  0.00     0.191 HD
BRANCH  16  19
HETATM   19  C2  UNL     1       5.970  72.666  48.129  1.00  0.00     0.207 C 
HETATM   20  C1  UNL     1       6.925  72.122  47.083  1.00  0.00     0.049 C 
BRANCH  19  21
HETATM   21  O1  UNL     1       5.368  73.810  47.612  1.00  0.00    -0.386 OA
ATOM     22  H1  UNL     1       6.034  74.482  47.529  1.00  0.00     0.210 HD
ENDBRANCH  19  21
ENDBRANCH  16  19
ENDBRANCH  13  15
ENDBRANCH  11  13
ENDBRANCH   8  11
BRANCH   9  23
HETATM   23  N16 UNL     1       9.156  71.608  52.380  1.00  0.00    -0.335 N 
ATOM     24 2H16 UNL     1       8.210  71.410  52.056  1.00  0.00     0.177 HD
ATOM     25 1H16 UNL     1       9.919  70.952  52.217  1.00  0.00     0.177 HD
ENDBRANCH   9  23
BRANCH  10  26
HETATM   26  N14 UNL     1      11.368  71.945  53.875  1.00  0.00    -0.384 N 
ATOM     27 2H14 UNL     1      12.264  72.064  54.345  1.00  0.00     0.157 HD
ATOM     28 1H14 UNL     1      11.119  71.048  53.458  1.00  0.00     0.157 HD
ENDBRANCH  10  26
ENDBRANCH   4   5
ENDBRANCH   3   4
ENDBRANCH   1   3
BRANCH   1  29
HETATM   29  C10 UNL     1      15.186  74.489  53.974  1.00  0.00     0.707 A 
HETATM   30  N5  UNL     1      14.732  74.570  52.679  1.00  0.00    -0.018 N 
HETATM   31  C11 UNL     1      15.474  74.195  51.627  1.00  0.00     0.746 A 
ATOM     32  H5  UNL     1      13.792  74.930  52.511  1.00  0.00     0.203 HD
HETATM   33  N11 UNL     1      16.707  73.724  51.882  1.00  0.00    -0.019 N 
HETATM   34  C18 UNL     1      17.200  73.624  53.130  1.00  0.00     0.705 A 
ATOM     35  H11 UNL     1      17.291  73.431  51.098  1.00  0.00     0.203 HD
HETATM   36  N13 UNL     1      16.423  74.013  54.178  1.00  0.00    -0.022 N 
ATOM     37  H13 UNL     1      16.786  73.941  55.128  1.00  0.00     0.203 HD
BRANCH  31  38
HETATM   38  N6  UNL     1      14.983  74.288  50.291  1.00  0.00    -0.002 N 
HETATM   39  N7  UNL     1      15.701  74.569  49.195  1.00  0.00     0.018 NA
HETATM   40  N8  UNL     1      14.912  74.570  48.134  1.00  0.00    -0.264 N 
HETATM   41  C12 UNL     1      13.659  74.287  48.528  1.00  0.00     0.162 A 
ATOM     42  H8  UNL     1      15.206  74.755  47.174  1.00  0.00     0.186 HD
HETATM   43  N10 UNL     1      13.746  74.122  49.855  1.00  0.00    -0.248 N 
ATOM     44  H10 UNL     1      12.953  73.896  50.456  1.00  0.00     0.191 HD
BRANCH  41  45
HETATM   45  C13 UNL     1      12.493  74.195  47.658  1.00  0.00     0.079 A 
HETATM   46  C14 UNL     1      11.343  73.535  48.039  1.00  0.00     0.033 A 
HETATM   47  C15 UNL     1      10.236  73.445  47.220  1.00  0.00     0.004 A 
HETATM   48  C16 UNL     1      10.262  74.033  45.966  1.00  0.00     0.017 A 
HETATM   49  C17 UNL     1      11.425  74.687  45.609  1.00  0.00     0.088 A 
HETATM   50  N9  UNL     1      12.499  74.759  46.439  1.00  0.00    -0.363 N 
ATOM     51  H9  UNL     1      13.334  75.255  46.126  1.00  0.00     0.165 HD
ENDBRANCH  41  45
ENDBRANCH  31  38
BRANCH  34  52
HETATM   52  N12 UNL     1      18.380  73.175  53.396  1.00  0.00    -0.234 N 
ATOM     53 2H12 UNL     1      19.168  73.603  52.911  1.00  0.00     0.174 HD
ATOM     54 1H12 UNL     1      18.559  72.423  54.061  1.00  0.00     0.174 HD
ENDBRANCH  34  52
ENDBRANCH   1  29
TORSDOF 14
ENDMDL
MODEL 3
REMARK VINA RESULT: -8.869561814      1.610      2.033
REMARK  14 active torsions:
REMARK  status: ('A' for Active; 'I' for Inactive)
REMARK    1  A    between atoms: C2_2  and  O1_3 
REMARK    2  A    between atoms: C2_2  and  C3_5 
REMARK       I    between atoms: C3_5  and  N1_7 
REMARK    3  A    between atoms: N1_7  and  N2_9 
REMARK    4  A    between atoms: N2_9  and  N3_11 
REMARK    5  A    between atoms: N3_11  and  C4_13 
REMARK    6  A    between atoms: C7_16  and  C8_17 
REMARK    7  A    between atoms: C8_17  and  C9_18 
REMARK    8  A    between atoms: C9_18  and  N4_19 
REMARK    9  A    between atoms: N4_19  and  C10_21 
REMARK   10  A    between atoms: C11_24  and  N6_25 
REMARK   11  A    between atoms: C12_29  and  C13_30 
REMARK   12  A    between atoms: C18_41  and  N12_42 
REMARK   13  A    between atoms: C19_47  and  N14_48 
REMARK   14  A    between atoms: N15_51  and  N16_52 
ROOT
HETATM    1  N4  UNL     1      14.441  74.946  54.868  1.00  0.00    -0.225 N 
ATOM      2  H4  UNL     1      14.794  75.095  55.813  1.00  0.00     0.177 HD
ENDROOT
BRANCH   1   3
HETATM    3  C9  UNL     1      13.059  75.212  54.578  1.00  0.00     0.142 C 
BRANCH   3   4
HETATM    4  C8  UNL     1      12.147  74.059  55.006  1.00  0.00     0.062 C 
BRANCH   4   5
HETATM    5  C7  UNL     1      11.291  73.635  53.859  1.00  0.00    -0.011 A 
HETATM    6  C6  UNL     1      11.408  74.280  52.625  1.00  0.00     0.015 A 
HETATM    7  C5  UNL     1      10.628  73.895  51.558  1.00  0.00     0.052 A 
HETATM    8  C4  UNL     1       9.728  72.848  51.760  1.00  0.00     0.144 A 
HETATM    9  N15 UNL     1       9.627  72.238  52.951  1.00  0.00    -0.229 N 
HETATM   10  C19 UNL     1      10.388  72.614  53.993  1.00  0.00     0.128 A 
BRANCH   8  11
HETATM   11  N3  UNL     1       8.894  72.395  50.707  1.00  0.00    -0.269 N 
ATOM     12  H3  UNL     1       9.062  71.458  50.343  1.00  0.00     0.190 HD
BRANCH  11  13
HETATM   13  N2  UNL     1       7.970  73.057  50.192  1.00  0.00    -0.238 N 
ATOM     14  H2  UNL     1       8.200  73.892  49.653  1.00  0.00     0.208 HD
BRANCH  13  15
HETATM   15  N1  UNL     1       6.653  72.693  50.330  1.00  0.00    -0.253 N 
HETATM   16  C3  UNL     1       5.929  72.873  51.517  1.00  0.00     0.265 C 
HETATM   17  O2  UNL     1       6.472  73.382  52.516  1.00  0.00    -0.269 OA
ATOM     18  H1  UNL     1       6.179  72.272  49.531  1.00  0.00     0.191 HD
BRANCH  16  19
HETATM   19  C2  UNL     1       4.498  72.469  51.639  1.00  0.00     0.207 C 
HETATM   20  C1  UNL     1       3.762  73.405  52.579  1.00  0.00     0.049 C 
BRANCH  19  21
HETATM   21  O1  UNL     1       4.471  71.191  52.191  1.00  0.00    -0.386 OA
ATOM     22  H1  UNL     1       4.187  70.585  51.517  1.00  0.00     0.210 HD
ENDBRANCH  19  21
ENDBRANCH  16  19
ENDBRANCH  13  15
ENDBRANCH  11  13
ENDBRANCH   8  11
BRANCH   9  23
HETATM   23  N16 UNL     1       8.725  71.199  53.121  1.00  0.00    -0.335 N 
ATOM     24 2H16 UNL     1       8.885  70.322  52.627  1.00  0.00     0.177 HD
ATOM     25 1H16 UNL     1       7.917  71.323  53.732  1.00  0.00     0.177 HD
ENDBRANCH   9  23
BRANCH  10  26
HETATM   26  N14 UNL     1      10.295  72.036  55.139  1.00  0.00    -0.384 N 
ATOM     27 2H14 UNL     1      11.112  71.645  55.608  1.00  0.00     0.157 HD
ATOM     28 1H14 UNL     1       9.374  71.977  55.573  1.00  0.00     0.157 HD
ENDBRANCH  10  26
ENDBRANCH   4   5
ENDBRANCH   3   4
ENDBRANCH   1   3
BRANCH   1  29
HETATM   29  C10 UNL     1      15.236  74.524  53.953  1.00  0.00     0.707 A 
HETATM   30  N5  UNL     1      14.774  74.600  52.661  1.00  0.00    -0.018 N 
HETATM   31  C11 UNL     1      15.500  74.197  51.608  1.00  0.00     0.746 A 
ATOM     32  H5  UNL     1      13.841  74.978  52.495  1.00  0.00     0.203 HD
HETATM   33  N11 UNL     1      16.724  73.702  51.859  1.00  0.00    -0.019 N 
HETATM   34  C18 UNL     1      17.224  73.605  53.105  1.00  0.00     0.705 A 
ATOM     35  H11 UNL     1      17.296  73.387  51.075  1.00  0.00     0.203 HD
HETATM   36  N13 UNL     1      16.463  74.023  54.154  1.00  0.00    -0.022 N 
ATOM     37  H13 UNL     1      16.832  73.954  55.102  1.00  0.00     0.203 HD
BRANCH  31  38
HETATM   38  N6  UNL     1      15.002  74.286  50.275  1.00  0.00    -0.002 N 
HETATM   39  N7  UNL     1      15.714  74.556  49.173  1.00  0.00     0.018 NA
HETATM   40  N8  UNL     1      14.919  74.556  48.116  1.00  0.00    -0.264 N 
HETATM   41  C12 UNL     1      13.667  74.283  48.520  1.00  0.00     0.162 A 
ATOM     42  H8  UNL     1      15.208  74.733  47.154  1.00  0.00     0.186 HD
HETATM   43  N10 UNL     1      13.761  74.125  49.847  1.00  0.00    -0.248 N 
ATOM     44  H10 UNL     1      12.970  73.907  50.454  1.00  0.00     0.191 HD
BRANCH  41  45
HETATM   45  C13 UNL     1      12.494  74.193  47.658  1.00  0.00     0.079 A 
HETATM   46  C14 UNL     1      11.349  73.527  48.042  1.00  0.00     0.033 A 
HETATM   47  C15 UNL     1      10.237  73.439  47.230  1.00  0.00     0.004 A 
HETATM   48  C16 UNL     1      10.252  74.036  45.980  1.00  0.00     0.017 A 
HETATM   49  C17 UNL     1      11.410  74.696  45.620  1.00  0.00     0.088 A 
HETATM   50  N9  UNL     1      12.490  74.765  46.442  1.00  0.00    -0.363 N 
ATOM     51  H9  UNL     1      13.321  75.266  46.127  1.00  0.00     0.165 HD
ENDBRANCH  41  45
ENDBRANCH  31  38
BRANCH  34  52
HETATM   52  N12 UNL     1      18.396  73.134  53.368  1.00  0.00    -0.234 N 
ATOM     53 2H12 UNL     1      18.449  72.197  53.767  1.00  0.00     0.174 HD
ATOM     54 1H12 UNL     1      19.260  73.648  53.198  1.00  0.00     0.174 HD
ENDBRANCH  34  52
ENDBRANCH   1  29
TORSDOF 14
ENDMDL
MODEL 4
REMARK VINA RESULT: -8.668480349      1.342      1.574
REMARK  14 active torsions:
REMARK  status: ('A' for Active; 'I' for Inactive)
REMARK    1  A    between atoms: C2_2  and  O1_3 
REMARK    2  A    between atoms: C2_2  and  C3_5 
REMARK       I    between atoms: C3_5  and  N1_7 
REMARK    3  A    between atoms: N1_7  and  N2_9 
REMARK    4  A    between atoms: N2_9  and  N3_11 
REMARK    5  A    between atoms: N3_11  and  C4_13 
REMARK    6  A    between atoms: C7_16  and  C8_17 
REMARK    7  A    between atoms: C8_17  and  C9_18 
REMARK    8  A    between atoms: C9_18  and  N4_19 
REMARK    9  A    between atoms: N4_19  and  C10_21 
REMARK   10  A    between atoms: C11_24  and  N6_25 
REMARK   11  A    between atoms: C12_29  and  C13_30 
REMARK   12  A    between atoms: C18_41  and  N12_42 
REMARK   13  A    between atoms: C19_47  and  N14_48 
REMARK   14  A    between atoms: N15_51  and  N16_52 
ROOT
HETATM    1  N4  UNL     1      14.558  74.666  55.014  1.00  0.00    -0.225 N 
ATOM      2  H4  UNL     1      14.776  74.354  55.961  1.00  0.00     0.177 HD
ENDROOT
BRANCH   1   3
HETATM    3  C9  UNL     1      13.367  75.433  54.777  1.00  0.00     0.142 C 
BRANCH   3   4
HETATM    4  C8  UNL     1      12.115  74.741  55.321  1.00  0.00     0.062 C 
BRANCH   4   5
HETATM    5  C7  UNL     1      11.222  74.345  54.192  1.00  0.00    -0.011 A 
HETATM    6  C6  UNL     1      11.479  73.175  53.475  1.00  0.00     0.015 A 
HETATM    7  C5  UNL     1      10.659  72.797  52.435  1.00  0.00     0.052 A 
HETATM    8  C4  UNL     1       9.577  73.623  52.133  1.00  0.00     0.144 A 
HETATM    9  N15 UNL     1       9.343  74.746  52.831  1.00  0.00    -0.229 N 
HETATM   10  C19 UNL     1      10.143  75.115  53.845  1.00  0.00     0.128 A 
BRANCH   8  11
HETATM   11  N3  UNL     1       8.689  73.298  51.077  1.00  0.00    -0.269 N 
ATOM     12  H3  UNL     1       8.730  73.870  50.234  1.00  0.00     0.190 HD
BRANCH  11  13
HETATM   13  N2  UNL     1       7.860  72.366  51.102  1.00  0.00    -0.238 N 
ATOM     14  H2  UNL     1       7.970  71.622  51.791  1.00  0.00     0.208 HD
BRANCH  13  15
HETATM   15  N1  UNL     1       6.802  72.313  50.227  1.00  0.00    -0.253 N 
HETATM   16  C3  UNL     1       6.066  73.444  49.845  1.00  0.00     0.265 C 
HETATM   17  O2  UNL     1       6.356  74.567  50.300  1.00  0.00    -0.269 OA
ATOM     18  H1  UNL     1       6.539  71.408  49.837  1.00  0.00     0.191 HD
BRANCH  16  19
HETATM   19  C2  UNL     1       4.922  73.358  48.892  1.00  0.00     0.207 C 
HETATM   20  C1  UNL     1       5.405  72.909  47.526  1.00  0.00     0.049 C 
BRANCH  19  21
HETATM   21  O1  UNL     1       4.389  74.637  48.764  1.00  0.00    -0.386 OA
ATOM     22  H1  UNL     1       5.093  75.264  48.885  1.00  0.00     0.210 HD
ENDBRANCH  19  21
ENDBRANCH  16  19
ENDBRANCH  13  15
ENDBRANCH  11  13
ENDBRANCH   8  11
BRANCH   9  23
HETATM   23  N16 UNL     1       8.258  75.546  52.508  1.00  0.00    -0.335 N 
ATOM     24 2H16 UNL     1       8.173  75.901  51.556  1.00  0.00     0.177 HD
ATOM     25 1H16 UNL     1       7.563  75.771  53.220  1.00  0.00     0.177 HD
ENDBRANCH   9  23
BRANCH  10  26
HETATM   26  N14 UNL     1       9.926  76.191  54.518  1.00  0.00    -0.384 N 
ATOM     27 2H14 UNL     1      10.392  76.367  55.407  1.00  0.00     0.157 HD
ATOM     28 1H14 UNL     1       9.269  76.871  54.135  1.00  0.00     0.157 HD
ENDBRANCH  10  26
ENDBRANCH   4   5
ENDBRANCH   3   4
ENDBRANCH   1   3
BRANCH   1  29
HETATM   29  C10 UNL     1      15.352  74.368  54.051  1.00  0.00     0.707 A 
HETATM   30  N5  UNL     1      14.833  74.463  52.781  1.00  0.00    -0.018 N 
HETATM   31  C11 UNL     1      15.551  74.184  51.684  1.00  0.00     0.746 A 
ATOM     32  H5  UNL     1      13.863  74.757  52.669  1.00  0.00     0.203 HD
HETATM   33  N11 UNL     1      16.826  73.797  51.865  1.00  0.00    -0.019 N 
HETATM   34  C18 UNL     1      17.382  73.688  53.085  1.00  0.00     0.705 A 
ATOM     35  H11 UNL     1      17.392  73.578  51.045  1.00  0.00     0.203 HD
HETATM   36  N13 UNL     1      16.628  73.978  54.181  1.00  0.00    -0.022 N 
ATOM     37  H13 UNL     1      17.039  73.898  55.111  1.00  0.00     0.203 HD
BRANCH  31  38
HETATM   38  N6  UNL     1      14.993  74.290  50.375  1.00  0.00    -0.002 N 
HETATM   39  N7  UNL     1      15.639  74.654  49.260  1.00  0.00     0.018 NA
HETATM   40  N8  UNL     1      14.803  74.640  48.235  1.00  0.00    -0.264 N 
HETATM   41  C12 UNL     1      13.591  74.263  48.674  1.00  0.00     0.162 A 
ATOM     42  H8  UNL     1      15.040  74.876  47.271  1.00  0.00     0.186 HD
HETATM   43  N10 UNL     1      13.750  74.059  49.989  1.00  0.00    -0.248 N 
ATOM     44  H10 UNL     1      13.003  73.761  50.616  1.00  0.00     0.191 HD
BRANCH  41  45
HETATM   45  C13 UNL     1      12.393  74.124  47.854  1.00  0.00     0.079 A 
HETATM   46  C14 UNL     1      11.278  73.440  48.293  1.00  0.00     0.033 A 
HETATM   47  C15 UNL     1      10.142  73.306  47.521  1.00  0.00     0.004 A 
HETATM   48  C16 UNL     1      10.101  73.872  46.258  1.00  0.00     0.017 A 
HETATM   49  C17 UNL     1      11.230  74.552  45.843  1.00  0.00     0.088 A 
HETATM   50  N9  UNL     1      12.334  74.666  46.626  1.00  0.00    -0.363 N 
ATOM     51  H9  UNL     1      13.142  75.179  46.272  1.00  0.00     0.165 HD
ENDBRANCH  41  45
ENDBRANCH  31  38
BRANCH  34  52
HETATM   52  N12 UNL     1      18.603  73.319  53.281  1.00  0.00    -0.234 N 
ATOM     53 2H12 UNL     1      19.189  73.172  52.460  1.00  0.00     0.174 HD
ATOM     54 1H12 UNL     1      19.004  73.170  54.207  1.00  0.00     0.174 HD
ENDBRANCH  34  52
ENDBRANCH   1  29
TORSDOF 14
ENDMDL
MODEL 5
REMARK VINA RESULT: -8.562889287      3.094      8.782
REMARK  14 active torsions:
REMARK  status: ('A' for Active; 'I' for Inactive)
REMARK    1  A    between atoms: C2_2  and  O1_3 
REMARK    2  A    between atoms: C2_2  and  C3_5 
REMARK       I    between atoms: C3_5  and  N1_7 
REMARK    3  A    between atoms: N1_7  and  N2_9 
REMARK    4  A    between atoms: N2_9  and  N3_11 
REMARK    5  A    between atoms: N3_11  and  C4_13 
REMARK    6  A    between atoms: C7_16  and  C8_17 
REMARK    7  A    between atoms: C8_17  and  C9_18 
REMARK    8  A    between atoms: C9_18  and  N4_19 
REMARK    9  A    between atoms: N4_19  and  C10_21 
REMARK   10  A    between atoms: C11_24  and  N6_25 
REMARK   11  A    between atoms: C12_29  and  C13_30 
REMARK   12  A    between atoms: C18_41  and  N12_42 
REMARK   13  A    between atoms: C19_47  and  N14_48 
REMARK   14  A    between atoms: N15_51  and  N16_52 
ROOT
HETATM    1  N4  UNL     1       5.737  72.374  49.390  1.00  0.00    -0.225 N 
ATOM      2  H4  UNL     1       4.924  71.930  48.961  1.00  0.00     0.177 HD
ENDROOT
BRANCH   1   3
HETATM    3  C9  UNL     1       6.603  73.194  48.589  1.00  0.00     0.142 C 
BRANCH   3   4
HETATM    4  C8  UNL     1       7.378  72.375  47.554  1.00  0.00     0.062 C 
BRANCH   4   5
HETATM    5  C7  UNL     1       8.770  72.900  47.430  1.00  0.00    -0.011 A 
HETATM    6  C6  UNL     1       9.713  72.622  48.422  1.00  0.00     0.015 A 
HETATM    7  C5  UNL     1      11.001  73.096  48.317  1.00  0.00     0.052 A 
HETATM    8  C4  UNL     1      11.319  73.857  47.192  1.00  0.00     0.144 A 
HETATM    9  N15 UNL     1      10.402  74.117  46.246  1.00  0.00    -0.229 N 
HETATM   10  C19 UNL     1       9.145  73.654  46.349  1.00  0.00     0.128 A 
BRANCH   8  11
HETATM   11  N3  UNL     1      12.625  74.377  47.014  1.00  0.00    -0.269 N 
ATOM     12  H3  UNL     1      13.053  74.272  46.094  1.00  0.00     0.190 HD
BRANCH  11  13
HETATM   13  N2  UNL     1      13.292  74.953  47.897  1.00  0.00    -0.238 N 
ATOM     14  H2  UNL     1      12.938  75.822  48.298  1.00  0.00     0.208 HD
BRANCH  13  15
HETATM   15  N1  UNL     1      14.489  74.450  48.346  1.00  0.00    -0.253 N 
HETATM   16  C3  UNL     1      14.840  74.404  49.703  1.00  0.00     0.265 C 
HETATM   17  O2  UNL     1      14.055  74.830  50.572  1.00  0.00    -0.269 OA
ATOM     18  H1  UNL     1      15.154  74.094  47.660  1.00  0.00     0.191 HD
BRANCH  16  19
HETATM   19  C2  UNL     1      16.147  73.851  50.163  1.00  0.00     0.207 C 
HETATM   20  C1  UNL     1      16.281  73.993  51.667  1.00  0.00     0.049 C 
BRANCH  19  21
HETATM   21  O1  UNL     1      17.152  74.606  49.565  1.00  0.00    -0.386 OA
ATOM     22  H1  UNL     1      17.448  74.142  48.791  1.00  0.00     0.210 HD
ENDBRANCH  19  21
ENDBRANCH  16  19
ENDBRANCH  13  15
ENDBRANCH  11  13
ENDBRANCH   8  11
BRANCH   9  23
HETATM   23  N16 UNL     1      10.749  74.875  45.138  1.00  0.00    -0.335 N 
ATOM     24 2H16 UNL     1      11.473  75.586  45.235  1.00  0.00     0.177 HD
ATOM     25 1H16 UNL     1      10.279  74.715  44.247  1.00  0.00     0.177 HD
ENDBRANCH   9  23
BRANCH  10  26
HETATM   26  N14 UNL     1       8.260  73.901  45.448  1.00  0.00    -0.384 N 
ATOM     27 2H14 UNL     1       7.291  73.600  45.554  1.00  0.00     0.157 HD
ATOM     28 1H14 UNL     1       8.554  74.410  44.614  1.00  0.00     0.157 HD
ENDBRANCH  10  26
ENDBRANCH   4   5
ENDBRANCH   3   4
ENDBRANCH   1   3
BRANCH   1  29
HETATM   29  C10 UNL     1       5.971  72.193  50.639  1.00  0.00     0.707 A 
HETATM   30  N5  UNL     1       7.284  72.299  51.034  1.00  0.00    -0.018 N 
HETATM   31  C11 UNL     1       7.671  72.136  52.308  1.00  0.00     0.746 A 
ATOM     32  H5  UNL     1       7.992  72.510  50.331  1.00  0.00     0.203 HD
HETATM   33  N11 UNL     1       6.714  71.858  53.210  1.00  0.00    -0.019 N 
HETATM   34  C18 UNL     1       5.415  71.743  52.876  1.00  0.00     0.705 A 
ATOM     35  H11 UNL     1       6.983  71.728  54.185  1.00  0.00     0.203 HD
HETATM   36  N13 UNL     1       5.053  71.914  51.575  1.00  0.00    -0.022 N 
ATOM     37  H13 UNL     1       4.072  71.829  51.310  1.00  0.00     0.203 HD
BRANCH  31  38
HETATM   38  N6  UNL     1       9.038  72.252  52.697  1.00  0.00    -0.002 N 
HETATM   39  N7  UNL     1      10.079  71.609  52.152  1.00  0.00     0.018 NA
HETATM   40  N8  UNL     1      11.195  71.963  52.769  1.00  0.00    -0.264 N 
HETATM   41  C12 UNL     1      10.891  72.849  53.732  1.00  0.00     0.162 A 
ATOM     42  H8  UNL     1      12.130  71.621  52.549  1.00  0.00     0.186 HD
HETATM   43  N10 UNL     1       9.562  72.998  53.655  1.00  0.00    -0.248 N 
ATOM     44  H10 UNL     1       9.019  73.612  54.262  1.00  0.00     0.191 HD
BRANCH  41  45
HETATM   45  C13 UNL     1      11.841  73.480  54.640  1.00  0.00     0.079 A 
HETATM   46  C14 UNL     1      11.448  74.392  55.597  1.00  0.00     0.033 A 
HETATM   47  C15 UNL     1      12.344  74.992  56.459  1.00  0.00     0.004 A 
HETATM   48  C16 UNL     1      13.691  74.679  56.374  1.00  0.00     0.017 A 
HETATM   49  C17 UNL     1      14.058  73.763  55.408  1.00  0.00     0.088 A 
HETATM   50  N9  UNL     1      13.152  73.190  54.573  1.00  0.00    -0.363 N 
ATOM     51  H9  UNL     1      13.475  72.519  53.876  1.00  0.00     0.165 HD
ENDBRANCH  41  45
ENDBRANCH  31  38
BRANCH  34  52
HETATM   52  N12 UNL     1       4.482  71.477  53.726  1.00  0.00    -0.234 N 
ATOM     53 2H12 UNL     1       4.633  70.696  54.363  1.00  0.00     0.174 HD
ATOM     54 1H12 UNL     1       3.611  72.004  53.789  1.00  0.00     0.174 HD
ENDBRANCH  34  52
ENDBRANCH   1  29
TORSDOF 14
ENDMDL
