MODEL 1
REMARK VINA RESULT: -10.006172501      0.000      0.000
REMARK  9 active torsions:
REMARK  status: ('A' for Active; 'I' for Inactive)
REMARK    1  A    between atoms: N1_2  and  C2_3 
REMARK    2  A    between atoms: N1_2  and  C17_29 
REMARK    3  A    between atoms: C2_3  and  C3_4 
REMARK    4  A    between atoms: N2_6  and  C5_7 
REMARK    5  A    between atoms: C5_7  and  C6_8 
REMARK    6  A    between atoms: C9_11  and  C10_12 
REMARK    7  A    between atoms: C10_12  and  N3_13 
REMARK    8  A    between atoms: N3_13  and  C11_15 
REMARK    9  A    between atoms: C21_39  and  N12_40 
ROOT
HETATM    1  C3  UNL     1       6.300  72.914  46.995  1.00  0.00     0.062 A 
HETATM    2  C4  UNL     1       7.660  72.700  46.896  1.00  0.00     0.140 A 
HETATM    3  N2  UNL     1       8.118  73.537  45.956  1.00  0.00    -0.283 N 
HETATM    4  N7  UNL     1       7.078  74.218  45.518  1.00  0.00    -0.240 N 
ATOM      5  H7  UNL     1       7.127  74.934  44.794  1.00  0.00     0.208 HD
HETATM    6  N8  UNL     1       5.978  73.862  46.125  1.00  0.00    -0.287 N 
ATOM      7  H8  UNL     1       5.046  74.241  45.960  1.00  0.00     0.188 HD
ENDROOT
BRANCH   1   8
HETATM    8  C2  UNL     1       5.382  72.199  47.924  1.00  0.00     0.200 C 
BRANCH   8   9
HETATM    9  N1  UNL     1       5.236  73.017  49.110  1.00  0.00    -0.216 N 
HETATM   10  C1  UNL     1       4.428  74.219  48.991  1.00  0.00     0.169 C 
BRANCH   9  11
HETATM   11  C17 UNL     1       5.861  72.636  50.319  1.00  0.00     0.683 A 
HETATM   12  N9  UNL     1       5.085  72.233  51.365  1.00  0.00    -0.178 N 
HETATM   13  C18 UNL     1       5.676  71.861  52.541  1.00  0.00     0.151 A 
ATOM     14  H9  UNL     1       4.070  72.210  51.272  1.00  0.00     0.185 HD
HETATM   15  N10 UNL     1       4.856  71.442  53.626  1.00  0.00    -0.081 NA
HETATM   16  C19 UNL     1       7.047  71.891  52.670  1.00  0.00     0.119 A 
HETATM   17  C20 UNL     1       7.651  71.520  53.844  1.00  0.00     0.277 A 
HETATM   18  C22 UNL     1       7.799  72.303  51.594  1.00  0.00     0.155 A 
HETATM   19  O1  UNL     1       6.982  71.137  54.850  1.00  0.00    -0.267 OA
HETATM   20  N11 UNL     1       9.007  71.574  53.899  1.00  0.00    -0.155 N 
HETATM   21  C21 UNL     1       9.758  71.974  52.857  1.00  0.00     0.680 A 
ATOM     22  H11 UNL     1       9.473  71.301  54.764  1.00  0.00     0.187 HD
HETATM   23  N13 UNL     1       9.136  72.334  51.713  1.00  0.00    -0.175 N 
ATOM     24  H13 UNL     1       9.698  72.639  50.918  1.00  0.00     0.186 HD
HETATM   25  N14 UNL     1       7.204  72.673  50.423  1.00  0.00    -0.175 N 
ATOM     26  H14 UNL     1       7.771  72.976  49.632  1.00  0.00     0.186 HD
BRANCH  21  27
HETATM   27  N12 UNL     1      11.045  72.036  52.880  1.00  0.00    -0.234 N 
ATOM     28 2H12 UNL     1      11.483  72.864  52.479  1.00  0.00     0.174 HD
ATOM     29 1H12 UNL     1      11.643  71.310  53.275  1.00  0.00     0.174 HD
ENDBRANCH  21  27
ENDBRANCH   9  11
ENDBRANCH   8   9
ENDBRANCH   1   8
BRANCH   3  30
HETATM   30  C5  UNL     1       9.490  73.654  45.517  1.00  0.00     0.188 C 
BRANCH  30  31
HETATM   31  C6  UNL     1      10.424  73.669  46.697  1.00  0.00    -0.038 A 
HETATM   32  C7  UNL     1      11.681  74.228  46.595  1.00  0.00     0.009 A 
HETATM   33  C8  UNL     1      12.539  74.239  47.675  1.00  0.00     0.009 A 
HETATM   34  C9  UNL     1      12.191  73.697  48.897  1.00  0.00    -0.041 A 
HETATM   35  C15 UNL     1      10.935  73.140  48.998  1.00  0.00     0.009 A 
HETATM   36  C16 UNL     1      10.074  73.128  47.915  1.00  0.00     0.009 A 
BRANCH  34  37
HETATM   37  C10 UNL     1      13.153  73.727  50.042  1.00  0.00     0.159 C 
BRANCH  37  38
HETATM   38  N3  UNL     1      12.957  74.872  50.874  1.00  0.00    -0.373 N 
ATOM     39  H3  UNL     1      12.315  75.588  50.535  1.00  0.00     0.161 HD
BRANCH  38  40
HETATM   40  C11 UNL     1      13.574  75.102  52.124  1.00  0.00     0.116 C 
HETATM   41  N4  UNL     1      14.762  74.605  52.375  1.00  0.00    -0.275 N 
HETATM   42  N5  UNL     1      15.162  74.960  53.661  1.00  0.00    -0.029 NA
ATOM     43  H4  UNL     1      15.312  74.043  51.725  1.00  0.00     0.185 HD
HETATM   44  N6  UNL     1      14.393  76.081  54.025  1.00  0.00    -0.109 NA
HETATM   45  C12 UNL     1      13.165  75.825  53.323  1.00  0.00     0.100 C 
HETATM   46  C13 UNL     1      12.381  77.089  53.064  1.00  0.00     0.043 C 
HETATM   47  C14 UNL     1      12.301  74.973  54.250  1.00  0.00     0.043 C 
ENDBRANCH  38  40
ENDBRANCH  37  38
ENDBRANCH  34  37
ENDBRANCH  30  31
ENDBRANCH   3  30
TORSDOF 9
ENDMDL
MODEL 2
REMARK VINA RESULT: -9.890561064      2.427      5.532
REMARK  9 active torsions:
REMARK  status: ('A' for Active; 'I' for Inactive)
REMARK    1  A    between atoms: N1_2  and  C2_3 
REMARK    2  A    between atoms: N1_2  and  C17_29 
REMARK    3  A    between atoms: C2_3  and  C3_4 
REMARK    4  A    between atoms: N2_6  and  C5_7 
REMARK    5  A    between atoms: C5_7  and  C6_8 
REMARK    6  A    between atoms: C9_11  and  C10_12 
REMARK    7  A    between atoms: C10_12  and  N3_13 
REMARK    8  A    between atoms: N3_13  and  C11_15 
REMARK    9  A    between atoms: C21_39  and  N12_40 
ROOT
HETATM    1  C3  UNL     1       5.623  73.114  49.247  1.00  0.00     0.062 A 
HETATM    2  C4  UNL     1       5.914  73.062  50.595  1.00  0.00     0.140 A 
HETATM    3  N2  UNL     1       5.520  74.227  51.124  1.00  0.00    -0.283 N 
HETATM    4  N7  UNL     1       5.018  74.940  50.136  1.00  0.00    -0.240 N 
ATOM      5  H7  UNL     1       4.636  75.879  50.243  1.00  0.00     0.208 HD
HETATM    6  N8  UNL     1       5.069  74.294  49.002  1.00  0.00    -0.287 N 
ATOM      7  H8  UNL     1       4.744  74.634  48.097  1.00  0.00     0.188 HD
ENDROOT
BRANCH   1   8
HETATM    8  C2  UNL     1       5.889  72.026  48.267  1.00  0.00     0.200 C 
BRANCH   8   9
HETATM    9  N1  UNL     1       6.640  72.599  47.170  1.00  0.00    -0.216 N 
HETATM   10  C1  UNL     1       5.924  72.839  45.929  1.00  0.00     0.169 C 
BRANCH   9  11
HETATM   11  C17 UNL     1       8.011  72.904  47.329  1.00  0.00     0.683 A 
HETATM   12  N9  UNL     1       8.644  72.519  48.474  1.00  0.00    -0.178 N 
HETATM   13  C18 UNL     1       9.970  72.807  48.642  1.00  0.00     0.151 A 
ATOM     14  H9  UNL     1       8.132  72.019  49.200  1.00  0.00     0.185 HD
HETATM   15  N10 UNL     1      10.621  72.400  49.840  1.00  0.00    -0.081 NA
HETATM   16  C19 UNL     1      10.664  73.481  47.662  1.00  0.00     0.119 A 
HETATM   17  C20 UNL     1      11.995  73.775  47.819  1.00  0.00     0.277 A 
HETATM   18  C22 UNL     1       9.994  73.855  46.520  1.00  0.00     0.155 A 
HETATM   19  O1  UNL     1      12.637  73.444  48.860  1.00  0.00    -0.267 OA
HETATM   20  N11 UNL     1      12.615  74.442  46.812  1.00  0.00    -0.155 N 
HETATM   21  C21 UNL     1      11.976  74.815  45.689  1.00  0.00     0.680 A 
ATOM     22  H11 UNL     1      13.605  74.669  46.911  1.00  0.00     0.187 HD
HETATM   23  N13 UNL     1      10.666  74.512  45.561  1.00  0.00    -0.175 N 
ATOM     24  H13 UNL     1      10.172  74.791  44.712  1.00  0.00     0.186 HD
HETATM   25  N14 UNL     1       8.670  73.565  46.358  1.00  0.00    -0.175 N 
ATOM     26  H14 UNL     1       8.184  73.846  45.507  1.00  0.00     0.186 HD
BRANCH  21  27
HETATM   27  N12 UNL     1      12.538  75.448  44.717  1.00  0.00    -0.234 N 
ATOM     28 2H12 UNL     1      13.506  75.212  44.499  1.00  0.00     0.174 HD
ATOM     29 1H12 UNL     1      12.073  76.165  44.160  1.00  0.00     0.174 HD
ENDBRANCH  21  27
ENDBRANCH   9  11
ENDBRANCH   8   9
ENDBRANCH   1   8
BRANCH   3  30
HETATM   30  C5  UNL     1       5.637  74.614  52.512  1.00  0.00     0.188 C 
BRANCH  30  31
HETATM   31  C6  UNL     1       7.006  74.280  53.041  1.00  0.00    -0.038 A 
HETATM   32  C7  UNL     1       7.208  73.158  53.818  1.00  0.00     0.009 A 
HETATM   33  C8  UNL     1       8.461  72.853  54.307  1.00  0.00     0.009 A 
HETATM   34  C9  UNL     1       9.563  73.644  54.049  1.00  0.00    -0.041 A 
HETATM   35  C15 UNL     1       9.360  74.765  53.273  1.00  0.00     0.009 A 
HETATM   36  C16 UNL     1       8.104  75.071  52.783  1.00  0.00     0.009 A 
BRANCH  34  37
HETATM   37  C10 UNL     1      10.905  73.280  54.601  1.00  0.00     0.159 C 
BRANCH  37  38
HETATM   38  N3  UNL     1      11.869  73.073  53.566  1.00  0.00    -0.373 N 
ATOM     39  H3  UNL     1      11.978  72.122  53.216  1.00  0.00     0.161 HD
BRANCH  38  40
HETATM   40  C11 UNL     1      12.684  74.070  52.985  1.00  0.00     0.116 C 
HETATM   41  N4  UNL     1      12.563  74.362  51.711  1.00  0.00    -0.275 N 
HETATM   42  N5  UNL     1      13.463  75.367  51.367  1.00  0.00    -0.029 NA
ATOM     43  H4  UNL     1      11.907  73.918  51.068  1.00  0.00     0.185 HD
HETATM   44  N6  UNL     1      13.817  76.016  52.565  1.00  0.00    -0.109 NA
HETATM   45  C12 UNL     1      13.734  74.935  53.510  1.00  0.00     0.100 C 
HETATM   46  C13 UNL     1      13.505  75.426  54.920  1.00  0.00     0.043 C 
HETATM   47  C14 UNL     1      15.100  74.254  53.516  1.00  0.00     0.043 C 
ENDBRANCH  38  40
ENDBRANCH  37  38
ENDBRANCH  34  37
ENDBRANCH  30  31
ENDBRANCH   3  30
TORSDOF 9
ENDMDL
MODEL 3
REMARK VINA RESULT: -9.741960775      3.609      5.154
REMARK  9 active torsions:
REMARK  status: ('A' for Active; 'I' for Inactive)
REMARK    1  A    between atoms: N1_2  and  C2_3 
REMARK    2  A    between atoms: N1_2  and  C17_29 
REMARK    3  A    between atoms: C2_3  and  C3_4 
REMARK    4  A    between atoms: N2_6  and  C5_7 
REMARK    5  A    between atoms: C5_7  and  C6_8 
REMARK    6  A    between atoms: C9_11  and  C10_12 
REMARK    7  A    between atoms: C10_12  and  N3_13 
REMARK    8  A    between atoms: N3_13  and  C11_15 
REMARK    9  A    between atoms: C21_39  and  N12_40 
ROOT
HETATM    1  C3  UNL     1       5.720  73.428  49.402  1.00  0.00     0.062 A 
HETATM    2  C4  UNL     1       6.915  72.796  49.126  1.00  0.00     0.140 A 
HETATM    3  N2  UNL     1       7.080  72.841  47.797  1.00  0.00    -0.283 N 
HETATM    4  N7  UNL     1       6.031  73.471  47.307  1.00  0.00    -0.240 N 
ATOM      5  H7  UNL     1       5.885  73.654  46.315  1.00  0.00     0.208 HD
HETATM    6  N8  UNL     1       5.203  73.832  48.249  1.00  0.00    -0.287 N 
ATOM      7  H8  UNL     1       4.322  74.330  48.123  1.00  0.00     0.188 HD
ENDROOT
BRANCH   1   8
HETATM    8  C2  UNL     1       5.140  73.615  50.761  1.00  0.00     0.200 C 
BRANCH   8   9
HETATM    9  N1  UNL     1       4.254  74.759  50.706  1.00  0.00    -0.216 N 
HETATM   10  C1  UNL     1       2.830  74.503  50.835  1.00  0.00     0.169 C 
BRANCH   9  11
HETATM   11  C17 UNL     1       4.782  76.059  50.535  1.00  0.00     0.683 A 
HETATM   12  N9  UNL     1       5.810  76.465  51.333  1.00  0.00    -0.178 N 
HETATM   13  C18 UNL     1       6.331  77.719  51.179  1.00  0.00     0.151 A 
ATOM     14  H9  UNL     1       6.189  75.836  52.041  1.00  0.00     0.185 HD
HETATM   15  N10 UNL     1       7.405  78.131  52.017  1.00  0.00    -0.081 NA
HETATM   16  C19 UNL     1       5.823  78.570  50.223  1.00  0.00     0.119 A 
HETATM   17  C20 UNL     1       6.337  79.831  50.059  1.00  0.00     0.277 A 
HETATM   18  C22 UNL     1       4.785  78.129  49.436  1.00  0.00     0.155 A 
HETATM   19  O1  UNL     1       7.293  80.264  50.771  1.00  0.00    -0.267 OA
HETATM   20  N11 UNL     1       5.787  80.616  49.097  1.00  0.00    -0.155 N 
HETATM   21  C21 UNL     1       4.772  80.200  48.318  1.00  0.00     0.680 A 
ATOM     22  H11 UNL     1       6.157  81.556  48.960  1.00  0.00     0.187 HD
HETATM   23  N13 UNL     1       4.285  78.954  48.501  1.00  0.00    -0.175 N 
ATOM     24  H13 UNL     1       3.515  78.631  47.915  1.00  0.00     0.186 HD
HETATM   25  N14 UNL     1       4.269  76.875  49.594  1.00  0.00    -0.175 N 
ATOM     26  H14 UNL     1       3.500  76.558  49.003  1.00  0.00     0.186 HD
BRANCH  21  27
HETATM   27  N12 UNL     1       4.230  80.922  47.398  1.00  0.00    -0.234 N 
ATOM     28 2H12 UNL     1       4.214  80.544  46.451  1.00  0.00     0.174 HD
ATOM     29 1H12 UNL     1       3.819  81.841  47.564  1.00  0.00     0.174 HD
ENDBRANCH  21  27
ENDBRANCH   9  11
ENDBRANCH   8   9
ENDBRANCH   1   8
BRANCH   3  30
HETATM   30  C5  UNL     1       8.196  72.294  47.061  1.00  0.00     0.188 C 
BRANCH  30  31
HETATM   31  C6  UNL     1       9.500  72.769  47.644  1.00  0.00    -0.038 A 
HETATM   32  C7  UNL     1       9.821  72.509  48.960  1.00  0.00     0.009 A 
HETATM   33  C8  UNL     1      11.013  72.947  49.496  1.00  0.00     0.009 A 
HETATM   34  C9  UNL     1      11.936  73.659  48.755  1.00  0.00    -0.041 A 
HETATM   35  C15 UNL     1      11.614  73.918  47.440  1.00  0.00     0.009 A 
HETATM   36  C16 UNL     1      10.418  73.479  46.902  1.00  0.00     0.009 A 
BRANCH  34  37
HETATM   37  C10 UNL     1      13.217  74.119  49.376  1.00  0.00     0.159 C 
BRANCH  37  38
HETATM   38  N3  UNL     1      12.989  74.977  50.495  1.00  0.00    -0.373 N 
ATOM     39  H3  UNL     1      12.298  75.719  50.380  1.00  0.00     0.161 HD
BRANCH  38  40
HETATM   40  C11 UNL     1      13.635  74.890  51.749  1.00  0.00     0.116 C 
HETATM   41  N4  UNL     1      14.908  74.580  51.816  1.00  0.00    -0.275 N 
HETATM   42  N5  UNL     1      15.321  74.555  53.145  1.00  0.00    -0.029 NA
ATOM     43  H4  UNL     1      15.507  74.386  51.013  1.00  0.00     0.185 HD
HETATM   44  N6  UNL     1      14.386  75.317  53.870  1.00  0.00    -0.109 NA
HETATM   45  C12 UNL     1      13.181  75.076  53.122  1.00  0.00     0.100 C 
HETATM   46  C13 UNL     1      12.163  76.175  53.311  1.00  0.00     0.043 C 
HETATM   47  C14 UNL     1      12.552  73.812  53.703  1.00  0.00     0.043 C 
ENDBRANCH  38  40
ENDBRANCH  37  38
ENDBRANCH  34  37
ENDBRANCH  30  31
ENDBRANCH   3  30
TORSDOF 9
ENDMDL
MODEL 4
REMARK VINA RESULT: -9.670046079      2.494      5.438
REMARK  9 active torsions:
REMARK  status: ('A' for Active; 'I' for Inactive)
REMARK    1  A    between atoms: N1_2  and  C2_3 
REMARK    2  A    between atoms: N1_2  and  C17_29 
REMARK    3  A    between atoms: C2_3  and  C3_4 
REMARK    4  A    between atoms: N2_6  and  C5_7 
REMARK    5  A    between atoms: C5_7  and  C6_8 
REMARK    6  A    between atoms: C9_11  and  C10_12 
REMARK    7  A    between atoms: C10_12  and  N3_13 
REMARK    8  A    between atoms: N3_13  and  C11_15 
REMARK    9  A    between atoms: C21_39  and  N12_40 
ROOT
HETATM    1  C3  UNL     1       5.730  73.250  49.220  1.00  0.00     0.062 A 
HETATM    2  C4  UNL     1       6.204  73.500  50.492  1.00  0.00     0.140 A 
HETATM    3  N2  UNL     1       5.703  74.684  50.868  1.00  0.00    -0.283 N 
HETATM    4  N7  UNL     1       4.966  75.117  49.866  1.00  0.00    -0.240 N 
ATOM      5  H7  UNL     1       4.457  76.001  49.869  1.00  0.00     0.208 HD
HETATM    6  N8  UNL     1       4.967  74.276  48.867  1.00  0.00    -0.287 N 
ATOM      7  H8  UNL     1       4.474  74.387  47.981  1.00  0.00     0.188 HD
ENDROOT
BRANCH   1   8
HETATM    8  C2  UNL     1       6.033  72.036  48.412  1.00  0.00     0.200 C 
BRANCH   8   9
HETATM    9  N1  UNL     1       6.799  72.458  47.259  1.00  0.00    -0.216 N 
HETATM   10  C1  UNL     1       6.110  72.495  45.981  1.00  0.00     0.169 C 
BRANCH   9  11
HETATM   11  C17 UNL     1       8.159  72.815  47.401  1.00  0.00     0.683 A 
HETATM   12  N9  UNL     1       8.818  72.469  48.544  1.00  0.00    -0.178 N 
HETATM   13  C18 UNL     1      10.133  72.807  48.696  1.00  0.00     0.151 A 
ATOM     14  H9  UNL     1       8.331  71.959  49.281  1.00  0.00     0.185 HD
HETATM   15  N10 UNL     1      10.810  72.439  49.892  1.00  0.00    -0.081 NA
HETATM   16  C19 UNL     1      10.793  73.494  47.701  1.00  0.00     0.119 A 
HETATM   17  C20 UNL     1      12.113  73.839  47.841  1.00  0.00     0.277 A 
HETATM   18  C22 UNL     1      10.099  73.829  46.561  1.00  0.00     0.155 A 
HETATM   19  O1  UNL     1      12.777  73.544  48.880  1.00  0.00    -0.267 OA
HETATM   20  N11 UNL     1      12.699  74.516  46.819  1.00  0.00    -0.155 N 
HETATM   21  C21 UNL     1      12.035  74.851  45.699  1.00  0.00     0.680 A 
ATOM     22  H11 UNL     1      13.680  74.780  46.906  1.00  0.00     0.187 HD
HETATM   23  N13 UNL     1      10.736  74.499  45.587  1.00  0.00    -0.175 N 
ATOM     24  H13 UNL     1      10.225  74.749  44.740  1.00  0.00     0.186 HD
HETATM   25  N14 UNL     1       8.785  73.488  46.416  1.00  0.00    -0.175 N 
ATOM     26  H14 UNL     1       8.280  73.740  45.566  1.00  0.00     0.186 HD
BRANCH  21  27
HETATM   27  N12 UNL     1      12.565  75.492  44.714  1.00  0.00    -0.234 N 
ATOM     28 2H12 UNL     1      13.514  75.844  44.837  1.00  0.00     0.174 HD
ATOM     29 1H12 UNL     1      12.091  75.666  43.828  1.00  0.00     0.174 HD
ENDBRANCH  21  27
ENDBRANCH   9  11
ENDBRANCH   8   9
ENDBRANCH   1   8
BRANCH   3  30
HETATM   30  C5  UNL     1       5.942  75.345  52.130  1.00  0.00     0.188 C 
BRANCH  30  31
HETATM   31  C6  UNL     1       7.156  74.769  52.809  1.00  0.00    -0.038 A 
HETATM   32  C7  UNL     1       8.405  75.320  52.609  1.00  0.00     0.009 A 
HETATM   33  C8  UNL     1       9.517  74.790  53.227  1.00  0.00     0.009 A 
HETATM   34  C9  UNL     1       9.442  73.697  54.067  1.00  0.00    -0.041 A 
HETATM   35  C15 UNL     1       8.194  73.148  54.268  1.00  0.00     0.009 A 
HETATM   36  C16 UNL     1       7.077  73.679  53.647  1.00  0.00     0.009 A 
BRANCH  34  37
HETATM   37  C10 UNL     1      10.674  73.151  54.717  1.00  0.00     0.159 C 
BRANCH  37  38
HETATM   38  N3  UNL     1      11.761  73.047  53.794  1.00  0.00    -0.373 N 
ATOM     39  H3  UNL     1      11.660  72.378  53.031  1.00  0.00     0.161 HD
BRANCH  38  40
HETATM   40  C11 UNL     1      12.963  73.787  53.846  1.00  0.00     0.116 C 
HETATM   41  N4  UNL     1      13.982  73.344  54.544  1.00  0.00    -0.275 N 
HETATM   42  N5  UNL     1      15.048  74.235  54.446  1.00  0.00    -0.029 NA
ATOM     43  H4  UNL     1      13.993  72.476  55.079  1.00  0.00     0.185 HD
HETATM   44  N6  UNL     1      14.821  75.006  53.290  1.00  0.00    -0.109 NA
HETATM   45  C12 UNL     1      13.383  75.053  53.256  1.00  0.00     0.100 C 
HETATM   46  C13 UNL     1      12.854  75.311  51.865  1.00  0.00     0.043 C 
HETATM   47  C14 UNL     1      12.966  76.255  54.098  1.00  0.00     0.043 C 
ENDBRANCH  38  40
ENDBRANCH  37  38
ENDBRANCH  34  37
ENDBRANCH  30  31
ENDBRANCH   3  30
TORSDOF 9
ENDMDL
MODEL 5
REMARK VINA RESULT: -9.597018600      2.579      5.327
REMARK  9 active torsions:
REMARK  status: ('A' for Active; 'I' for Inactive)
REMARK    1  A    between atoms: N1_2  and  C2_3 
REMARK    2  A    between atoms: N1_2  and  C17_29 
REMARK    3  A    between atoms: C2_3  and  C3_4 
REMARK    4  A    between atoms: N2_6  and  C5_7 
REMARK    5  A    between atoms: C5_7  and  C6_8 
REMARK    6  A    between atoms: C9_11  and  C10_12 
REMARK    7  A    between atoms: C10_12  and  N3_13 
REMARK    8  A    between atoms: N3_13  and  C11_15 
REMARK    9  A    between atoms: C21_39  and  N12_40 
ROOT
HETATM    1  C3  UNL     1       5.954  73.000  49.409  1.00  0.00     0.062 A 
HETATM    2  C4  UNL     1       6.450  72.932  50.695  1.00  0.00     0.140 A 
HETATM    3  N2  UNL     1       6.189  74.110  51.275  1.00  0.00    -0.283 N 
HETATM    4  N7  UNL     1       5.567  74.845  50.375  1.00  0.00    -0.240 N 
ATOM      5  H7  UNL     1       5.244  75.798  50.538  1.00  0.00     0.208 HD
HETATM    6  N8  UNL     1       5.415  74.201  49.250  1.00  0.00    -0.287 N 
ATOM      7  H8  UNL     1       4.967  74.556  48.405  1.00  0.00     0.188 HD
ENDROOT
BRANCH   1   8
HETATM    8  C2  UNL     1       6.020  71.904  48.403  1.00  0.00     0.200 C 
BRANCH   8   9
HETATM    9  N1  UNL     1       6.777  72.396  47.271  1.00  0.00    -0.216 N 
HETATM   10  C1  UNL     1       6.081  72.494  45.999  1.00  0.00     0.169 C 
BRANCH   9  11
HETATM   11  C17 UNL     1       8.134  72.759  47.426  1.00  0.00     0.683 A 
HETATM   12  N9  UNL     1       8.785  72.408  48.571  1.00  0.00    -0.178 N 
HETATM   13  C18 UNL     1      10.098  72.752  48.736  1.00  0.00     0.151 A 
ATOM     14  H9  UNL     1       8.296  71.890  49.301  1.00  0.00     0.185 HD
HETATM   15  N10 UNL     1      10.767  72.379  49.934  1.00  0.00    -0.081 NA
HETATM   16  C19 UNL     1      10.762  73.450  47.751  1.00  0.00     0.119 A 
HETATM   17  C20 UNL     1      12.079  73.800  47.904  1.00  0.00     0.277 A 
HETATM   18  C22 UNL     1      10.074  73.788  46.608  1.00  0.00     0.155 A 
HETATM   19  O1  UNL     1      12.736  73.501  48.946  1.00  0.00    -0.267 OA
HETATM   20  N11 UNL     1      12.669  74.487  46.892  1.00  0.00    -0.155 N 
HETATM   21  C21 UNL     1      12.013  74.827  45.768  1.00  0.00     0.680 A 
ATOM     22  H11 UNL     1      13.648  74.756  46.988  1.00  0.00     0.187 HD
HETATM   23  N13 UNL     1      10.716  74.469  45.644  1.00  0.00    -0.175 N 
ATOM     24  H13 UNL     1      10.210  74.722  44.795  1.00  0.00     0.186 HD
HETATM   25  N14 UNL     1       8.764  73.442  46.450  1.00  0.00    -0.175 N 
ATOM     26  H14 UNL     1       8.264  73.698  45.598  1.00  0.00     0.186 HD
BRANCH  21  27
HETATM   27  N12 UNL     1      12.546  75.478  44.792  1.00  0.00    -0.234 N 
ATOM     28 2H12 UNL     1      13.297  75.021  44.276  1.00  0.00     0.174 HD
ATOM     29 1H12 UNL     1      12.261  76.416  44.511  1.00  0.00     0.174 HD
ENDBRANCH  21  27
ENDBRANCH   9  11
ENDBRANCH   8   9
ENDBRANCH   1   8
BRANCH   3  30
HETATM   30  C5  UNL     1       6.536  74.488  52.627  1.00  0.00     0.188 C 
BRANCH  30  31
HETATM   31  C6  UNL     1       7.938  75.034  52.681  1.00  0.00    -0.038 A 
HETATM   32  C7  UNL     1       8.164  76.394  52.733  1.00  0.00     0.009 A 
HETATM   33  C8  UNL     1       9.447  76.896  52.779  1.00  0.00     0.009 A 
HETATM   34  C9  UNL     1      10.559  76.075  52.774  1.00  0.00    -0.041 A 
HETATM   35  C15 UNL     1      10.331  74.717  52.723  1.00  0.00     0.009 A 
HETATM   36  C16 UNL     1       9.044  74.213  52.676  1.00  0.00     0.009 A 
BRANCH  34  37
HETATM   37  C10 UNL     1      11.935  76.660  52.822  1.00  0.00     0.159 C 
BRANCH  37  38
HETATM   38  N3  UNL     1      12.697  76.140  53.913  1.00  0.00    -0.373 N 
ATOM     39  H3  UNL     1      12.340  76.312  54.853  1.00  0.00     0.161 HD
BRANCH  38  40
HETATM   40  C11 UNL     1      13.902  75.409  53.806  1.00  0.00     0.116 C 
HETATM   41  N4  UNL     1      14.335  75.020  52.631  1.00  0.00    -0.275 N 
HETATM   42  N5  UNL     1      15.532  74.322  52.774  1.00  0.00    -0.029 NA
ATOM     43  H4  UNL     1      13.866  75.200  51.743  1.00  0.00     0.185 HD
HETATM   44  N6  UNL     1      16.067  74.696  54.021  1.00  0.00    -0.109 NA
HETATM   45  C12 UNL     1      14.872  74.934  54.785  1.00  0.00     0.100 C 
HETATM   46  C13 UNL     1      15.114  75.869  55.946  1.00  0.00     0.043 C 
HETATM   47  C14 UNL     1      14.472  73.594  55.397  1.00  0.00     0.043 C 
ENDBRANCH  38  40
ENDBRANCH  37  38
ENDBRANCH  34  37
ENDBRANCH  30  31
ENDBRANCH   3  30
TORSDOF 9
ENDMDL
