MODEL 1
REMARK VINA RESULT: -7.829752496      0.000      0.000
REMARK  15 active torsions:
REMARK  status: ('A' for Active; 'I' for Inactive)
REMARK    1  A    between atoms: C2_2  and  O1_3 
REMARK    2  A    between atoms: C2_2  and  C3_5 
REMARK    3  A    between atoms: C5_7  and  O2_8 
REMARK    4  A    between atoms: N1_10  and  N2_11 
REMARK    5  A    between atoms: N2_11  and  N3_13 
REMARK    6  A    between atoms: N3_13  and  C6_14 
REMARK    7  A    between atoms: C6_14  and  N4_15 
REMARK    8  A    between atoms: C6_14  and  C13_26 
REMARK    9  A    between atoms: C7_17  and  C8_18 
REMARK   10  A    between atoms: C13_26  and  N7_27 
REMARK   11  A    between atoms: C13_26  and  C14_31 
REMARK   12  A    between atoms: C14_31  and  N8_32 
REMARK   13  A    between atoms: C14_31  and  S1_36 
REMARK   14  A    between atoms: N8_32  and  N9_33 
REMARK   15  A    between atoms: S1_36  and  C15_39 
ROOT
HETATM    1  C6  UNL     1      11.013  72.711  51.737  1.00  0.00     0.236 C 
ENDROOT
BRANCH   1   2
HETATM    2  N3  UNL     1      11.341  72.099  50.462  1.00  0.00    -0.096 NA
BRANCH   2   3
HETATM    3  N2  UNL     1      11.650  73.007  49.479  1.00  0.00    -0.221 N 
ATOM      4  H2  UNL     1      12.512  73.543  49.572  1.00  0.00     0.206 HD
BRANCH   3   5
HETATM    5  N1  UNL     1      10.850  73.239  48.360  1.00  0.00    -0.165 N 
HETATM    6  C5  UNL     1      11.256  73.861  47.237  1.00  0.00     0.162 A 
HETATM    7  C4  UNL     1      10.233  73.864  46.389  1.00  0.00     0.149 A 
HETATM    8  C3  UNL     1       8.959  73.090  47.144  1.00  0.00     0.067 A 
HETATM    9  N11 UNL     1       9.681  72.965  48.036  1.00  0.00    -0.278 N 
ATOM     10  H11 UNL     1       9.214  72.475  48.798  1.00  0.00     0.189 HD
BRANCH   6  11
HETATM   11  O2  UNL     1      12.552  74.384  47.077  1.00  0.00    -0.347 OA
ATOM     12  H2  UNL     1      13.120  74.797  47.718  1.00  0.00     0.219 HD
ENDBRANCH   6  11
BRANCH   8  13
HETATM   13  C2  UNL     1       8.019  73.259  45.976  1.00  0.00     0.080 C 
HETATM   14  C1  UNL     1       6.887  72.676  45.436  1.00  0.00     0.052 C 
BRANCH  13  15
HETATM   15  O1  UNL     1       8.484  74.311  45.291  1.00  0.00    -0.359 OA
ATOM     16  H1  UNL     1       9.392  74.527  45.468  1.00  0.00     0.217 HD
ENDBRANCH  13  15
ENDBRANCH   8  13
ENDBRANCH   3   5
ENDBRANCH   2   3
ENDBRANCH   1   2
BRANCH   1  17
HETATM   17  N4  UNL     1       9.581  72.799  51.893  1.00  0.00    -0.377 N 
HETATM   18  C7  UNL     1       8.873  71.821  52.356  1.00  0.00     0.099 C 
ATOM     19  H4  UNL     1       9.110  73.664  51.628  1.00  0.00     0.160 HD
BRANCH  18  20
HETATM   20  C8  UNL     1       7.433  71.958  52.494  1.00  0.00     0.018 A 
HETATM   21  C9  UNL     1       6.770  71.747  53.713  1.00  0.00     0.102 A 
HETATM   22  N5  UNL     1       5.442  71.889  53.813  1.00  0.00    -0.374 N 
HETATM   23  C10 UNL     1       4.659  72.236  52.785  1.00  0.00     0.089 A 
ATOM     24  H5  UNL     1       5.004  71.725  54.720  1.00  0.00     0.164 HD
HETATM   25  C11 UNL     1       5.246  72.458  51.561  1.00  0.00     0.044 A 
HETATM   26  C12 UNL     1       6.622  72.315  51.442  1.00  0.00     0.060 A 
HETATM   27  N6  UNL     1       7.263  72.547  50.169  1.00  0.00    -0.101 NA
ENDBRANCH  18  20
ENDBRANCH   1  17
BRANCH   1  28
HETATM   28  C13 UNL     1      11.790  73.909  52.098  1.00  0.00     0.301 C 
BRANCH  28  29
HETATM   29  N7  UNL     1      10.951  75.111  52.175  1.00  0.00    -0.064 N 
ATOM     30  H73 UNL     1       9.968  74.886  52.019  1.00  0.00     0.275 HD
ATOM     31  H72 UNL     1      10.887  75.456  53.133  1.00  0.00     0.275 HD
ATOM     32  H71 UNL     1      11.267  75.843  51.539  1.00  0.00     0.275 HD
ENDBRANCH  28  29
BRANCH  28  33
HETATM   33  C14 UNL     1      12.375  73.772  53.491  1.00  0.00     0.240 C 
BRANCH  33  34
HETATM   34  N8  UNL     1      12.028  72.824  54.218  1.00  0.00    -0.323 NA
BRANCH  34  35
HETATM   35  N9  UNL     1      11.662  71.932  54.994  1.00  0.00    -0.279 N 
ATOM     36  H92 UNL     1      10.948  71.992  54.269  1.00  0.00     0.191 HD
ATOM     37  H91 UNL     1      11.412  71.207  55.666  1.00  0.00     0.191 HD
ENDBRANCH  34  35
ENDBRANCH  33  34
BRANCH  33  38
HETATM   38  S1  UNL     1      13.533  74.919  54.089  1.00  0.00     0.235 S 
HETATM   39  O3  UNL     1      13.032  75.729  55.228  1.00  0.00    -0.215 OA
HETATM   40  O4  UNL     1      13.802  75.944  52.972  1.00  0.00    -0.215 OA
BRANCH  38  41
HETATM   41  C15 UNL     1      15.046  74.128  54.500  1.00  0.00     0.066 A 
HETATM   42  C16 UNL     1      16.104  74.029  53.604  1.00  0.00     0.026 A 
HETATM   43  C17 UNL     1      17.284  73.408  53.946  1.00  0.00     0.028 A 
HETATM   44  C18 UNL     1      17.485  72.850  55.188  1.00  0.00     0.046 A 
HETATM   45  N10 UNL     1      18.695  72.200  55.566  1.00  0.00    -0.102 NA
HETATM   46  C19 UNL     1      16.424  72.945  56.091  1.00  0.00     0.028 A 
HETATM   47  C20 UNL     1      15.246  73.568  55.743  1.00  0.00     0.026 A 
ENDBRANCH  38  41
ENDBRANCH  33  38
ENDBRANCH  28  33
ENDBRANCH   1  28
TORSDOF 15
ENDMDL
MODEL 2
REMARK VINA RESULT: -7.783152654      1.689      2.261
REMARK  15 active torsions:
REMARK  status: ('A' for Active; 'I' for Inactive)
REMARK    1  A    between atoms: C2_2  and  O1_3 
REMARK    2  A    between atoms: C2_2  and  C3_5 
REMARK    3  A    between atoms: C5_7  and  O2_8 
REMARK    4  A    between atoms: N1_10  and  N2_11 
REMARK    5  A    between atoms: N2_11  and  N3_13 
REMARK    6  A    between atoms: N3_13  and  C6_14 
REMARK    7  A    between atoms: C6_14  and  N4_15 
REMARK    8  A    between atoms: C6_14  and  C13_26 
REMARK    9  A    between atoms: C7_17  and  C8_18 
REMARK   10  A    between atoms: C13_26  and  N7_27 
REMARK   11  A    between atoms: C13_26  and  C14_31 
REMARK   12  A    between atoms: C14_31  and  N8_32 
REMARK   13  A    between atoms: C14_31  and  S1_36 
REMARK   14  A    between atoms: N8_32  and  N9_33 
REMARK   15  A    between atoms: S1_36  and  C15_39 
ROOT
HETATM    1  C6  UNL     1      12.788  74.258  50.977  1.00  0.00     0.236 C 
ENDROOT
BRANCH   1   2
HETATM    2  N3  UNL     1      12.767  74.328  49.527  1.00  0.00    -0.096 NA
BRANCH   2   3
HETATM    3  N2  UNL     1      12.092  73.288  48.935  1.00  0.00    -0.221 N 
ATOM      4  H2  UNL     1      12.302  72.340  49.245  1.00  0.00     0.206 HD
BRANCH   3   5
HETATM    5  N1  UNL     1      11.135  73.457  47.935  1.00  0.00    -0.165 N 
HETATM    6  C5  UNL     1      11.342  74.101  46.770  1.00  0.00     0.162 A 
HETATM    7  C4  UNL     1      10.217  74.027  46.066  1.00  0.00     0.149 A 
HETATM    8  C3  UNL     1       9.113  73.170  46.982  1.00  0.00     0.067 A 
HETATM    9  N11 UNL     1       9.956  73.100  47.769  1.00  0.00    -0.278 N 
ATOM     10  H11 UNL     1       9.630  72.582  48.584  1.00  0.00     0.189 HD
BRANCH   6  11
HETATM   11  O2  UNL     1      12.565  74.713  46.441  1.00  0.00    -0.347 OA
ATOM     12  H2  UNL     1      13.089  75.325  46.944  1.00  0.00     0.219 HD
ENDBRANCH   6  11
BRANCH   8  13
HETATM   13  C2  UNL     1       8.016  73.266  45.951  1.00  0.00     0.080 C 
HETATM   14  C1  UNL     1       6.883  72.584  45.545  1.00  0.00     0.052 C 
BRANCH  13  15
HETATM   15  O1  UNL     1       8.285  74.369  45.243  1.00  0.00    -0.359 OA
ATOM     16  H1  UNL     1       8.205  74.264  44.302  1.00  0.00     0.217 HD
ENDBRANCH  13  15
ENDBRANCH   8  13
ENDBRANCH   3   5
ENDBRANCH   2   3
ENDBRANCH   1   2
BRANCH   1  17
HETATM   17  N4  UNL     1      11.483  73.898  51.477  1.00  0.00    -0.377 N 
HETATM   18  C7  UNL     1      11.307  72.946  52.333  1.00  0.00     0.099 C 
ATOM     19  H4  UNL     1      10.669  74.414  51.142  1.00  0.00     0.160 HD
BRANCH  18  20
HETATM   20  C8  UNL     1       9.972  72.620  52.806  1.00  0.00     0.018 A 
HETATM   21  C9  UNL     1       9.630  72.643  54.167  1.00  0.00     0.102 A 
HETATM   22  N5  UNL     1       8.388  72.347  54.574  1.00  0.00    -0.374 N 
HETATM   23  C10 UNL     1       7.398  72.016  53.737  1.00  0.00     0.089 A 
ATOM     24  H5  UNL     1       8.186  72.377  55.573  1.00  0.00     0.164 HD
HETATM   25  C11 UNL     1       7.668  71.975  52.389  1.00  0.00     0.044 A 
HETATM   26  C12 UNL     1       8.950  72.279  51.951  1.00  0.00     0.060 A 
HETATM   27  N6  UNL     1       9.256  72.249  50.541  1.00  0.00    -0.101 NA
ENDBRANCH  18  20
ENDBRANCH   1  17
BRANCH   1  28
HETATM   28  C13 UNL     1      13.477  75.362  51.668  1.00  0.00     0.301 C 
BRANCH  28  29
HETATM   29  N7  UNL     1      12.569  76.127  52.532  1.00  0.00    -0.064 N 
ATOM     30  H73 UNL     1      12.128  76.891  52.020  1.00  0.00     0.275 HD
ATOM     31  H72 UNL     1      11.736  75.585  52.764  1.00  0.00     0.275 HD
ATOM     32  H71 UNL     1      13.034  76.467  53.373  1.00  0.00     0.275 HD
ENDBRANCH  28  29
BRANCH  28  33
HETATM   33  C14 UNL     1      14.533  74.828  52.615  1.00  0.00     0.240 C 
BRANCH  33  34
HETATM   34  N8  UNL     1      15.542  74.259  52.161  1.00  0.00    -0.323 NA
BRANCH  34  35
HETATM   35  N9  UNL     1      16.551  73.748  51.658  1.00  0.00    -0.279 N 
ATOM     36  H92 UNL     1      15.933  73.985  50.882  1.00  0.00     0.191 HD
ATOM     37  H91 UNL     1      17.405  73.320  51.300  1.00  0.00     0.191 HD
ENDBRANCH  34  35
ENDBRANCH  33  34
BRANCH  33  38
HETATM   38  S1  UNL     1      14.362  75.003  54.335  1.00  0.00     0.235 S 
HETATM   39  O3  UNL     1      13.065  74.504  54.855  1.00  0.00    -0.215 OA
HETATM   40  O4  UNL     1      14.358  76.508  54.657  1.00  0.00    -0.215 OA
BRANCH  38  41
HETATM   41  C15 UNL     1      15.707  74.252  55.179  1.00  0.00     0.066 A 
HETATM   42  C16 UNL     1      15.684  72.923  55.586  1.00  0.00     0.026 A 
HETATM   43  C17 UNL     1      16.750  72.351  56.243  1.00  0.00     0.028 A 
HETATM   44  C18 UNL     1      17.895  73.057  56.535  1.00  0.00     0.046 A 
HETATM   45  N10 UNL     1      19.010  72.491  57.216  1.00  0.00    -0.102 NA
HETATM   46  C19 UNL     1      17.922  74.394  56.130  1.00  0.00     0.028 A 
HETATM   47  C20 UNL     1      16.852  74.960  55.472  1.00  0.00     0.026 A 
ENDBRANCH  38  41
ENDBRANCH  33  38
ENDBRANCH  28  33
ENDBRANCH   1  28
TORSDOF 15
ENDMDL
MODEL 3
REMARK VINA RESULT: -7.728469609      2.704      7.634
REMARK  15 active torsions:
REMARK  status: ('A' for Active; 'I' for Inactive)
REMARK    1  A    between atoms: C2_2  and  O1_3 
REMARK    2  A    between atoms: C2_2  and  C3_5 
REMARK    3  A    between atoms: C5_7  and  O2_8 
REMARK    4  A    between atoms: N1_10  and  N2_11 
REMARK    5  A    between atoms: N2_11  and  N3_13 
REMARK    6  A    between atoms: N3_13  and  C6_14 
REMARK    7  A    between atoms: C6_14  and  N4_15 
REMARK    8  A    between atoms: C6_14  and  C13_26 
REMARK    9  A    between atoms: C7_17  and  C8_18 
REMARK   10  A    between atoms: C13_26  and  N7_27 
REMARK   11  A    between atoms: C13_26  and  C14_31 
REMARK   12  A    between atoms: C14_31  and  N8_32 
REMARK   13  A    between atoms: C14_31  and  S1_36 
REMARK   14  A    between atoms: N8_32  and  N9_33 
REMARK   15  A    between atoms: S1_36  and  C15_39 
ROOT
HETATM    1  C6  UNL     1      11.478  73.667  53.279  1.00  0.00     0.236 C 
ENDROOT
BRANCH   1   2
HETATM    2  N3  UNL     1      11.485  74.300  51.972  1.00  0.00    -0.096 NA
BRANCH   2   3
HETATM    3  N2  UNL     1      12.672  74.153  51.295  1.00  0.00    -0.221 N 
ATOM      4  H2  UNL     1      13.523  74.019  51.840  1.00  0.00     0.206 HD
BRANCH   3   5
HETATM    5  N1  UNL     1      12.778  74.177  49.905  1.00  0.00    -0.165 N 
HETATM    6  C5  UNL     1      13.885  74.528  49.222  1.00  0.00     0.162 A 
HETATM    7  C4  UNL     1      13.616  74.397  47.928  1.00  0.00     0.149 A 
HETATM    8  C3  UNL     1      12.038  73.860  47.801  1.00  0.00     0.067 A 
HETATM    9  N11 UNL     1      12.029  73.895  48.955  1.00  0.00    -0.278 N 
ATOM     10  H11 UNL     1      11.118  73.600  49.306  1.00  0.00     0.189 HD
BRANCH   6  11
HETATM   11  O2  UNL     1      15.073  74.945  49.851  1.00  0.00    -0.347 OA
ATOM     12  H2  UNL     1      15.352  74.829  50.752  1.00  0.00     0.219 HD
ENDBRANCH   6  11
BRANCH   8  13
HETATM   13  C2  UNL     1      12.056  73.820  46.293  1.00  0.00     0.080 C 
HETATM   14  C1  UNL     1      12.868  73.401  45.255  1.00  0.00     0.052 C 
BRANCH  13  15
HETATM   15  O1  UNL     1      10.904  74.382  45.906  1.00  0.00    -0.359 OA
ATOM     16  H1  UNL     1      10.704  75.207  46.332  1.00  0.00     0.217 HD
ENDBRANCH  13  15
ENDBRANCH   8  13
ENDBRANCH   3   5
ENDBRANCH   2   3
ENDBRANCH   1   2
BRANCH   1  17
HETATM   17  N4  UNL     1      12.829  73.391  53.705  1.00  0.00    -0.377 N 
HETATM   18  C7  UNL     1      13.453  74.138  54.556  1.00  0.00     0.099 C 
ATOM     19  H4  UNL     1      13.309  72.577  53.322  1.00  0.00     0.160 HD
BRANCH  18  20
HETATM   20  C8  UNL     1      14.814  73.820  54.954  1.00  0.00     0.018 A 
HETATM   21  C9  UNL     1      15.149  73.461  56.270  1.00  0.00     0.102 A 
HETATM   22  N5  UNL     1      16.411  73.163  56.606  1.00  0.00    -0.374 N 
HETATM   23  C10 UNL     1      17.428  73.182  55.738  1.00  0.00     0.089 A 
ATOM     24  H5  UNL     1      16.606  72.907  57.574  1.00  0.00     0.164 HD
HETATM   25  C11 UNL     1      17.168  73.525  54.432  1.00  0.00     0.044 A 
HETATM   26  C12 UNL     1      15.865  73.836  54.067  1.00  0.00     0.060 A 
HETATM   27  N6  UNL     1      15.565  74.195  52.702  1.00  0.00    -0.101 NA
ENDBRANCH  18  20
ENDBRANCH   1  17
BRANCH   1  28
HETATM   28  C13 UNL     1      10.494  72.588  53.468  1.00  0.00     0.301 C 
BRANCH  28  29
HETATM   29  N7  UNL     1       9.409  72.981  54.375  1.00  0.00    -0.064 N 
ATOM     30  H73 UNL     1       9.260  72.279  55.100  1.00  0.00     0.275 HD
ATOM     31  H72 UNL     1       9.686  73.767  54.964  1.00  0.00     0.275 HD
ATOM     32  H71 UNL     1       8.543  73.183  53.875  1.00  0.00     0.275 HD
ENDBRANCH  28  29
BRANCH  28  33
HETATM   33  C14 UNL     1       9.793  72.264  52.164  1.00  0.00     0.240 C 
BRANCH  33  34
HETATM   34  N8  UNL     1      10.368  71.570  51.306  1.00  0.00    -0.323 NA
BRANCH  34  35
HETATM   35  N9  UNL     1      10.993  70.863  50.505  1.00  0.00    -0.279 N 
ATOM     36  H92 UNL     1      11.507  70.822  51.384  1.00  0.00     0.191 HD
ATOM     37  H91 UNL     1      11.465  70.294  49.802  1.00  0.00     0.191 HD
ENDBRANCH  34  35
ENDBRANCH  33  34
BRANCH  33  38
HETATM   38  S1  UNL     1       8.187  72.843  51.845  1.00  0.00     0.235 S 
HETATM   39  O3  UNL     1       7.948  74.226  52.327  1.00  0.00    -0.215 OA
HETATM   40  O4  UNL     1       7.204  71.975  52.652  1.00  0.00    -0.215 OA
BRANCH  38  41
HETATM   41  C15 UNL     1       7.794  72.696  50.140  1.00  0.00     0.066 A 
HETATM   42  C16 UNL     1       8.751  72.817  49.140  1.00  0.00     0.026 A 
HETATM   43  C17 UNL     1       8.425  72.695  47.808  1.00  0.00     0.028 A 
HETATM   44  C18 UNL     1       7.137  72.448  47.390  1.00  0.00     0.046 A 
HETATM   45  N10 UNL     1       6.771  72.319  46.019  1.00  0.00    -0.102 NA
HETATM   46  C19 UNL     1       6.170  72.327  48.391  1.00  0.00     0.028 A 
HETATM   47  C20 UNL     1       6.504  72.450  49.722  1.00  0.00     0.026 A 
ENDBRANCH  38  41
ENDBRANCH  33  38
ENDBRANCH  28  33
ENDBRANCH   1  28
TORSDOF 15
ENDMDL
MODEL 4
REMARK VINA RESULT: -7.675441764      2.319      7.318
REMARK  15 active torsions:
REMARK  status: ('A' for Active; 'I' for Inactive)
REMARK    1  A    between atoms: C2_2  and  O1_3 
REMARK    2  A    between atoms: C2_2  and  C3_5 
REMARK    3  A    between atoms: C5_7  and  O2_8 
REMARK    4  A    between atoms: N1_10  and  N2_11 
REMARK    5  A    between atoms: N2_11  and  N3_13 
REMARK    6  A    between atoms: N3_13  and  C6_14 
REMARK    7  A    between atoms: C6_14  and  N4_15 
REMARK    8  A    between atoms: C6_14  and  C13_26 
REMARK    9  A    between atoms: C7_17  and  C8_18 
REMARK   10  A    between atoms: C13_26  and  N7_27 
REMARK   11  A    between atoms: C13_26  and  C14_31 
REMARK   12  A    between atoms: C14_31  and  N8_32 
REMARK   13  A    between atoms: C14_31  and  S1_36 
REMARK   14  A    between atoms: N8_32  and  N9_33 
REMARK   15  A    between atoms: S1_36  and  C15_39 
ROOT
HETATM    1  C6  UNL     1      12.065  74.071  51.959  1.00  0.00     0.236 C 
ENDROOT
BRANCH   1   2
HETATM    2  N3  UNL     1      12.428  74.201  50.559  1.00  0.00    -0.096 NA
BRANCH   2   3
HETATM    3  N2  UNL     1      12.015  73.145  49.782  1.00  0.00    -0.221 N 
ATOM      4  H2  UNL     1      12.323  72.208  50.042  1.00  0.00     0.206 HD
BRANCH   3   5
HETATM    5  N1  UNL     1      11.200  73.282  48.659  1.00  0.00    -0.165 N 
HETATM    6  C5  UNL     1      11.580  73.843  47.495  1.00  0.00     0.162 A 
HETATM    7  C4  UNL     1      10.551  73.763  46.658  1.00  0.00     0.149 A 
HETATM    8  C3  UNL     1       9.305  73.003  47.472  1.00  0.00     0.067 A 
HETATM    9  N11 UNL     1      10.038  72.955  48.364  1.00  0.00    -0.278 N 
ATOM     10  H11 UNL     1       9.590  72.502  49.160  1.00  0.00     0.189 HD
BRANCH   6  11
HETATM   11  O2  UNL     1      12.859  74.391  47.290  1.00  0.00    -0.347 OA
ATOM     12  H2  UNL     1      13.601  74.431  47.883  1.00  0.00     0.219 HD
ENDBRANCH   6  11
BRANCH   8  13
HETATM   13  C2  UNL     1       8.352  73.071  46.305  1.00  0.00     0.080 C 
HETATM   14  C1  UNL     1       7.242  72.414  45.806  1.00  0.00     0.052 C 
BRANCH  13  15
HETATM   15  O1  UNL     1       8.770  74.102  45.561  1.00  0.00    -0.359 OA
ATOM     16  H1  UNL     1       9.703  74.270  45.606  1.00  0.00     0.217 HD
ENDBRANCH  13  15
ENDBRANCH   8  13
ENDBRANCH   3   5
ENDBRANCH   2   3
ENDBRANCH   1   2
BRANCH   1  17
HETATM   17  N4  UNL     1      13.231  73.754  52.747  1.00  0.00    -0.377 N 
HETATM   18  C7  UNL     1      14.294  74.490  52.738  1.00  0.00     0.099 C 
ATOM     19  H4  UNL     1      13.216  72.919  53.333  1.00  0.00     0.160 HD
BRANCH  18  20
HETATM   20  C8  UNL     1      15.444  74.129  53.550  1.00  0.00     0.018 A 
HETATM   21  C9  UNL     1      16.652  73.685  52.988  1.00  0.00     0.102 A 
HETATM   22  N5  UNL     1      17.700  73.368  53.760  1.00  0.00    -0.374 N 
HETATM   23  C10 UNL     1      17.680  73.446  55.096  1.00  0.00     0.089 A 
ATOM     24  H5  UNL     1      18.557  73.051  53.307  1.00  0.00     0.164 HD
HETATM   25  C11 UNL     1      16.527  73.874  55.709  1.00  0.00     0.044 A 
HETATM   26  C12 UNL     1      15.432  74.207  54.923  1.00  0.00     0.060 A 
HETATM   27  N6  UNL     1      14.211  74.664  55.543  1.00  0.00    -0.101 NA
ENDBRANCH  18  20
ENDBRANCH   1  17
BRANCH   1  28
HETATM   28  C13 UNL     1      10.847  73.292  52.241  1.00  0.00     0.301 C 
BRANCH  28  29
HETATM   29  N7  UNL     1      11.153  71.933  52.701  1.00  0.00    -0.064 N 
ATOM     30  H73 UNL     1      11.767  71.948  53.516  1.00  0.00     0.275 HD
ATOM     31  H72 UNL     1      10.335  71.492  53.123  1.00  0.00     0.275 HD
ATOM     32  H71 UNL     1      11.542  71.352  51.958  1.00  0.00     0.275 HD
ENDBRANCH  28  29
BRANCH  28  33
HETATM   33  C14 UNL     1      10.068  73.908  53.386  1.00  0.00     0.240 C 
BRANCH  33  34
HETATM   34  N8  UNL     1      10.610  74.752  54.122  1.00  0.00    -0.323 NA
BRANCH  34  35
HETATM   35  N9  UNL     1      11.142  75.544  54.911  1.00  0.00    -0.279 N 
ATOM     36  H92 UNL     1      10.144  75.557  55.121  1.00  0.00     0.191 HD
ATOM     37  H91 UNL     1      11.635  76.182  55.536  1.00  0.00     0.191 HD
ENDBRANCH  34  35
ENDBRANCH  33  34
BRANCH  33  38
HETATM   38  S1  UNL     1       8.418  73.457  53.689  1.00  0.00     0.235 S 
HETATM   39  O3  UNL     1       7.779  74.237  54.777  1.00  0.00    -0.215 OA
HETATM   40  O4  UNL     1       8.413  72.004  54.196  1.00  0.00    -0.215 OA
BRANCH  38  41
HETATM   41  C15 UNL     1       7.465  73.539  52.216  1.00  0.00     0.066 A 
HETATM   42  C16 UNL     1       6.668  74.634  51.903  1.00  0.00     0.026 A 
HETATM   43  C17 UNL     1       5.931  74.682  50.741  1.00  0.00     0.028 A 
HETATM   44  C18 UNL     1       5.939  73.654  49.825  1.00  0.00     0.046 A 
HETATM   45  N10 UNL     1       5.185  73.677  48.618  1.00  0.00    -0.102 NA
HETATM   46  C19 UNL     1       6.738  72.551  50.136  1.00  0.00     0.028 A 
HETATM   47  C20 UNL     1       7.473  72.509  51.301  1.00  0.00     0.026 A 
ENDBRANCH  38  41
ENDBRANCH  33  38
ENDBRANCH  28  33
ENDBRANCH   1  28
TORSDOF 15
ENDMDL
MODEL 5
REMARK VINA RESULT: -7.560265520      2.668      7.561
REMARK  15 active torsions:
REMARK  status: ('A' for Active; 'I' for Inactive)
REMARK    1  A    between atoms: C2_2  and  O1_3 
REMARK    2  A    between atoms: C2_2  and  C3_5 
REMARK    3  A    between atoms: C5_7  and  O2_8 
REMARK    4  A    between atoms: N1_10  and  N2_11 
REMARK    5  A    between atoms: N2_11  and  N3_13 
REMARK    6  A    between atoms: N3_13  and  C6_14 
REMARK    7  A    between atoms: C6_14  and  N4_15 
REMARK    8  A    between atoms: C6_14  and  C13_26 
REMARK    9  A    between atoms: C7_17  and  C8_18 
REMARK   10  A    between atoms: C13_26  and  N7_27 
REMARK   11  A    between atoms: C13_26  and  C14_31 
REMARK   12  A    between atoms: C14_31  and  N8_32 
REMARK   13  A    between atoms: C14_31  and  S1_36 
REMARK   14  A    between atoms: N8_32  and  N9_33 
REMARK   15  A    between atoms: S1_36  and  C15_39 
ROOT
HETATM    1  C6  UNL     1      11.775  73.701  53.554  1.00  0.00     0.236 C 
ENDROOT
BRANCH   1   2
HETATM    2  N3  UNL     1      11.814  74.321  52.241  1.00  0.00    -0.096 NA
BRANCH   2   3
HETATM    3  N2  UNL     1      11.960  73.421  51.212  1.00  0.00    -0.221 N 
ATOM      4  H2  UNL     1      11.811  72.432  51.413  1.00  0.00     0.206 HD
BRANCH   3   5
HETATM    5  N1  UNL     1      12.300  73.784  49.910  1.00  0.00    -0.165 N 
HETATM    6  C5  UNL     1      13.415  74.455  49.562  1.00  0.00     0.162 A 
HETATM    7  C4  UNL     1      13.408  74.587  48.240  1.00  0.00     0.149 A 
HETATM    8  C3  UNL     1      12.018  73.850  47.675  1.00  0.00     0.067 A 
HETATM    9  N11 UNL     1      11.800  73.614  48.784  1.00  0.00    -0.278 N 
ATOM     10  H11 UNL     1      10.921  73.105  48.867  1.00  0.00     0.189 HD
BRANCH   6  11
HETATM   11  O2  UNL     1      14.365  74.898  50.500  1.00  0.00    -0.347 OA
ATOM     12  H2  UNL     1      14.302  75.598  51.140  1.00  0.00     0.219 HD
ENDBRANCH   6  11
BRANCH   8  13
HETATM   13  C2  UNL     1      12.306  74.164  46.228  1.00  0.00     0.080 C 
HETATM   14  C1  UNL     1      11.671  74.665  45.107  1.00  0.00     0.052 C 
BRANCH  13  15
HETATM   15  O1  UNL     1      13.587  73.824  46.036  1.00  0.00    -0.359 OA
ATOM     16  H1  UNL     1      14.213  74.364  46.502  1.00  0.00     0.217 HD
ENDBRANCH  13  15
ENDBRANCH   8  13
ENDBRANCH   3   5
ENDBRANCH   2   3
ENDBRANCH   1   2
BRANCH   1  17
HETATM   17  N4  UNL     1      13.109  73.343  53.974  1.00  0.00    -0.377 N 
HETATM   18  C7  UNL     1      13.909  74.188  54.536  1.00  0.00     0.099 C 
ATOM     19  H4  UNL     1      13.431  72.387  53.823  1.00  0.00     0.160 HD
BRANCH  18  20
HETATM   20  C8  UNL     1      15.243  73.779  54.941  1.00  0.00     0.018 A 
HETATM   21  C9  UNL     1      15.543  73.388  56.256  1.00  0.00     0.102 A 
HETATM   22  N5  UNL     1      16.781  73.006  56.599  1.00  0.00    -0.374 N 
HETATM   23  C10 UNL     1      17.804  72.967  55.739  1.00  0.00     0.089 A 
ATOM     24  H5  UNL     1      16.951  72.730  57.566  1.00  0.00     0.164 HD
HETATM   25  C11 UNL     1      17.577  73.339  54.435  1.00  0.00     0.044 A 
HETATM   26  C12 UNL     1      16.300  73.736  54.063  1.00  0.00     0.060 A 
HETATM   27  N6  UNL     1      16.035  74.126  52.699  1.00  0.00    -0.101 NA
ENDBRANCH  18  20
ENDBRANCH   1  17
BRANCH   1  28
HETATM   28  C13 UNL     1      10.725  72.691  53.761  1.00  0.00     0.301 C 
BRANCH  28  29
HETATM   29  N7  UNL     1      10.984  71.854  54.939  1.00  0.00    -0.064 N 
ATOM     30  H73 UNL     1      11.881  71.373  54.861  1.00  0.00     0.275 HD
ATOM     31  H72 UNL     1      11.179  72.426  55.762  1.00  0.00     0.275 HD
ATOM     32  H71 UNL     1      10.227  71.195  55.119  1.00  0.00     0.275 HD
ENDBRANCH  28  29
BRANCH  28  33
HETATM   33  C14 UNL     1       9.393  73.351  54.058  1.00  0.00     0.240 C 
BRANCH  33  34
HETATM   34  N8  UNL     1       9.364  74.473  54.597  1.00  0.00    -0.323 NA
BRANCH  34  35
HETATM   35  N9  UNL     1       9.319  75.617  55.065  1.00  0.00    -0.279 N 
ATOM     36  H92 UNL     1       9.242  75.719  54.054  1.00  0.00     0.191 HD
ATOM     37  H91 UNL     1       9.287  76.536  55.508  1.00  0.00     0.191 HD
ENDBRANCH  34  35
ENDBRANCH  33  34
BRANCH  33  38
HETATM   38  S1  UNL     1       7.897  72.568  53.653  1.00  0.00     0.235 S 
HETATM   39  O3  UNL     1       6.741  73.046  54.452  1.00  0.00    -0.215 OA
HETATM   40  O4  UNL     1       8.032  71.078  54.015  1.00  0.00    -0.215 OA
BRANCH  38  41
HETATM   41  C15 UNL     1       7.567  72.698  51.933  1.00  0.00     0.066 A 
HETATM   42  C16 UNL     1       8.577  72.734  50.979  1.00  0.00     0.026 A 
HETATM   43  C17 UNL     1       8.299  72.833  49.635  1.00  0.00     0.028 A 
HETATM   44  C18 UNL     1       7.010  72.901  49.157  1.00  0.00     0.046 A 
HETATM   45  N10 UNL     1       6.694  73.006  47.772  1.00  0.00    -0.102 NA
HETATM   46  C19 UNL     1       5.990  72.867  50.111  1.00  0.00     0.028 A 
HETATM   47  C20 UNL     1       6.276  72.768  51.455  1.00  0.00     0.026 A 
ENDBRANCH  38  41
ENDBRANCH  33  38
ENDBRANCH  28  33
ENDBRANCH   1  28
TORSDOF 15
ENDMDL
