MODEL 1
REMARK VINA RESULT: -8.760079309      0.000      0.000
REMARK  12 active torsions:
REMARK  status: ('A' for Active; 'I' for Inactive)
REMARK    1  A    between atoms: C1_2  and  C2_4 
REMARK    2  A    between atoms: C2_4  and  N2_5 
REMARK    3  A    between atoms: C2_4  and  C3_9 
REMARK    4  A    between atoms: C2_4  and  C11_25 
REMARK       I    between atoms: C3_9  and  N3_11 
REMARK    5  A    between atoms: N3_11  and  N4_13 
REMARK    6  A    between atoms: C4_15  and  C5_16 
REMARK    7  A    between atoms: C9_20  and  N5_21 
REMARK    8  A    between atoms: N8_31  and  N9_33 
REMARK    9  A    between atoms: C13_35  and  C14_36 
REMARK   10  A    between atoms: C17_39  and  O5_40 
REMARK   11  A    between atoms: C18_42  and  O6_43 
REMARK   12  A    between atoms: C19_45  and  O7_46 
ROOT
HETATM    1  C11 UNL     1      12.657  73.598  54.352  1.00  0.00     0.124 A 
HETATM    2  N6  UNL     1      13.365  73.143  55.378  1.00  0.00    -0.292 N 
ATOM      3  H6  UNL     1      12.919  72.556  56.083  1.00  0.00     0.187 HD
HETATM    4  N7  UNL     1      14.593  73.435  55.486  1.00  0.00    -0.278 N 
ATOM      5  H7  UNL     1      15.140  73.089  56.274  1.00  0.00     0.189 HD
HETATM    6  C12 UNL     1      15.160  74.204  54.552  1.00  0.00     0.179 A 
HETATM    7  N8  UNL     1      16.400  74.620  54.472  1.00  0.00    -0.279 N 
ATOM      8  H8  UNL     1      16.704  75.210  53.698  1.00  0.00     0.189 HD
HETATM    9  S1  UNL     1      13.844  74.495  53.502  1.00  0.00    -0.033 SA
ENDROOT
BRANCH   1  10
HETATM   10  C2  UNL     1      11.204  73.379  54.031  1.00  0.00     0.330 C 
BRANCH  10  11
HETATM   11  C1  UNL     1      10.447  74.106  55.090  1.00  0.00     0.284 C 
HETATM   12  N1  UNL     1       9.109  73.785  55.451  1.00  0.00    -0.059 NA
HETATM   13  O1  UNL     1      10.956  75.076  55.748  1.00  0.00    -0.273 OA
ENDBRANCH  10  11
BRANCH  10  14
HETATM   14  N2  UNL     1      10.858  71.978  54.172  1.00  0.00    -0.046 N 
ATOM     15  H23 UNL     1      10.945  71.633  55.128  1.00  0.00     0.276 HD
ATOM     16  H22 UNL     1       9.860  71.794  54.063  1.00  0.00     0.276 HD
ATOM     17  H21 UNL     1      11.438  71.471  53.504  1.00  0.00     0.276 HD
ENDBRANCH  10  14
BRANCH  10  18
HETATM   18  C3  UNL     1      10.875  73.840  52.672  1.00  0.00     0.288 C 
HETATM   19  O2  UNL     1      10.470  75.001  52.488  1.00  0.00    -0.268 OA
HETATM   20  N3  UNL     1      11.020  72.963  51.578  1.00  0.00    -0.267 N 
ATOM     21  H3  UNL     1      11.352  72.012  51.732  1.00  0.00     0.190 HD
BRANCH  20  22
HETATM   22  N4  UNL     1      10.709  73.395  50.271  1.00  0.00    -0.308 N 
HETATM   23  C4  UNL     1      11.503  73.100  49.306  1.00  0.00     0.118 C 
ATOM     24  H4  UNL     1       9.862  73.935  50.094  1.00  0.00     0.186 HD
BRANCH  23  25
HETATM   25  C5  UNL     1      11.187  73.541  47.959  1.00  0.00    -0.017 A 
HETATM   26  C6  UNL     1      12.164  74.117  47.181  1.00  0.00     0.013 A 
HETATM   27  C7  UNL     1      11.872  74.544  45.885  1.00  0.00     0.003 A 
HETATM   28  C8  UNL     1      10.598  74.389  45.383  1.00  0.00     0.036 A 
HETATM   29  C9  UNL     1       9.584  73.813  46.138  1.00  0.00     0.103 A 
HETATM   30  C10 UNL     1       9.920  73.404  47.415  1.00  0.00     0.048 A 
BRANCH  29  31
HETATM   31  N5  UNL     1       8.273  73.646  45.640  1.00  0.00    -0.116 N 
HETATM   32  O3  UNL     1       7.668  74.611  45.168  1.00  0.00    -0.532 OA
HETATM   33  O4  UNL     1       7.683  72.421  45.682  1.00  0.00    -0.532 OA
ENDBRANCH  29  31
ENDBRANCH  23  25
ENDBRANCH  20  22
ENDBRANCH  10  18
ENDBRANCH   1  10
BRANCH   7  34
HETATM   34  N9  UNL     1      17.277  74.243  55.456  1.00  0.00    -0.309 N 
HETATM   35  C13 UNL     1      17.695  73.027  55.516  1.00  0.00     0.121 C 
ATOM     36  H9  UNL     1      17.598  74.926  56.141  1.00  0.00     0.186 HD
BRANCH  35  37
HETATM   37  C14 UNL     1      18.629  72.682  56.587  1.00  0.00     0.017 A 
HETATM   38  C15 UNL     1      19.947  72.357  56.265  1.00  0.00     0.018 A 
HETATM   39  C16 UNL     1      20.853  72.028  57.249  1.00  0.00     0.040 A 
HETATM   40  C17 UNL     1      20.521  72.000  58.581  1.00  0.00     0.101 A 
HETATM   41  C18 UNL     1      19.223  72.318  58.905  1.00  0.00     0.133 A 
HETATM   42  C19 UNL     1      18.290  72.655  57.920  1.00  0.00     0.113 A 
BRANCH  40  43
HETATM   43  O5  UNL     1      21.468  71.660  59.537  1.00  0.00    -0.358 OA
ATOM     44  H5  UNL     1      21.825  72.321  60.118  1.00  0.00     0.217 HD
ENDBRANCH  40  43
BRANCH  41  45
HETATM   45  O6  UNL     1      18.852  72.300  60.243  1.00  0.00    -0.356 OA
ATOM     46  H6  UNL     1      18.016  71.911  60.476  1.00  0.00     0.218 HD
ENDBRANCH  41  45
BRANCH  42  47
HETATM   47  O7  UNL     1      16.999  72.968  58.287  1.00  0.00    -0.357 OA
ATOM     48  H7  UNL     1      16.752  72.902  59.201  1.00  0.00     0.217 HD
ENDBRANCH  42  47
ENDBRANCH  35  37
ENDBRANCH   7  34
TORSDOF 12
ENDMDL
MODEL 2
REMARK VINA RESULT: -8.571825508      3.723      4.228
REMARK  12 active torsions:
REMARK  status: ('A' for Active; 'I' for Inactive)
REMARK    1  A    between atoms: C1_2  and  C2_4 
REMARK    2  A    between atoms: C2_4  and  N2_5 
REMARK    3  A    between atoms: C2_4  and  C3_9 
REMARK    4  A    between atoms: C2_4  and  C11_25 
REMARK       I    between atoms: C3_9  and  N3_11 
REMARK    5  A    between atoms: N3_11  and  N4_13 
REMARK    6  A    between atoms: C4_15  and  C5_16 
REMARK    7  A    between atoms: C9_20  and  N5_21 
REMARK    8  A    between atoms: N8_31  and  N9_33 
REMARK    9  A    between atoms: C13_35  and  C14_36 
REMARK   10  A    between atoms: C17_39  and  O5_40 
REMARK   11  A    between atoms: C18_42  and  O6_43 
REMARK   12  A    between atoms: C19_45  and  O7_46 
ROOT
HETATM    1  C11 UNL     1      13.069  74.158  54.345  1.00  0.00     0.124 A 
HETATM    2  N6  UNL     1      13.641  75.255  53.866  1.00  0.00    -0.292 N 
ATOM      3  H6  UNL     1      13.133  75.850  53.213  1.00  0.00     0.187 HD
HETATM    4  N7  UNL     1      14.818  75.566  54.217  1.00  0.00    -0.278 N 
ATOM      5  H7  UNL     1      15.262  76.408  53.850  1.00  0.00     0.189 HD
HETATM    6  C12 UNL     1      15.468  74.775  55.075  1.00  0.00     0.179 A 
HETATM    7  N8  UNL     1      16.677  74.910  55.563  1.00  0.00    -0.279 N 
ATOM      8  H8  UNL     1      17.056  74.225  56.216  1.00  0.00     0.189 HD
HETATM    9  S1  UNL     1      14.310  73.551  55.359  1.00  0.00    -0.033 SA
ENDROOT
BRANCH   1  10
HETATM   10  C2  UNL     1      11.699  73.604  54.065  1.00  0.00     0.330 C 
BRANCH  10  11
HETATM   11  C1  UNL     1      10.819  74.156  55.136  1.00  0.00     0.284 C 
HETATM   12  N1  UNL     1       9.593  73.549  55.526  1.00  0.00    -0.059 NA
HETATM   13  O1  UNL     1      11.112  75.221  55.778  1.00  0.00    -0.273 OA
ENDBRANCH  10  11
BRANCH  10  14
HETATM   14  N2  UNL     1      11.689  72.164  54.231  1.00  0.00    -0.046 N 
ATOM     15  H23 UNL     1      12.617  71.744  54.176  1.00  0.00     0.276 HD
ATOM     16  H22 UNL     1      11.473  71.867  55.183  1.00  0.00     0.276 HD
ATOM     17  H21 UNL     1      11.037  71.800  53.536  1.00  0.00     0.276 HD
ENDBRANCH  10  14
BRANCH  10  18
HETATM   18  C3  UNL     1      11.241  73.955  52.710  1.00  0.00     0.288 C 
HETATM   19  O2  UNL     1      10.624  75.016  52.515  1.00  0.00    -0.268 OA
HETATM   20  N3  UNL     1      11.503  73.084  51.633  1.00  0.00    -0.267 N 
ATOM     21  H3  UNL     1      12.009  72.214  51.796  1.00  0.00     0.190 HD
BRANCH  20  22
HETATM   22  N4  UNL     1      11.069  73.409  50.330  1.00  0.00    -0.308 N 
HETATM   23  C4  UNL     1      11.907  73.358  49.358  1.00  0.00     0.118 C 
ATOM     24  H4  UNL     1      10.101  73.682  50.162  1.00  0.00     0.186 HD
BRANCH  23  25
HETATM   25  C5  UNL     1      11.466  73.691  48.015  1.00  0.00    -0.017 A 
HETATM   26  C6  UNL     1      12.356  74.238  47.119  1.00  0.00     0.013 A 
HETATM   27  C7  UNL     1      11.943  74.563  45.827  1.00  0.00     0.003 A 
HETATM   28  C8  UNL     1      10.638  74.334  45.446  1.00  0.00     0.036 A 
HETATM   29  C9  UNL     1       9.711  73.784  46.322  1.00  0.00     0.103 A 
HETATM   30  C10 UNL     1      10.165  73.479  47.591  1.00  0.00     0.048 A 
BRANCH  29  31
HETATM   31  N5  UNL     1       8.369  73.544  45.949  1.00  0.00    -0.116 N 
HETATM   32  O3  UNL     1       7.829  72.478  46.253  1.00  0.00    -0.532 OA
HETATM   33  O4  UNL     1       7.680  74.489  45.256  1.00  0.00    -0.532 OA
ENDBRANCH  29  31
ENDBRANCH  23  25
ENDBRANCH  20  22
ENDBRANCH  10  18
ENDBRANCH   1  10
BRANCH   7  34
HETATM   34  N9  UNL     1      17.418  75.996  55.173  1.00  0.00    -0.309 N 
HETATM   35  C13 UNL     1      18.677  75.868  54.942  1.00  0.00     0.121 C 
ATOM     36  H9  UNL     1      16.970  76.906  55.066  1.00  0.00     0.186 HD
BRANCH  35  37
HETATM   37  C14 UNL     1      19.417  77.060  54.529  1.00  0.00     0.017 A 
HETATM   38  C15 UNL     1      19.436  78.175  55.367  1.00  0.00     0.018 A 
HETATM   39  C16 UNL     1      20.123  79.315  55.009  1.00  0.00     0.040 A 
HETATM   40  C17 UNL     1      20.816  79.420  53.829  1.00  0.00     0.101 A 
HETATM   41  C18 UNL     1      20.801  78.325  52.998  1.00  0.00     0.133 A 
HETATM   42  C19 UNL     1      20.110  77.160  53.344  1.00  0.00     0.113 A 
BRANCH  40  43
HETATM   43  O5  UNL     1      21.493  80.590  53.511  1.00  0.00    -0.358 OA
ATOM     44  H5  UNL     1      22.319  80.558  53.043  1.00  0.00     0.217 HD
ENDBRANCH  40  43
BRANCH  41  45
HETATM   45  O6  UNL     1      21.492  78.396  51.796  1.00  0.00    -0.356 OA
ATOM     46  H6  UNL     1      22.440  78.338  51.814  1.00  0.00     0.218 HD
ENDBRANCH  41  45
BRANCH  42  47
HETATM   47  O7  UNL     1      20.119  76.084  52.485  1.00  0.00    -0.357 OA
ATOM     48  H7  UNL     1      20.197  76.242  51.552  1.00  0.00     0.217 HD
ENDBRANCH  42  47
ENDBRANCH  35  37
ENDBRANCH   7  34
TORSDOF 12
ENDMDL
MODEL 3
REMARK VINA RESULT: -8.322635364      1.123      1.170
REMARK  12 active torsions:
REMARK  status: ('A' for Active; 'I' for Inactive)
REMARK    1  A    between atoms: C1_2  and  C2_4 
REMARK    2  A    between atoms: C2_4  and  N2_5 
REMARK    3  A    between atoms: C2_4  and  C3_9 
REMARK    4  A    between atoms: C2_4  and  C11_25 
REMARK       I    between atoms: C3_9  and  N3_11 
REMARK    5  A    between atoms: N3_11  and  N4_13 
REMARK    6  A    between atoms: C4_15  and  C5_16 
REMARK    7  A    between atoms: C9_20  and  N5_21 
REMARK    8  A    between atoms: N8_31  and  N9_33 
REMARK    9  A    between atoms: C13_35  and  C14_36 
REMARK   10  A    between atoms: C17_39  and  O5_40 
REMARK   11  A    between atoms: C18_42  and  O6_43 
REMARK   12  A    between atoms: C19_45  and  O7_46 
ROOT
HETATM    1  C11 UNL     1      12.857  73.602  54.238  1.00  0.00     0.124 A 
HETATM    2  N6  UNL     1      13.606  73.130  55.227  1.00  0.00    -0.292 N 
ATOM      3  H6  UNL     1      13.197  72.505  55.921  1.00  0.00     0.187 HD
HETATM    4  N7  UNL     1      14.829  73.452  55.311  1.00  0.00    -0.278 N 
ATOM      5  H7  UNL     1      15.408  73.092  56.069  1.00  0.00     0.189 HD
HETATM    6  C12 UNL     1      15.348  74.269  54.391  1.00  0.00     0.179 A 
HETATM    7  N8  UNL     1      16.573  74.723  54.292  1.00  0.00    -0.279 N 
ATOM      8  H8  UNL     1      16.839  75.349  53.532  1.00  0.00     0.189 HD
HETATM    9  S1  UNL     1      13.994  74.562  53.389  1.00  0.00    -0.033 SA
ENDROOT
BRANCH   1  10
HETATM   10  C2  UNL     1      11.402  73.355  53.951  1.00  0.00     0.330 C 
BRANCH  10  11
HETATM   11  C1  UNL     1      10.655  74.086  55.014  1.00  0.00     0.284 C 
HETATM   12  N1  UNL     1      11.181  75.214  55.702  1.00  0.00    -0.059 NA
HETATM   13  O1  UNL     1       9.480  73.742  55.381  1.00  0.00    -0.273 OA
ENDBRANCH  10  11
BRANCH  10  14
HETATM   14  N2  UNL     1      11.082  71.951  54.119  1.00  0.00    -0.046 N 
ATOM     15  H23 UNL     1      11.834  71.412  54.549  1.00  0.00     0.276 HD
ATOM     16  H22 UNL     1      10.378  71.779  54.838  1.00  0.00     0.276 HD
ATOM     17  H21 UNL     1      10.812  71.606  53.198  1.00  0.00     0.276 HD
ENDBRANCH  10  14
BRANCH  10  18
HETATM   18  C3  UNL     1      11.038  73.791  52.592  1.00  0.00     0.288 C 
HETATM   19  O2  UNL     1      10.632  74.949  52.396  1.00  0.00    -0.268 OA
HETATM   20  N3  UNL     1      11.150  72.892  51.512  1.00  0.00    -0.267 N 
ATOM     21  H3  UNL     1      11.483  71.942  51.676  1.00  0.00     0.190 HD
BRANCH  20  22
HETATM   22  N4  UNL     1      10.804  73.299  50.205  1.00  0.00    -0.308 N 
HETATM   23  C4  UNL     1      11.670  73.186  49.263  1.00  0.00     0.118 C 
ATOM     24  H4  UNL     1       9.878  73.678  50.012  1.00  0.00     0.186 HD
BRANCH  23  25
HETATM   25  C5  UNL     1      11.319  73.603  47.917  1.00  0.00    -0.017 A 
HETATM   26  C6  UNL     1      12.279  74.155  47.101  1.00  0.00     0.013 A 
HETATM   27  C7  UNL     1      11.954  74.559  45.805  1.00  0.00     0.003 A 
HETATM   28  C8  UNL     1      10.665  74.404  45.342  1.00  0.00     0.036 A 
HETATM   29  C9  UNL     1       9.668  73.851  46.136  1.00  0.00     0.103 A 
HETATM   30  C10 UNL     1      10.037  73.465  47.411  1.00  0.00     0.048 A 
BRANCH  29  31
HETATM   31  N5  UNL     1       8.342  73.685  45.678  1.00  0.00    -0.116 N 
HETATM   32  O3  UNL     1       7.734  74.644  45.198  1.00  0.00    -0.532 OA
HETATM   33  O4  UNL     1       7.743  72.468  45.769  1.00  0.00    -0.532 OA
ENDBRANCH  29  31
ENDBRANCH  23  25
ENDBRANCH  20  22
ENDBRANCH  10  18
ENDBRANCH   1  10
BRANCH   7  34
HETATM   34  N9  UNL     1      17.488  74.334  55.236  1.00  0.00    -0.309 N 
HETATM   35  C13 UNL     1      17.513  74.910  56.386  1.00  0.00     0.121 C 
ATOM     36  H9  UNL     1      18.150  73.587  55.026  1.00  0.00     0.186 HD
BRANCH  35  37
HETATM   37  C14 UNL     1      18.511  74.454  57.353  1.00  0.00     0.017 A 
HETATM   38  C15 UNL     1      19.586  75.285  57.667  1.00  0.00     0.018 A 
HETATM   39  C16 UNL     1      20.545  74.887  58.573  1.00  0.00     0.040 A 
HETATM   40  C17 UNL     1      20.500  73.671  59.210  1.00  0.00     0.101 A 
HETATM   41  C18 UNL     1      19.443  72.847  58.904  1.00  0.00     0.133 A 
HETATM   42  C19 UNL     1      18.461  73.234  57.987  1.00  0.00     0.113 A 
BRANCH  40  43
HETATM   43  O5  UNL     1      21.489  73.312  60.115  1.00  0.00    -0.358 OA
ATOM     44  H5  UNL     1      21.363  72.576  60.702  1.00  0.00     0.217 HD
ENDBRANCH  40  43
BRANCH  41  45
HETATM   45  O6  UNL     1      19.366  71.610  59.530  1.00  0.00    -0.356 OA
ATOM     46  H6  UNL     1      19.104  70.856  59.013  1.00  0.00     0.218 HD
ENDBRANCH  41  45
BRANCH  42  47
HETATM   47  O7  UNL     1      17.417  72.380  57.709  1.00  0.00    -0.357 OA
ATOM     48  H7  UNL     1      17.506  71.459  57.924  1.00  0.00     0.217 HD
ENDBRANCH  42  47
ENDBRANCH  35  37
ENDBRANCH   7  34
TORSDOF 12
ENDMDL
MODEL 4
REMARK VINA RESULT: -8.288212260      1.074      1.407
REMARK  12 active torsions:
REMARK  status: ('A' for Active; 'I' for Inactive)
REMARK    1  A    between atoms: C1_2  and  C2_4 
REMARK    2  A    between atoms: C2_4  and  N2_5 
REMARK    3  A    between atoms: C2_4  and  C3_9 
REMARK    4  A    between atoms: C2_4  and  C11_25 
REMARK       I    between atoms: C3_9  and  N3_11 
REMARK    5  A    between atoms: N3_11  and  N4_13 
REMARK    6  A    between atoms: C4_15  and  C5_16 
REMARK    7  A    between atoms: C9_20  and  N5_21 
REMARK    8  A    between atoms: N8_31  and  N9_33 
REMARK    9  A    between atoms: C13_35  and  C14_36 
REMARK   10  A    between atoms: C17_39  and  O5_40 
REMARK   11  A    between atoms: C18_42  and  O6_43 
REMARK   12  A    between atoms: C19_45  and  O7_46 
ROOT
HETATM    1  C11 UNL     1      12.444  73.547  54.416  1.00  0.00     0.124 A 
HETATM    2  N6  UNL     1      13.085  72.944  55.410  1.00  0.00    -0.292 N 
ATOM      3  H6  UNL     1      12.562  72.410  56.103  1.00  0.00     0.187 HD
HETATM    4  N7  UNL     1      14.346  73.029  55.500  1.00  0.00    -0.278 N 
ATOM      5  H7  UNL     1      14.843  72.569  56.263  1.00  0.00     0.189 HD
HETATM    6  C12 UNL     1      15.015  73.732  54.582  1.00  0.00     0.179 A 
HETATM    7  N8  UNL     1      16.305  73.945  54.490  1.00  0.00    -0.279 N 
ATOM      8  H8  UNL     1      16.688  74.508  53.730  1.00  0.00     0.189 HD
HETATM    9  S1  UNL     1      13.747  74.273  53.572  1.00  0.00    -0.033 SA
ENDROOT
BRANCH   1  10
HETATM   10  C2  UNL     1      10.970  73.578  54.121  1.00  0.00     0.330 C 
BRANCH  10  11
HETATM   11  C1  UNL     1      10.381  74.512  55.123  1.00  0.00     0.284 C 
HETATM   12  N1  UNL     1      11.149  75.472  55.839  1.00  0.00    -0.059 NA
HETATM   13  O1  UNL     1       9.136  74.510  55.407  1.00  0.00    -0.273 OA
ENDBRANCH  10  11
BRANCH  10  14
HETATM   14  N2  UNL     1      10.374  72.281  54.372  1.00  0.00    -0.046 N 
ATOM     15  H23 UNL     1      10.835  71.760  55.118  1.00  0.00     0.276 HD
ATOM     16  H22 UNL     1       9.453  72.336  54.809  1.00  0.00     0.276 HD
ATOM     17  H21 UNL     1      10.369  71.789  53.478  1.00  0.00     0.276 HD
ENDBRANCH  10  14
BRANCH  10  18
HETATM   18  C3  UNL     1      10.706  73.988  52.731  1.00  0.00     0.288 C 
HETATM   19  O2  UNL     1      10.435  75.173  52.471  1.00  0.00    -0.268 OA
HETATM   20  N3  UNL     1      10.762  73.034  51.694  1.00  0.00    -0.267 N 
ATOM     21  H3  UNL     1      10.985  72.063  51.911  1.00  0.00     0.190 HD
BRANCH  20  22
HETATM   22  N4  UNL     1      10.512  73.416  50.359  1.00  0.00    -0.308 N 
HETATM   23  C4  UNL     1      11.363  73.110  49.447  1.00  0.00     0.118 C 
ATOM     24  H4  UNL     1       9.664  73.930  50.120  1.00  0.00     0.186 HD
BRANCH  23  25
HETATM   25  C5  UNL     1      11.110  73.499  48.072  1.00  0.00    -0.017 A 
HETATM   26  C6  UNL     1      12.137  73.994  47.302  1.00  0.00     0.013 A 
HETATM   27  C7  UNL     1      11.906  74.372  45.979  1.00  0.00     0.003 A 
HETATM   28  C8  UNL     1      10.642  74.249  45.442  1.00  0.00     0.036 A 
HETATM   29  C9  UNL     1       9.580  73.754  46.187  1.00  0.00     0.103 A 
HETATM   30  C10 UNL     1       9.857  73.392  47.492  1.00  0.00     0.048 A 
BRANCH  29  31
HETATM   31  N5  UNL     1       8.279  73.621  45.653  1.00  0.00    -0.116 N 
HETATM   32  O3  UNL     1       7.682  74.616  45.236  1.00  0.00    -0.532 OA
HETATM   33  O4  UNL     1       7.691  72.396  45.601  1.00  0.00    -0.532 OA
ENDBRANCH  29  31
ENDBRANCH  23  25
ENDBRANCH  20  22
ENDBRANCH  10  18
ENDBRANCH   1  10
BRANCH   7  34
HETATM   34  N9  UNL     1      17.125  73.393  55.439  1.00  0.00    -0.309 N 
HETATM   35  C13 UNL     1      17.676  74.142  56.329  1.00  0.00     0.121 C 
ATOM     36  H9  UNL     1      17.298  72.388  55.440  1.00  0.00     0.186 HD
BRANCH  35  37
HETATM   37  C14 UNL     1      18.541  73.497  57.317  1.00  0.00     0.017 A 
HETATM   38  C15 UNL     1      18.435  73.863  58.659  1.00  0.00     0.018 A 
HETATM   39  C16 UNL     1      19.235  73.276  59.616  1.00  0.00     0.040 A 
HETATM   40  C17 UNL     1      20.166  72.314  59.312  1.00  0.00     0.101 A 
HETATM   41  C18 UNL     1      20.277  71.950  57.991  1.00  0.00     0.133 A 
HETATM   42  C19 UNL     1      19.474  72.534  57.006  1.00  0.00     0.113 A 
BRANCH  40  43
HETATM   43  O5  UNL     1      20.951  71.752  60.310  1.00  0.00    -0.358 OA
ATOM     44  H5  UNL     1      21.648  72.254  60.715  1.00  0.00     0.217 HD
ENDBRANCH  40  43
BRANCH  41  45
HETATM   45  O6  UNL     1      21.208  70.980  57.647  1.00  0.00    -0.356 OA
ATOM     46  H6  UNL     1      21.354  70.797  56.726  1.00  0.00     0.218 HD
ENDBRANCH  41  45
BRANCH  42  47
HETATM   47  O7  UNL     1      19.614  72.141  55.694  1.00  0.00    -0.357 OA
ATOM     48  H7  UNL     1      20.234  71.453  55.484  1.00  0.00     0.217 HD
ENDBRANCH  42  47
ENDBRANCH  35  37
ENDBRANCH   7  34
TORSDOF 12
ENDMDL
MODEL 5
REMARK VINA RESULT: -8.109235498      1.406      1.489
REMARK  12 active torsions:
REMARK  status: ('A' for Active; 'I' for Inactive)
REMARK    1  A    between atoms: C1_2  and  C2_4 
REMARK    2  A    between atoms: C2_4  and  N2_5 
REMARK    3  A    between atoms: C2_4  and  C3_9 
REMARK    4  A    between atoms: C2_4  and  C11_25 
REMARK       I    between atoms: C3_9  and  N3_11 
REMARK    5  A    between atoms: N3_11  and  N4_13 
REMARK    6  A    between atoms: C4_15  and  C5_16 
REMARK    7  A    between atoms: C9_20  and  N5_21 
REMARK    8  A    between atoms: N8_31  and  N9_33 
REMARK    9  A    between atoms: C13_35  and  C14_36 
REMARK   10  A    between atoms: C17_39  and  O5_40 
REMARK   11  A    between atoms: C18_42  and  O6_43 
REMARK   12  A    between atoms: C19_45  and  O7_46 
ROOT
HETATM    1  C11 UNL     1      12.842  73.680  54.320  1.00  0.00     0.124 A 
HETATM    2  N6  UNL     1      13.501  73.514  55.460  1.00  0.00    -0.292 N 
ATOM      3  H6  UNL     1      13.029  73.102  56.264  1.00  0.00     0.187 HD
HETATM    4  N7  UNL     1      14.715  73.864  55.553  1.00  0.00    -0.278 N 
ATOM      5  H7  UNL     1      15.224  73.739  56.427  1.00  0.00     0.189 HD
HETATM    6  C12 UNL     1      15.318  74.400  54.488  1.00  0.00     0.179 A 
HETATM    7  N8  UNL     1      16.551  74.826  54.369  1.00  0.00    -0.279 N 
ATOM      8  H8  UNL     1      16.886  75.219  53.490  1.00  0.00     0.189 HD
HETATM    9  S1  UNL     1      14.056  74.382  53.335  1.00  0.00    -0.033 SA
ENDROOT
BRANCH   1  10
HETATM   10  C2  UNL     1      11.415  73.341  53.992  1.00  0.00     0.330 C 
BRANCH  10  11
HETATM   11  C1  UNL     1      10.599  73.951  55.081  1.00  0.00     0.284 C 
HETATM   12  N1  UNL     1      10.960  75.156  55.744  1.00  0.00    -0.059 NA
HETATM   13  O1  UNL     1       9.511  73.423  55.495  1.00  0.00    -0.273 OA
ENDBRANCH  10  11
BRANCH  10  14
HETATM   14  N2  UNL     1      11.200  71.910  54.073  1.00  0.00    -0.046 N 
ATOM     15  H23 UNL     1      12.024  71.362  53.823  1.00  0.00     0.276 HD
ATOM     16  H22 UNL     1      11.108  71.568  55.030  1.00  0.00     0.276 HD
ATOM     17  H21 UNL     1      10.387  71.708  53.491  1.00  0.00     0.276 HD
ENDBRANCH  10  14
BRANCH  10  18
HETATM   18  C3  UNL     1      11.037  73.828  52.654  1.00  0.00     0.288 C 
HETATM   19  O2  UNL     1      10.614  74.987  52.507  1.00  0.00    -0.268 OA
HETATM   20  N3  UNL     1      11.157  72.975  51.537  1.00  0.00    -0.267 N 
ATOM     21  H3  UNL     1      11.504  72.025  51.660  1.00  0.00     0.190 HD
BRANCH  20  22
HETATM   22  N4  UNL     1      10.799  73.430  50.250  1.00  0.00    -0.308 N 
HETATM   23  C4  UNL     1      11.464  73.020  49.231  1.00  0.00     0.118 C 
ATOM     24  H4  UNL     1      10.020  74.078  50.130  1.00  0.00     0.186 HD
BRANCH  23  25
HETATM   25  C5  UNL     1      11.100  73.485  47.905  1.00  0.00    -0.017 A 
HETATM   26  C6  UNL     1      12.043  74.097  47.112  1.00  0.00     0.013 A 
HETATM   27  C7  UNL     1      11.704  74.548  45.836  1.00  0.00     0.003 A 
HETATM   28  C8  UNL     1      10.419  74.378  45.367  1.00  0.00     0.036 A 
HETATM   29  C9  UNL     1       9.439  73.765  46.138  1.00  0.00     0.103 A 
HETATM   30  C10 UNL     1       9.821  73.335  47.395  1.00  0.00     0.048 A 
BRANCH  29  31
HETATM   31  N5  UNL     1       8.117  73.583  45.674  1.00  0.00    -0.116 N 
HETATM   32  O3  UNL     1       7.465  74.553  45.282  1.00  0.00    -0.532 OA
HETATM   33  O4  UNL     1       7.570  72.338  45.662  1.00  0.00    -0.532 OA
ENDBRANCH  29  31
ENDBRANCH  23  25
ENDBRANCH  20  22
ENDBRANCH  10  18
ENDBRANCH   1  10
BRANCH   7  34
HETATM   34  N9  UNL     1      17.379  74.729  55.457  1.00  0.00    -0.309 N 
HETATM   35  C13 UNL     1      18.204  73.746  55.555  1.00  0.00     0.121 C 
ATOM     36  H9  UNL     1      17.342  75.437  56.190  1.00  0.00     0.186 HD
BRANCH  35  37
HETATM   37  C14 UNL     1      19.063  73.694  56.738  1.00  0.00     0.017 A 
HETATM   38  C15 UNL     1      19.137  72.514  57.477  1.00  0.00     0.018 A 
HETATM   39  C16 UNL     1      19.936  72.431  58.596  1.00  0.00     0.040 A 
HETATM   40  C17 UNL     1      20.693  73.485  59.043  1.00  0.00     0.101 A 
HETATM   41  C18 UNL     1      20.625  74.652  58.320  1.00  0.00     0.133 A 
HETATM   42  C19 UNL     1      19.819  74.755  57.181  1.00  0.00     0.113 A 
BRANCH  40  43
HETATM   43  O5  UNL     1      21.483  73.355  60.178  1.00  0.00    -0.358 OA
ATOM     44  H5  UNL     1      22.234  72.774  60.178  1.00  0.00     0.217 HD
ENDBRANCH  40  43
BRANCH  41  45
HETATM   45  O6  UNL     1      21.378  75.739  58.743  1.00  0.00    -0.356 OA
ATOM     46  H6  UNL     1      21.134  76.606  58.438  1.00  0.00     0.218 HD
ENDBRANCH  41  45
BRANCH  42  47
HETATM   47  O7  UNL     1      19.779  75.941  56.483  1.00  0.00    -0.357 OA
ATOM     48  H7  UNL     1      20.593  76.323  56.177  1.00  0.00     0.217 HD
ENDBRANCH  42  47
ENDBRANCH  35  37
ENDBRANCH   7  34
TORSDOF 12
ENDMDL
