MODEL 1
REMARK VINA RESULT: -8.604161986      0.000      0.000
REMARK  12 active torsions:
REMARK  status: ('A' for Active; 'I' for Inactive)
REMARK    1  A    between atoms: N1_1  and  C1_4 
REMARK    2  A    between atoms: C4_14  and  C5_15 
REMARK    3  A    between atoms: C5_15  and  N5_16 
REMARK    4  A    between atoms: C5_15  and  C11_33 
REMARK    5  A    between atoms: N5_16  and  C6_18 
REMARK    6  A    between atoms: C6_18  and  C7_19 
REMARK    7  A    between atoms: C6_18  and  C10_25 
REMARK    8  A    between atoms: C10_25  and  O3_26 
REMARK    9  A    between atoms: C10_25  and  N7_28 
REMARK   10  A    between atoms: N7_28  and  N8_30 
REMARK   11  A    between atoms: C14_36  and  C15_37 
REMARK   12  A    between atoms: C19_41  and  N9_42 
ROOT
HETATM    1  C5  UNL     1      13.493  74.394  53.402  1.00  0.00     0.205 C 
ENDROOT
BRANCH   1   2
HETATM    2  C4  UNL     1      14.893  74.279  53.961  1.00  0.00     0.142 A 
HETATM    3  N4  UNL     1      15.471  73.093  54.211  1.00  0.00    -0.174 N 
HETATM    4  C3  UNL     1      16.691  73.287  54.692  1.00  0.00     0.724 A 
ATOM      5  H4  UNL     1      15.037  72.183  54.054  1.00  0.00     0.185 HD
HETATM    6  N3  UNL     1      17.657  72.426  55.091  1.00  0.00    -0.138 N 
HETATM    7  N11 UNL     1      16.876  74.624  54.743  1.00  0.00     0.091 N 
HETATM    8  C2  UNL     1      18.824  72.884  55.547  1.00  0.00     0.352 A 
ATOM      9  H3  UNL     1      17.492  71.420  55.041  1.00  0.00     0.189 HD
HETATM   10  N2  UNL     1      19.032  74.200  55.608  1.00  0.00    -0.139 N 
HETATM   11  O1  UNL     1      19.743  72.098  55.926  1.00  0.00    -0.246 OA
HETATM   12  C1  UNL     1      18.065  75.043  55.209  1.00  0.00     0.716 A 
ATOM     13  H2  UNL     1      19.919  74.563  55.955  1.00  0.00     0.189 HD
HETATM   14  N10 UNL     1      15.767  75.216  54.292  1.00  0.00    -0.250 N 
ATOM     15  H10 UNL     1      15.619  76.223  54.216  1.00  0.00     0.190 HD
BRANCH  12  16
HETATM   16  N1  UNL     1      18.278  76.300  55.273  1.00  0.00    -0.232 N 
ATOM     17  H12 UNL     1      18.312  76.737  56.194  1.00  0.00     0.174 HD
ATOM     18  H11 UNL     1      18.408  76.822  54.407  1.00  0.00     0.174 HD
ENDBRANCH  12  16
ENDBRANCH   1   2
BRANCH   1  19
HETATM   19  N5  UNL     1      12.760  73.325  53.979  1.00  0.00    -0.391 N 
ATOM     20  H5  UNL     1      13.198  72.419  54.149  1.00  0.00     0.155 HD
BRANCH  19  21
HETATM   21  C6  UNL     1      11.395  73.553  54.315  1.00  0.00     0.203 C 
BRANCH  21  22
HETATM   22  C7  UNL     1      10.581  72.826  53.305  1.00  0.00     0.141 C 
HETATM   23  N6  UNL     1      10.973  71.894  52.492  1.00  0.00    -0.370 N 
HETATM   24  C8  UNL     1       9.901  71.423  51.655  1.00  0.00     0.148 C 
ATOM     25  H6  UNL     1      11.928  71.538  52.450  1.00  0.00     0.161 HD
HETATM   26  C9  UNL     1       8.685  72.038  52.292  1.00  0.00     0.197 C 
HETATM   27  O2  UNL     1       9.235  73.062  53.092  1.00  0.00    -0.336 OA
ENDBRANCH  21  22
BRANCH  21  28
HETATM   28  C10 UNL     1      10.962  73.181  55.692  1.00  0.00     0.262 C 
BRANCH  28  29
HETATM   29  O3  UNL     1      10.398  71.892  55.726  1.00  0.00    -0.373 OA
ATOM     30  H3  UNL     1       9.515  71.907  56.077  1.00  0.00     0.212 HD
ENDBRANCH  28  29
BRANCH  28  31
HETATM   31  N7  UNL     1      10.205  74.112  56.437  1.00  0.00    -0.312 N 
ATOM     32  H7  UNL     1      10.554  74.502  57.313  1.00  0.00     0.182 HD
BRANCH  31  33
HETATM   33  N8  UNL     1       8.968  74.475  55.926  1.00  0.00    -0.347 N 
ATOM     34  H82 UNL     1       8.843  74.615  54.924  1.00  0.00     0.176 HD
ATOM     35  H81 UNL     1       8.206  74.592  56.593  1.00  0.00     0.176 HD
ENDBRANCH  31  33
ENDBRANCH  28  31
ENDBRANCH  21  28
ENDBRANCH  19  21
ENDBRANCH   1  19
BRANCH   1  36
HETATM   36  C11 UNL     1      13.544  74.345  51.920  1.00  0.00     0.083 A 
HETATM   37  C12 UNL     1      14.683  74.545  51.167  1.00  0.00     0.038 A 
HETATM   38  C13 UNL     1      14.328  74.420  49.819  1.00  0.00     0.040 A 
HETATM   39  C14 UNL     1      12.981  74.149  49.850  1.00  0.00     0.086 A 
HETATM   40  O6  UNL     1      12.557  74.112  51.080  1.00  0.00    -0.312 OA
BRANCH  39  41
HETATM   41  C15 UNL     1      12.168  73.937  48.639  1.00  0.00     0.000 A 
HETATM   42  C16 UNL     1      12.635  74.296  47.394  1.00  0.00     0.014 A 
HETATM   43  C17 UNL     1      11.908  74.115  46.242  1.00  0.00     0.003 A 
HETATM   44  C18 UNL     1      10.659  73.549  46.332  1.00  0.00     0.036 A 
HETATM   45  C19 UNL     1      10.160  73.175  47.575  1.00  0.00     0.103 A 
HETATM   46  C20 UNL     1      10.913  73.369  48.713  1.00  0.00     0.050 A 
BRANCH  45  47
HETATM   47  N9  UNL     1       8.861  72.584  47.684  1.00  0.00    -0.116 N 
HETATM   48  O4  UNL     1       8.443  71.921  46.722  1.00  0.00    -0.532 OA
HETATM   49  O5  UNL     1       8.129  72.764  48.834  1.00  0.00    -0.532 OA
ENDBRANCH  45  47
ENDBRANCH  39  41
ENDBRANCH   1  36
TORSDOF 12
ENDMDL
MODEL 2
REMARK VINA RESULT: -8.414184381      2.687      5.832
REMARK  12 active torsions:
REMARK  status: ('A' for Active; 'I' for Inactive)
REMARK    1  A    between atoms: N1_1  and  C1_4 
REMARK    2  A    between atoms: C4_14  and  C5_15 
REMARK    3  A    between atoms: C5_15  and  N5_16 
REMARK    4  A    between atoms: C5_15  and  C11_33 
REMARK    5  A    between atoms: N5_16  and  C6_18 
REMARK    6  A    between atoms: C6_18  and  C7_19 
REMARK    7  A    between atoms: C6_18  and  C10_25 
REMARK    8  A    between atoms: C10_25  and  O3_26 
REMARK    9  A    between atoms: C10_25  and  N7_28 
REMARK   10  A    between atoms: N7_28  and  N8_30 
REMARK   11  A    between atoms: C14_36  and  C15_37 
REMARK   12  A    between atoms: C19_41  and  N9_42 
ROOT
HETATM    1  C5  UNL     1      14.362  74.379  52.502  1.00  0.00     0.205 C 
ENDROOT
BRANCH   1   2
HETATM    2  C4  UNL     1      13.558  75.519  53.084  1.00  0.00     0.142 A 
HETATM    3  N4  UNL     1      14.089  76.411  53.935  1.00  0.00    -0.174 N 
HETATM    4  C3  UNL     1      13.165  77.295  54.284  1.00  0.00     0.724 A 
ATOM      5  H4  UNL     1      15.055  76.408  54.263  1.00  0.00     0.185 HD
HETATM    6  N3  UNL     1      13.203  78.372  55.106  1.00  0.00    -0.138 N 
HETATM    7  N11 UNL     1      12.033  76.945  53.636  1.00  0.00     0.091 N 
HETATM    8  C2  UNL     1      12.112  79.117  55.294  1.00  0.00     0.352 A 
ATOM      9  H3  UNL     1      14.071  78.615  55.583  1.00  0.00     0.189 HD
HETATM   10  N2  UNL     1      10.982  78.792  54.665  1.00  0.00    -0.139 N 
HETATM   11  O1  UNL     1      12.123  80.128  56.057  1.00  0.00    -0.246 OA
HETATM   12  C1  UNL     1      10.958  77.722  53.853  1.00  0.00     0.716 A 
ATOM     13  H2  UNL     1      10.141  79.353  54.800  1.00  0.00     0.189 HD
HETATM   14  N10 UNL     1      12.290  75.857  52.906  1.00  0.00    -0.250 N 
ATOM     15  H10 UNL     1      11.622  75.368  52.311  1.00  0.00     0.190 HD
BRANCH  12  16
HETATM   16  N1  UNL     1       9.869  77.423  53.258  1.00  0.00    -0.232 N 
ATOM     17  H12 UNL     1       9.304  76.663  53.638  1.00  0.00     0.174 HD
ATOM     18  H11 UNL     1       9.600  77.952  52.429  1.00  0.00     0.174 HD
ENDBRANCH  12  16
ENDBRANCH   1   2
BRANCH   1  19
HETATM   19  N5  UNL     1      15.707  74.625  52.882  1.00  0.00    -0.391 N 
ATOM     20  H5  UNL     1      16.170  75.501  52.640  1.00  0.00     0.155 HD
BRANCH  19  21
HETATM   21  C6  UNL     1      16.392  73.612  53.613  1.00  0.00     0.203 C 
BRANCH  21  22
HETATM   22  C7  UNL     1      17.808  74.051  53.725  1.00  0.00     0.141 C 
HETATM   23  N6  UNL     1      18.639  74.303  52.761  1.00  0.00    -0.370 N 
HETATM   24  C8  UNL     1      19.930  74.706  53.253  1.00  0.00     0.148 C 
ATOM     25  H6  UNL     1      18.405  74.225  51.771  1.00  0.00     0.161 HD
HETATM   26  C9  UNL     1      19.673  74.934  54.717  1.00  0.00     0.197 C 
HETATM   27  O2  UNL     1      18.454  74.257  54.931  1.00  0.00    -0.336 OA
ENDBRANCH  21  22
BRANCH  21  28
HETATM   28  C10 UNL     1      15.852  73.261  54.957  1.00  0.00     0.262 C 
BRANCH  28  29
HETATM   29  O3  UNL     1      15.718  74.401  55.774  1.00  0.00    -0.373 OA
ATOM     30  H3  UNL     1      14.886  74.837  55.629  1.00  0.00     0.212 HD
ENDBRANCH  28  29
BRANCH  28  31
HETATM   31  N7  UNL     1      16.425  72.174  55.653  1.00  0.00    -0.312 N 
ATOM     32  H7  UNL     1      16.450  71.238  55.249  1.00  0.00     0.182 HD
BRANCH  31  33
HETATM   33  N8  UNL     1      16.952  72.433  56.909  1.00  0.00    -0.347 N 
ATOM     34  H82 UNL     1      16.344  72.715  57.678  1.00  0.00     0.176 HD
ATOM     35  H81 UNL     1      17.960  72.330  57.021  1.00  0.00     0.176 HD
ENDBRANCH  31  33
ENDBRANCH  28  31
ENDBRANCH  21  28
ENDBRANCH  19  21
ENDBRANCH   1  19
BRANCH   1  36
HETATM   36  C11 UNL     1      14.162  74.329  51.033  1.00  0.00     0.083 A 
HETATM   37  C12 UNL     1      15.174  74.432  50.100  1.00  0.00     0.038 A 
HETATM   38  C13 UNL     1      14.591  74.341  48.831  1.00  0.00     0.040 A 
HETATM   39  C14 UNL     1      13.249  74.188  49.087  1.00  0.00     0.086 A 
HETATM   40  O6  UNL     1      13.033  74.185  50.371  1.00  0.00    -0.312 OA
BRANCH  39  41
HETATM   41  C15 UNL     1      12.232  74.050  48.030  1.00  0.00     0.000 A 
HETATM   42  C16 UNL     1      12.445  74.550  46.764  1.00  0.00     0.014 A 
HETATM   43  C17 UNL     1      11.522  74.441  45.751  1.00  0.00     0.003 A 
HETATM   44  C18 UNL     1      10.332  73.805  46.009  1.00  0.00     0.036 A 
HETATM   45  C19 UNL     1      10.087  73.289  47.277  1.00  0.00     0.103 A 
HETATM   46  C20 UNL     1      11.032  73.413  48.273  1.00  0.00     0.050 A 
BRANCH  45  47
HETATM   47  N9  UNL     1       8.852  72.623  47.560  1.00  0.00    -0.116 N 
HETATM   48  O4  UNL     1       8.340  72.801  48.677  1.00  0.00    -0.532 OA
HETATM   49  O5  UNL     1       8.278  71.821  46.601  1.00  0.00    -0.532 OA
ENDBRANCH  45  47
ENDBRANCH  39  41
ENDBRANCH   1  36
TORSDOF 12
ENDMDL
MODEL 3
REMARK VINA RESULT: -8.283885270      2.590      6.263
REMARK  12 active torsions:
REMARK  status: ('A' for Active; 'I' for Inactive)
REMARK    1  A    between atoms: N1_1  and  C1_4 
REMARK    2  A    between atoms: C4_14  and  C5_15 
REMARK    3  A    between atoms: C5_15  and  N5_16 
REMARK    4  A    between atoms: C5_15  and  C11_33 
REMARK    5  A    between atoms: N5_16  and  C6_18 
REMARK    6  A    between atoms: C6_18  and  C7_19 
REMARK    7  A    between atoms: C6_18  and  C10_25 
REMARK    8  A    between atoms: C10_25  and  O3_26 
REMARK    9  A    between atoms: C10_25  and  N7_28 
REMARK   10  A    between atoms: N7_28  and  N8_30 
REMARK   11  A    between atoms: C14_36  and  C15_37 
REMARK   12  A    between atoms: C19_41  and  N9_42 
ROOT
HETATM    1  C5  UNL     1      11.660  73.498  53.168  1.00  0.00     0.205 C 
ENDROOT
BRANCH   1   2
HETATM    2  C4  UNL     1      10.637  74.470  53.709  1.00  0.00     0.142 A 
HETATM    3  N4  UNL     1      10.320  75.608  53.072  1.00  0.00    -0.174 N 
HETATM    4  C3  UNL     1       9.401  76.264  53.765  1.00  0.00     0.724 A 
ATOM      5  H4  UNL     1      10.725  75.920  52.189  1.00  0.00     0.185 HD
HETATM    6  N3  UNL     1       8.766  77.441  53.547  1.00  0.00    -0.138 N 
HETATM    7  N11 UNL     1       9.140  75.518  54.861  1.00  0.00     0.091 N 
HETATM    8  C2  UNL     1       7.862  77.893  54.418  1.00  0.00     0.352 A 
ATOM      9  H3  UNL     1       8.981  77.986  52.712  1.00  0.00     0.189 HD
HETATM   10  N2  UNL     1       7.587  77.174  55.507  1.00  0.00    -0.139 N 
HETATM   11  O1  UNL     1       7.256  78.990  54.236  1.00  0.00    -0.246 OA
HETATM   12  C1  UNL     1       8.223  76.008  55.712  1.00  0.00     0.716 A 
ATOM     13  H2  UNL     1       6.898  77.508  56.181  1.00  0.00     0.189 HD
HETATM   14  N10 UNL     1       9.905  74.424  54.811  1.00  0.00    -0.250 N 
ATOM     15  H10 UNL     1       9.921  73.677  55.506  1.00  0.00     0.190 HD
BRANCH  12  16
HETATM   16  N1  UNL     1       7.949  75.332  56.759  1.00  0.00    -0.232 N 
ATOM     17  H12 UNL     1       7.223  75.683  57.383  1.00  0.00     0.174 HD
ATOM     18  H11 UNL     1       8.462  74.469  56.936  1.00  0.00     0.174 HD
ENDBRANCH  12  16
ENDBRANCH   1   2
BRANCH   1  19
HETATM   19  N5  UNL     1      12.892  74.205  53.155  1.00  0.00    -0.391 N 
ATOM     20  H5  UNL     1      13.329  74.480  52.275  1.00  0.00     0.155 HD
BRANCH  19  21
HETATM   21  C6  UNL     1      13.498  74.518  54.404  1.00  0.00     0.203 C 
BRANCH  21  22
HETATM   22  C7  UNL     1      14.866  73.940  54.371  1.00  0.00     0.141 C 
HETATM   23  N6  UNL     1      15.337  72.974  55.098  1.00  0.00    -0.370 N 
HETATM   24  C8  UNL     1      16.711  72.683  54.785  1.00  0.00     0.148 C 
ATOM     25  H6  UNL     1      14.797  72.479  55.808  1.00  0.00     0.161 HD
HETATM   26  C9  UNL     1      16.938  73.463  53.520  1.00  0.00     0.197 C 
HETATM   27  O2  UNL     1      15.864  74.379  53.519  1.00  0.00    -0.336 OA
ENDBRANCH  21  22
BRANCH  21  28
HETATM   28  C10 UNL     1      13.554  75.957  54.790  1.00  0.00     0.262 C 
BRANCH  28  29
HETATM   29  O3  UNL     1      12.403  76.346  55.503  1.00  0.00    -0.373 OA
ATOM     30  H3  UNL     1      12.140  77.232  55.282  1.00  0.00     0.212 HD
ENDBRANCH  28  29
BRANCH  28  31
HETATM   31  N7  UNL     1      13.918  76.907  53.811  1.00  0.00    -0.312 N 
ATOM     32  H7  UNL     1      14.849  76.910  53.393  1.00  0.00     0.182 HD
BRANCH  31  33
HETATM   33  N8  UNL     1      12.957  77.834  53.440  1.00  0.00    -0.347 N 
ATOM     34  H82 UNL     1      12.069  77.887  53.940  1.00  0.00     0.176 HD
ATOM     35  H81 UNL     1      13.179  78.447  52.656  1.00  0.00     0.176 HD
ENDBRANCH  31  33
ENDBRANCH  28  31
ENDBRANCH  21  28
ENDBRANCH  19  21
ENDBRANCH   1  19
BRANCH   1  36
HETATM   36  C11 UNL     1      11.235  73.023  51.829  1.00  0.00     0.083 A 
HETATM   37  C12 UNL     1      10.746  71.760  51.564  1.00  0.00     0.038 A 
HETATM   38  C13 UNL     1      10.458  71.696  50.196  1.00  0.00     0.040 A 
HETATM   39  C14 UNL     1      10.798  72.941  49.721  1.00  0.00     0.086 A 
HETATM   40  O6  UNL     1      11.244  73.686  50.691  1.00  0.00    -0.312 OA
BRANCH  39  41
HETATM   41  C15 UNL     1      10.660  73.336  48.308  1.00  0.00     0.000 A 
HETATM   42  C16 UNL     1      11.736  73.814  47.592  1.00  0.00     0.014 A 
HETATM   43  C17 UNL     1      11.649  74.192  46.274  1.00  0.00     0.003 A 
HETATM   44  C18 UNL     1      10.435  74.090  45.637  1.00  0.00     0.036 A 
HETATM   45  C19 UNL     1       9.330  73.611  46.333  1.00  0.00     0.103 A 
HETATM   46  C20 UNL     1       9.449  73.239  47.655  1.00  0.00     0.050 A 
BRANCH  45  47
HETATM   47  N9  UNL     1       8.060  73.499  45.683  1.00  0.00    -0.116 N 
HETATM   48  O4  UNL     1       7.571  74.525  45.185  1.00  0.00    -0.532 OA
HETATM   49  O5  UNL     1       7.431  72.277  45.630  1.00  0.00    -0.532 OA
ENDBRANCH  45  47
ENDBRANCH  39  41
ENDBRANCH   1  36
TORSDOF 12
ENDMDL
MODEL 4
REMARK VINA RESULT: -8.121716940      1.775      2.527
REMARK  12 active torsions:
REMARK  status: ('A' for Active; 'I' for Inactive)
REMARK    1  A    between atoms: N1_1  and  C1_4 
REMARK    2  A    between atoms: C4_14  and  C5_15 
REMARK    3  A    between atoms: C5_15  and  N5_16 
REMARK    4  A    between atoms: C5_15  and  C11_33 
REMARK    5  A    between atoms: N5_16  and  C6_18 
REMARK    6  A    between atoms: C6_18  and  C7_19 
REMARK    7  A    between atoms: C6_18  and  C10_25 
REMARK    8  A    between atoms: C10_25  and  O3_26 
REMARK    9  A    between atoms: C10_25  and  N7_28 
REMARK   10  A    between atoms: N7_28  and  N8_30 
REMARK   11  A    between atoms: C14_36  and  C15_37 
REMARK   12  A    between atoms: C19_41  and  N9_42 
ROOT
HETATM    1  C5  UNL     1      12.098  74.202  53.659  1.00  0.00     0.205 C 
ENDROOT
BRANCH   1   2
HETATM    2  C4  UNL     1      13.570  73.945  53.886  1.00  0.00     0.142 A 
HETATM    3  N4  UNL     1      14.516  74.392  53.045  1.00  0.00    -0.174 N 
HETATM    4  C3  UNL     1      15.711  74.026  53.486  1.00  0.00     0.724 A 
ATOM      5  H4  UNL     1      14.341  74.930  52.196  1.00  0.00     0.185 HD
HETATM    6  N3  UNL     1      16.959  74.229  53.000  1.00  0.00    -0.138 N 
HETATM    7  N11 UNL     1      15.505  73.335  54.628  1.00  0.00     0.091 N 
HETATM    8  C2  UNL     1      18.022  73.746  53.646  1.00  0.00     0.352 A 
ATOM      9  H3  UNL     1      17.088  74.755  52.136  1.00  0.00     0.189 HD
HETATM   10  N2  UNL     1      17.845  73.060  54.776  1.00  0.00    -0.139 N 
HETATM   11  O1  UNL     1      19.199  73.922  53.212  1.00  0.00    -0.246 OA
HETATM   12  C1  UNL     1      16.601  72.866  55.247  1.00  0.00     0.716 A 
ATOM     13  H2  UNL     1      18.649  72.685  55.280  1.00  0.00     0.189 HD
HETATM   14  N10 UNL     1      14.190  73.295  54.859  1.00  0.00    -0.250 N 
ATOM     15  H10 UNL     1      13.739  72.839  55.652  1.00  0.00     0.190 HD
BRANCH  12  16
HETATM   16  N1  UNL     1      16.448  72.207  56.329  1.00  0.00    -0.232 N 
ATOM     17  H12 UNL     1      17.206  71.598  56.635  1.00  0.00     0.174 HD
ATOM     18  H11 UNL     1      15.578  72.312  56.850  1.00  0.00     0.174 HD
ENDBRANCH  12  16
ENDBRANCH   1   2
BRANCH   1  19
HETATM   19  N5  UNL     1      11.435  73.666  54.794  1.00  0.00    -0.391 N 
ATOM     20  H5  UNL     1      11.730  72.781  55.204  1.00  0.00     0.155 HD
BRANCH  19  21
HETATM   21  C6  UNL     1      10.347  74.402  55.343  1.00  0.00     0.203 C 
BRANCH  21  22
HETATM   22  C7  UNL     1       9.107  73.675  54.965  1.00  0.00     0.141 C 
HETATM   23  N6  UNL     1       8.013  74.173  54.476  1.00  0.00    -0.370 N 
HETATM   24  C8  UNL     1       7.021  73.160  54.231  1.00  0.00     0.148 C 
ATOM     25  H6  UNL     1       7.873  75.166  54.287  1.00  0.00     0.161 HD
HETATM   26  C9  UNL     1       7.799  71.884  54.395  1.00  0.00     0.197 C 
HETATM   27  O2  UNL     1       8.951  72.306  55.092  1.00  0.00    -0.336 OA
ENDBRANCH  21  22
BRANCH  21  28
HETATM   28  C10 UNL     1      10.370  74.655  56.812  1.00  0.00     0.262 C 
BRANCH  28  29
HETATM   29  O3  UNL     1       9.123  74.373  57.404  1.00  0.00    -0.373 OA
ATOM     30  H3  UNL     1       8.923  74.986  58.103  1.00  0.00     0.212 HD
ENDBRANCH  28  29
BRANCH  28  31
HETATM   31  N7  UNL     1      10.917  75.870  57.280  1.00  0.00    -0.312 N 
ATOM     32  H7  UNL     1      10.340  76.567  57.750  1.00  0.00     0.182 HD
BRANCH  31  33
HETATM   33  N8  UNL     1      12.273  76.074  57.074  1.00  0.00    -0.347 N 
ATOM     34  H82 UNL     1      12.620  76.985  56.775  1.00  0.00     0.176 HD
ATOM     35  H81 UNL     1      12.893  75.280  57.234  1.00  0.00     0.176 HD
ENDBRANCH  31  33
ENDBRANCH  28  31
ENDBRANCH  21  28
ENDBRANCH  19  21
ENDBRANCH   1  19
BRANCH   1  36
HETATM   36  C11 UNL     1      11.677  73.581  52.379  1.00  0.00     0.083 A 
HETATM   37  C12 UNL     1      11.123  72.322  52.264  1.00  0.00     0.038 A 
HETATM   38  C13 UNL     1      10.863  72.096  50.908  1.00  0.00     0.040 A 
HETATM   39  C14 UNL     1      11.283  73.249  50.288  1.00  0.00     0.086 A 
HETATM   40  O6  UNL     1      11.749  74.089  51.166  1.00  0.00    -0.312 OA
BRANCH  39  41
HETATM   41  C15 UNL     1      11.200  73.464  48.832  1.00  0.00     0.000 A 
HETATM   42  C16 UNL     1      12.308  73.834  48.101  1.00  0.00     0.014 A 
HETATM   43  C17 UNL     1      12.271  74.044  46.743  1.00  0.00     0.003 A 
HETATM   44  C18 UNL     1      11.078  73.877  46.082  1.00  0.00     0.036 A 
HETATM   45  C19 UNL     1       9.943  73.504  46.792  1.00  0.00     0.103 A 
HETATM   46  C20 UNL     1      10.010  73.301  48.154  1.00  0.00     0.050 A 
BRANCH  45  47
HETATM   47  N9  UNL     1       8.694  73.327  46.116  1.00  0.00    -0.116 N 
HETATM   48  O4  UNL     1       8.053  72.289  46.345  1.00  0.00    -0.532 OA
HETATM   49  O5  UNL     1       8.248  74.297  45.250  1.00  0.00    -0.532 OA
ENDBRANCH  45  47
ENDBRANCH  39  41
ENDBRANCH   1  36
TORSDOF 12
ENDMDL
MODEL 5
REMARK VINA RESULT: -8.116243941      3.486      5.962
REMARK  12 active torsions:
REMARK  status: ('A' for Active; 'I' for Inactive)
REMARK    1  A    between atoms: N1_1  and  C1_4 
REMARK    2  A    between atoms: C4_14  and  C5_15 
REMARK    3  A    between atoms: C5_15  and  N5_16 
REMARK    4  A    between atoms: C5_15  and  C11_33 
REMARK    5  A    between atoms: N5_16  and  C6_18 
REMARK    6  A    between atoms: C6_18  and  C7_19 
REMARK    7  A    between atoms: C6_18  and  C10_25 
REMARK    8  A    between atoms: C10_25  and  O3_26 
REMARK    9  A    between atoms: C10_25  and  N7_28 
REMARK   10  A    between atoms: N7_28  and  N8_30 
REMARK   11  A    between atoms: C14_36  and  C15_37 
REMARK   12  A    between atoms: C19_41  and  N9_42 
ROOT
HETATM    1  C5  UNL     1      11.724  73.675  51.694  1.00  0.00     0.205 C 
ENDROOT
BRANCH   1   2
HETATM    2  C4  UNL     1      11.706  74.564  52.917  1.00  0.00     0.142 A 
HETATM    3  N4  UNL     1      12.219  74.175  54.094  1.00  0.00    -0.174 N 
HETATM    4  C3  UNL     1      12.070  75.145  54.985  1.00  0.00     0.724 A 
ATOM      5  H4  UNL     1      12.657  73.272  54.275  1.00  0.00     0.185 HD
HETATM    6  N3  UNL     1      12.416  75.240  56.291  1.00  0.00    -0.138 N 
HETATM    7  N11 UNL     1      11.448  76.161  54.347  1.00  0.00     0.091 N 
HETATM    8  C2  UNL     1      12.147  76.349  56.983  1.00  0.00     0.352 A 
ATOM      9  H3  UNL     1      12.885  74.459  56.750  1.00  0.00     0.189 HD
HETATM   10  N2  UNL     1      11.534  77.366  56.376  1.00  0.00    -0.139 N 
HETATM   11  O1  UNL     1      12.460  76.461  58.205  1.00  0.00    -0.246 OA
HETATM   12  C1  UNL     1      11.196  77.259  55.080  1.00  0.00     0.716 A 
ATOM     13  H2  UNL     1      11.323  78.219  56.893  1.00  0.00     0.189 HD
HETATM   14  N10 UNL     1      11.233  75.789  53.083  1.00  0.00    -0.250 N 
ATOM     15  H10 UNL     1      10.780  76.355  52.365  1.00  0.00     0.190 HD
BRANCH  12  16
HETATM   16  N1  UNL     1      10.610  78.241  54.512  1.00  0.00    -0.232 N 
ATOM     17  H12 UNL     1      10.721  79.169  54.919  1.00  0.00     0.174 HD
ATOM     18  H11 UNL     1      10.053  78.066  53.676  1.00  0.00     0.174 HD
ENDBRANCH  12  16
ENDBRANCH   1   2
BRANCH   1  19
HETATM   19  N5  UNL     1      12.283  74.464  50.654  1.00  0.00    -0.391 N 
ATOM     20  H5  UNL     1      12.010  75.439  50.531  1.00  0.00     0.155 HD
BRANCH  19  21
HETATM   21  C6  UNL     1      13.236  73.854  49.790  1.00  0.00     0.203 C 
BRANCH  21  22
HETATM   22  C7  UNL     1      12.618  73.810  48.438  1.00  0.00     0.141 C 
HETATM   23  N6  UNL     1      11.356  73.738  48.145  1.00  0.00    -0.370 N 
HETATM   24  C8  UNL     1      11.133  73.715  46.723  1.00  0.00     0.148 C 
ATOM     25  H6  UNL     1      10.610  73.701  48.840  1.00  0.00     0.161 HD
HETATM   26  C9  UNL     1      12.484  74.073  46.168  1.00  0.00     0.197 C 
HETATM   27  O2  UNL     1      13.345  73.840  47.262  1.00  0.00    -0.336 OA
ENDBRANCH  21  22
BRANCH  21  28
HETATM   28  C10 UNL     1      14.587  74.479  49.719  1.00  0.00     0.262 C 
BRANCH  28  29
HETATM   29  O3  UNL     1      14.624  75.527  48.779  1.00  0.00    -0.373 OA
ATOM     30  H3  UNL     1      15.086  76.284  49.120  1.00  0.00     0.212 HD
ENDBRANCH  28  29
BRANCH  28  31
HETATM   31  N7  UNL     1      15.717  73.637  49.620  1.00  0.00    -0.312 N 
ATOM     32  H7  UNL     1      15.889  73.074  48.787  1.00  0.00     0.182 HD
BRANCH  31  33
HETATM   33  N8  UNL     1      16.581  73.608  50.704  1.00  0.00    -0.347 N 
ATOM     34  H82 UNL     1      17.206  74.393  50.888  1.00  0.00     0.176 HD
ATOM     35  H81 UNL     1      16.560  72.777  51.294  1.00  0.00     0.176 HD
ENDBRANCH  31  33
ENDBRANCH  28  31
ENDBRANCH  21  28
ENDBRANCH  19  21
ENDBRANCH   1  19
BRANCH   1  36
HETATM   36  C11 UNL     1      10.348  73.202  51.403  1.00  0.00     0.083 A 
HETATM   37  C12 UNL     1       9.572  72.468  52.276  1.00  0.00     0.038 A 
HETATM   38  C13 UNL     1       8.349  72.214  51.645  1.00  0.00     0.040 A 
HETATM   39  C14 UNL     1       8.472  72.820  50.416  1.00  0.00     0.086 A 
HETATM   40  O6  UNL     1       9.641  73.383  50.308  1.00  0.00    -0.312 OA
BRANCH  39  41
HETATM   41  C15 UNL     1       7.408  72.811  49.397  1.00  0.00     0.000 A 
HETATM   42  C16 UNL     1       6.084  72.664  49.747  1.00  0.00     0.014 A 
HETATM   43  C17 UNL     1       5.064  72.651  48.826  1.00  0.00     0.003 A 
HETATM   44  C18 UNL     1       5.375  72.791  47.495  1.00  0.00     0.036 A 
HETATM   45  C19 UNL     1       6.702  72.941  47.110  1.00  0.00     0.103 A 
HETATM   46  C20 UNL     1       7.704  72.951  48.057  1.00  0.00     0.050 A 
BRANCH  45  47
HETATM   47  N9  UNL     1       7.041  73.088  45.727  1.00  0.00    -0.116 N 
HETATM   48  O4  UNL     1       6.940  72.090  44.996  1.00  0.00    -0.532 OA
HETATM   49  O5  UNL     1       7.460  74.310  45.257  1.00  0.00    -0.532 OA
ENDBRANCH  45  47
ENDBRANCH  39  41
ENDBRANCH   1  36
TORSDOF 12
ENDMDL
