MODEL 1
REMARK VINA RESULT: -8.192602934      0.000      0.000
REMARK  12 active torsions:
REMARK  status: ('A' for Active; 'I' for Inactive)
REMARK    1  A    between atoms: C4_4  and  N1_5 
REMARK    2  A    between atoms: N1_5  and  N2_7 
REMARK       I    between atoms: N2_7  and  C5_9 
REMARK    3  A    between atoms: C5_9  and  C6_11 
REMARK    4  A    between atoms: C7_12  and  C8_13 
REMARK    5  A    between atoms: C8_13  and  O2_14 
REMARK    6  A    between atoms: C8_13  and  O3_16 
REMARK    7  A    between atoms: N4_23  and  N5_24 
REMARK    8  A    between atoms: C10_26  and  C11_27 
REMARK    9  A    between atoms: C14_30  and  N6_31 
REMARK   10  A    between atoms: C16_37  and  N7_38 
REMARK   11  A    between atoms: N7_38  and  O9_39 
REMARK   12  A    between atoms: N7_38  and  O10_41 
ROOT
HETATM    1  C1  UNL     1      10.378  73.796  45.757  1.00  0.00     0.050 C 
HETATM    2  C2  UNL     1       9.470  73.399  46.874  1.00  0.00    -0.027 A 
HETATM    3  C3  UNL     1       9.926  73.164  48.148  1.00  0.00     0.060 A 
HETATM    4  C4  UNL     1       9.107  72.799  49.184  1.00  0.00     0.145 A 
HETATM    5  N4  UNL     1       7.791  72.665  48.938  1.00  0.00    -0.201 N 
HETATM    6  C15 UNL     1       7.321  72.893  47.682  1.00  0.00     0.294 A 
HETATM    7  O8  UNL     1       6.081  72.775  47.416  1.00  0.00    -0.264 OA
HETATM    8  C16 UNL     1       8.124  73.261  46.628  1.00  0.00     0.141 A 
ENDROOT
BRANCH   4   9
HETATM    9  N1  UNL     1       9.600  72.553  50.491  1.00  0.00    -0.281 N 
ATOM     10  H1  UNL     1       8.981  72.113  51.173  1.00  0.00     0.188 HD
BRANCH   9  11
HETATM   11  N2  UNL     1      10.904  72.890  50.885  1.00  0.00    -0.264 N 
HETATM   12  C5  UNL     1      11.185  74.051  51.642  1.00  0.00     0.276 C 
HETATM   13  O1  UNL     1      10.199  74.795  51.974  1.00  0.00    -0.266 OA
ATOM     14  H2  UNL     1      11.674  72.278  50.615  1.00  0.00     0.190 HD
BRANCH  12  15
HETATM   15  C6  UNL     1      12.522  74.416  52.049  1.00  0.00     0.110 A 
HETATM   16  C7  UNL     1      13.557  74.760  51.184  1.00  0.00     0.149 A 
HETATM   17  O4  UNL     1      14.650  74.996  51.898  1.00  0.00    -0.235 OA
HETATM   18  N3  UNL     1      14.428  74.837  53.147  1.00  0.00    -0.249 N 
HETATM   19  C9  UNL     1      13.119  74.477  53.296  1.00  0.00     0.139 A 
ATOM     20  H3  UNL     1      15.107  74.958  53.898  1.00  0.00     0.196 HD
HETATM   21  S1  UNL     1      12.458  74.164  54.750  1.00  0.00    -0.057 SA
BRANCH  16  22
HETATM   22  C8  UNL     1      13.565  74.878  49.731  1.00  0.00     0.316 C 
BRANCH  22  23
HETATM   23  O2  UNL     1      14.918  75.106  49.352  1.00  0.00    -0.365 OA
ATOM     24  H2  UNL     1      14.968  74.942  48.417  1.00  0.00     0.213 HD
ENDBRANCH  22  23
BRANCH  22  25
HETATM   25  O3  UNL     1      13.246  73.647  49.130  1.00  0.00    -0.365 OA
ATOM     26  H3  UNL     1      13.819  72.959  49.449  1.00  0.00     0.213 HD
ENDBRANCH  22  25
ENDBRANCH  16  22
ENDBRANCH  12  15
ENDBRANCH   9  11
ENDBRANCH   4   9
BRANCH   5  27
HETATM   27  N5  UNL     1       6.859  72.302  49.867  1.00  0.00    -0.298 N 
HETATM   28  C10 UNL     1       6.223  72.909  50.756  1.00  0.00     0.145 C 
ATOM     29  H5  UNL     1       6.628  71.310  49.827  1.00  0.00     0.186 HD
BRANCH  28  30
HETATM   30  C11 UNL     1       6.243  74.288  51.147  1.00  0.00     0.095 A 
HETATM   31  C12 UNL     1       6.824  74.870  52.235  1.00  0.00     0.043 A 
HETATM   32  C13 UNL     1       6.561  76.250  52.166  1.00  0.00     0.065 A 
HETATM   33  C14 UNL     1       5.829  76.413  51.024  1.00  0.00     0.215 A 
HETATM   34  O7  UNL     1       5.655  75.259  50.445  1.00  0.00    -0.287 OA
BRANCH  33  35
HETATM   35  N6  UNL     1       5.326  77.670  50.533  1.00  0.00    -0.090 N 
HETATM   36  O5  UNL     1       5.327  78.663  51.291  1.00  0.00    -0.530 OA
HETATM   37  O6  UNL     1       4.858  77.749  49.247  1.00  0.00    -0.530 OA
ENDBRANCH  33  35
ENDBRANCH  28  30
ENDBRANCH   5  27
BRANCH   8  38
HETATM   38  N7  UNL     1       7.614  73.500  45.319  1.00  0.00    -0.030 NA
BRANCH  38  39
HETATM   39  O9  UNL     1       6.743  72.525  44.968  1.00  0.00    -0.284 OA
ATOM     40  H9  UNL     1       7.195  71.829  44.506  1.00  0.00     0.240 HD
ENDBRANCH  38  39
BRANCH  38  41
HETATM   41  O10 UNL     1       6.942  74.674  45.256  1.00  0.00    -0.284 OA
ATOM     42  H10 UNL     1       6.472  74.762  44.435  1.00  0.00     0.240 HD
ENDBRANCH  38  41
ENDBRANCH   8  38
TORSDOF 12
ENDMDL
MODEL 2
REMARK VINA RESULT: -8.084304016      0.980      1.250
REMARK  12 active torsions:
REMARK  status: ('A' for Active; 'I' for Inactive)
REMARK    1  A    between atoms: C4_4  and  N1_5 
REMARK    2  A    between atoms: N1_5  and  N2_7 
REMARK       I    between atoms: N2_7  and  C5_9 
REMARK    3  A    between atoms: C5_9  and  C6_11 
REMARK    4  A    between atoms: C7_12  and  C8_13 
REMARK    5  A    between atoms: C8_13  and  O2_14 
REMARK    6  A    between atoms: C8_13  and  O3_16 
REMARK    7  A    between atoms: N4_23  and  N5_24 
REMARK    8  A    between atoms: C10_26  and  C11_27 
REMARK    9  A    between atoms: C14_30  and  N6_31 
REMARK   10  A    between atoms: C16_37  and  N7_38 
REMARK   11  A    between atoms: N7_38  and  O9_39 
REMARK   12  A    between atoms: N7_38  and  O10_41 
ROOT
HETATM    1  C1  UNL     1      10.389  73.677  45.866  1.00  0.00     0.050 C 
HETATM    2  C2  UNL     1       9.427  73.318  46.949  1.00  0.00    -0.027 A 
HETATM    3  C3  UNL     1       9.824  73.082  48.242  1.00  0.00     0.060 A 
HETATM    4  C4  UNL     1       8.953  72.752  49.247  1.00  0.00     0.145 A 
HETATM    5  N4  UNL     1       7.644  72.656  48.951  1.00  0.00    -0.201 N 
HETATM    6  C15 UNL     1       7.233  72.887  47.675  1.00  0.00     0.294 A 
HETATM    7  O8  UNL     1       6.001  72.803  47.360  1.00  0.00    -0.264 OA
HETATM    8  C16 UNL     1       8.087  73.219  46.650  1.00  0.00     0.141 A 
ENDROOT
BRANCH   4   9
HETATM    9  N1  UNL     1       9.386  72.504  50.576  1.00  0.00    -0.281 N 
ATOM     10  H1  UNL     1       8.720  72.112  51.242  1.00  0.00     0.188 HD
BRANCH   9  11
HETATM   11  N2  UNL     1      10.692  72.776  51.010  1.00  0.00    -0.264 N 
HETATM   12  C5  UNL     1      11.010  73.930  51.763  1.00  0.00     0.276 C 
HETATM   13  O1  UNL     1      10.056  74.731  52.052  1.00  0.00    -0.266 OA
ATOM     14  H2  UNL     1      11.437  72.119  50.774  1.00  0.00     0.190 HD
BRANCH  12  15
HETATM   15  C6  UNL     1      12.351  74.229  52.211  1.00  0.00     0.110 A 
HETATM   16  C7  UNL     1      13.404  74.616  51.387  1.00  0.00     0.149 A 
HETATM   17  O4  UNL     1      14.494  74.766  52.129  1.00  0.00    -0.235 OA
HETATM   18  N3  UNL     1      14.253  74.513  53.358  1.00  0.00    -0.249 N 
HETATM   19  C9  UNL     1      12.934  74.173  53.465  1.00  0.00     0.139 A 
ATOM     20  H3  UNL     1      14.927  74.556  54.123  1.00  0.00     0.196 HD
HETATM   21  S1  UNL     1      12.250  73.760  54.882  1.00  0.00    -0.057 SA
BRANCH  16  22
HETATM   22  C8  UNL     1      13.432  74.852  49.948  1.00  0.00     0.316 C 
BRANCH  22  23
HETATM   23  O2  UNL     1      14.789  75.109  49.607  1.00  0.00    -0.365 OA
ATOM     24  H2  UNL     1      14.791  75.390  48.700  1.00  0.00     0.213 HD
ENDBRANCH  22  23
BRANCH  22  25
HETATM   25  O3  UNL     1      13.122  73.673  49.245  1.00  0.00    -0.365 OA
ATOM     26  H3  UNL     1      12.574  73.864  48.493  1.00  0.00     0.213 HD
ENDBRANCH  22  25
ENDBRANCH  16  22
ENDBRANCH  12  15
ENDBRANCH   9  11
ENDBRANCH   4   9
BRANCH   5  27
HETATM   27  N5  UNL     1       6.665  72.331  49.845  1.00  0.00    -0.298 N 
HETATM   28  C10 UNL     1       5.930  72.983  50.617  1.00  0.00     0.145 C 
ATOM     29  H5  UNL     1       6.495  71.327  49.893  1.00  0.00     0.186 HD
BRANCH  28  30
HETATM   30  C11 UNL     1       5.843  74.393  50.860  1.00  0.00     0.095 A 
HETATM   31  C12 UNL     1       4.857  75.271  50.520  1.00  0.00     0.043 A 
HETATM   32  C13 UNL     1       5.242  76.541  50.985  1.00  0.00     0.065 A 
HETATM   33  C14 UNL     1       6.453  76.344  51.586  1.00  0.00     0.215 A 
HETATM   34  O7  UNL     1       6.786  75.086  51.502  1.00  0.00    -0.287 OA
BRANCH  33  35
HETATM   35  N6  UNL     1       7.244  77.369  52.216  1.00  0.00    -0.090 N 
HETATM   36  O5  UNL     1       7.582  78.371  51.551  1.00  0.00    -0.530 OA
HETATM   37  O6  UNL     1       7.608  77.224  53.529  1.00  0.00    -0.530 OA
ENDBRANCH  33  35
ENDBRANCH  28  30
ENDBRANCH   5  27
BRANCH   8  38
HETATM   38  N7  UNL     1       7.638  73.461  45.320  1.00  0.00    -0.030 NA
BRANCH  38  39
HETATM   39  O9  UNL     1       6.782  72.488  44.929  1.00  0.00    -0.284 OA
ATOM     40  H9  UNL     1       6.516  71.963  45.675  1.00  0.00     0.240 HD
ENDBRANCH  38  39
BRANCH  38  41
HETATM   41  O10 UNL     1       6.971  74.637  45.229  1.00  0.00    -0.284 OA
ATOM     42  H10 UNL     1       7.288  75.161  44.503  1.00  0.00     0.240 HD
ENDBRANCH  38  41
ENDBRANCH   8  38
TORSDOF 12
ENDMDL
MODEL 3
REMARK VINA RESULT: -8.073452506      1.127      1.334
REMARK  12 active torsions:
REMARK  status: ('A' for Active; 'I' for Inactive)
REMARK    1  A    between atoms: C4_4  and  N1_5 
REMARK    2  A    between atoms: N1_5  and  N2_7 
REMARK       I    between atoms: N2_7  and  C5_9 
REMARK    3  A    between atoms: C5_9  and  C6_11 
REMARK    4  A    between atoms: C7_12  and  C8_13 
REMARK    5  A    between atoms: C8_13  and  O2_14 
REMARK    6  A    between atoms: C8_13  and  O3_16 
REMARK    7  A    between atoms: N4_23  and  N5_24 
REMARK    8  A    between atoms: C10_26  and  C11_27 
REMARK    9  A    between atoms: C14_30  and  N6_31 
REMARK   10  A    between atoms: C16_37  and  N7_38 
REMARK   11  A    between atoms: N7_38  and  O9_39 
REMARK   12  A    between atoms: N7_38  and  O10_41 
ROOT
HETATM    1  C1  UNL     1      10.246  73.387  46.387  1.00  0.00     0.050 C 
HETATM    2  C2  UNL     1       9.097  73.126  47.303  1.00  0.00    -0.027 A 
HETATM    3  C3  UNL     1       9.261  72.890  48.647  1.00  0.00     0.060 A 
HETATM    4  C4  UNL     1       8.216  72.649  49.500  1.00  0.00     0.145 A 
HETATM    5  N4  UNL     1       6.969  72.644  48.996  1.00  0.00    -0.201 N 
HETATM    6  C15 UNL     1       6.788  72.875  47.668  1.00  0.00     0.294 A 
HETATM    7  O8  UNL     1       5.620  72.876  47.158  1.00  0.00    -0.264 OA
HETATM    8  C16 UNL     1       7.819  73.119  46.792  1.00  0.00     0.141 A 
ENDROOT
BRANCH   4   9
HETATM    9  N1  UNL     1       8.409  72.400  50.884  1.00  0.00    -0.281 N 
ATOM     10  H1  UNL     1       7.600  72.153  51.455  1.00  0.00     0.188 HD
BRANCH   9  11
HETATM   11  N2  UNL     1       9.668  72.480  51.500  1.00  0.00    -0.264 N 
HETATM   12  C5  UNL     1      10.051  73.592  52.286  1.00  0.00     0.276 C 
HETATM   13  O1  UNL     1       9.201  74.536  52.433  1.00  0.00    -0.266 OA
ATOM     14  H2  UNL     1      10.327  71.712  51.376  1.00  0.00     0.190 HD
BRANCH  12  15
HETATM   15  C6  UNL     1      11.345  73.693  52.921  1.00  0.00     0.110 A 
HETATM   16  C7  UNL     1      12.488  74.225  52.330  1.00  0.00     0.149 A 
HETATM   17  O4  UNL     1      13.498  74.120  53.184  1.00  0.00    -0.235 OA
HETATM   18  N3  UNL     1      13.124  73.570  54.275  1.00  0.00    -0.249 N 
HETATM   19  C9  UNL     1      11.793  73.285  54.165  1.00  0.00     0.139 A 
ATOM     20  H3  UNL     1      13.715  73.378  55.085  1.00  0.00     0.196 HD
HETATM   21  S1  UNL     1      10.954  72.555  55.353  1.00  0.00    -0.057 SA
BRANCH  16  22
HETATM   22  C8  UNL     1      12.672  74.823  51.013  1.00  0.00     0.316 C 
BRANCH  22  23
HETATM   23  O2  UNL     1      14.062  75.101  50.887  1.00  0.00    -0.365 OA
ATOM     24  H2  UNL     1      14.258  75.083  49.957  1.00  0.00     0.213 HD
ENDBRANCH  22  23
BRANCH  22  25
HETATM   25  O3  UNL     1      12.420  73.880  49.999  1.00  0.00    -0.365 OA
ATOM     26  H3  UNL     1      11.684  74.152  49.464  1.00  0.00     0.213 HD
ENDBRANCH  22  25
ENDBRANCH  16  22
ENDBRANCH  12  15
ENDBRANCH   9  11
ENDBRANCH   4   9
BRANCH   5  27
HETATM   27  N5  UNL     1       5.837  72.413  49.722  1.00  0.00    -0.298 N 
HETATM   28  C10 UNL     1       5.205  73.053  50.591  1.00  0.00     0.145 C 
ATOM     29  H5  UNL     1       5.408  71.513  49.507  1.00  0.00     0.186 HD
BRANCH  28  30
HETATM   30  C11 UNL     1       5.456  74.337  51.175  1.00  0.00     0.095 A 
HETATM   31  C12 UNL     1       5.494  74.697  52.490  1.00  0.00     0.043 A 
HETATM   32  C13 UNL     1       5.780  76.073  52.544  1.00  0.00     0.065 A 
HETATM   33  C14 UNL     1       5.898  76.460  51.238  1.00  0.00     0.215 A 
HETATM   34  O7  UNL     1       5.706  75.434  50.457  1.00  0.00    -0.287 OA
BRANCH  33  35
HETATM   35  N6  UNL     1       6.191  77.797  50.792  1.00  0.00    -0.090 N 
HETATM   36  O5  UNL     1       5.611  78.240  49.778  1.00  0.00    -0.530 OA
HETATM   37  O6  UNL     1       7.099  78.553  51.487  1.00  0.00    -0.530 OA
ENDBRANCH  33  35
ENDBRANCH  28  30
ENDBRANCH   5  27
BRANCH   8  38
HETATM   38  N7  UNL     1       7.610  73.363  45.404  1.00  0.00    -0.030 NA
BRANCH  38  39
HETATM   39  O9  UNL     1       6.814  72.405  44.874  1.00  0.00    -0.284 OA
ATOM     40  H9  UNL     1       7.236  72.005  44.122  1.00  0.00     0.240 HD
ENDBRANCH  38  39
BRANCH  38  41
HETATM   41  O10 UNL     1       6.993  74.552  45.198  1.00  0.00    -0.284 OA
ATOM     42  H10 UNL     1       7.172  74.890  44.328  1.00  0.00     0.240 HD
ENDBRANCH  38  41
ENDBRANCH   8  38
TORSDOF 12
ENDMDL
MODEL 4
REMARK VINA RESULT: -8.006671524      1.949      2.748
REMARK  12 active torsions:
REMARK  status: ('A' for Active; 'I' for Inactive)
REMARK    1  A    between atoms: C4_4  and  N1_5 
REMARK    2  A    between atoms: N1_5  and  N2_7 
REMARK       I    between atoms: N2_7  and  C5_9 
REMARK    3  A    between atoms: C5_9  and  C6_11 
REMARK    4  A    between atoms: C7_12  and  C8_13 
REMARK    5  A    between atoms: C8_13  and  O2_14 
REMARK    6  A    between atoms: C8_13  and  O3_16 
REMARK    7  A    between atoms: N4_23  and  N5_24 
REMARK    8  A    between atoms: C10_26  and  C11_27 
REMARK    9  A    between atoms: C14_30  and  N6_31 
REMARK   10  A    between atoms: C16_37  and  N7_38 
REMARK   11  A    between atoms: N7_38  and  O9_39 
REMARK   12  A    between atoms: N7_38  and  O10_41 
ROOT
HETATM    1  C1  UNL     1      10.192  73.315  46.513  1.00  0.00     0.050 C 
HETATM    2  C2  UNL     1       9.002  73.095  47.387  1.00  0.00    -0.027 A 
HETATM    3  C3  UNL     1       9.108  72.873  48.739  1.00  0.00     0.060 A 
HETATM    4  C4  UNL     1       8.026  72.669  49.554  1.00  0.00     0.145 A 
HETATM    5  N4  UNL     1       6.799  72.687  49.002  1.00  0.00    -0.201 N 
HETATM    6  C15 UNL     1       6.675  72.905  47.665  1.00  0.00     0.294 A 
HETATM    7  O8  UNL     1       5.528  72.928  47.110  1.00  0.00    -0.264 OA
HETATM    8  C16 UNL     1       7.745  73.113  46.827  1.00  0.00     0.141 A 
ENDROOT
BRANCH   4   9
HETATM    9  N1  UNL     1       8.159  72.433  50.947  1.00  0.00    -0.281 N 
ATOM     10  H1  UNL     1       7.317  72.259  51.497  1.00  0.00     0.188 HD
BRANCH   9  11
HETATM   11  N2  UNL     1       9.401  72.430  51.599  1.00  0.00    -0.264 N 
HETATM   12  C5  UNL     1       9.918  73.581  52.239  1.00  0.00     0.276 C 
HETATM   13  O1  UNL     1       9.205  74.643  52.216  1.00  0.00    -0.266 OA
ATOM     14  H2  UNL     1       9.950  71.570  51.612  1.00  0.00     0.190 HD
BRANCH  12  15
HETATM   15  C6  UNL     1      11.198  73.597  52.909  1.00  0.00     0.110 A 
HETATM   16  C7  UNL     1      11.451  73.061  54.168  1.00  0.00     0.149 A 
HETATM   17  O4  UNL     1      12.719  73.291  54.484  1.00  0.00    -0.235 OA
HETATM   18  N3  UNL     1      13.318  73.926  53.551  1.00  0.00    -0.249 N 
HETATM   19  C9  UNL     1      12.418  74.142  52.546  1.00  0.00     0.139 A 
ATOM     20  H3  UNL     1      14.295  74.220  53.555  1.00  0.00     0.196 HD
HETATM   21  S1  UNL     1      12.803  74.944  51.184  1.00  0.00    -0.057 SA
BRANCH  16  22
HETATM   22  C8  UNL     1      10.563  72.349  55.080  1.00  0.00     0.316 C 
BRANCH  22  23
HETATM   23  O2  UNL     1      11.333  71.297  55.653  1.00  0.00    -0.365 OA
ATOM     24  H2  UNL     1      10.953  70.484  55.341  1.00  0.00     0.213 HD
ENDBRANCH  22  23
BRANCH  22  25
HETATM   25  O3  UNL     1      10.223  73.160  56.179  1.00  0.00    -0.365 OA
ATOM     26  H3  UNL     1       9.647  72.694  56.774  1.00  0.00     0.213 HD
ENDBRANCH  22  25
ENDBRANCH  16  22
ENDBRANCH  12  15
ENDBRANCH   9  11
ENDBRANCH   4   9
BRANCH   5  27
HETATM   27  N5  UNL     1       5.634  72.494  49.686  1.00  0.00    -0.298 N 
HETATM   28  C10 UNL     1       4.993  73.154  50.532  1.00  0.00     0.145 C 
ATOM     29  H5  UNL     1       5.184  71.609  49.454  1.00  0.00     0.186 HD
BRANCH  28  30
HETATM   30  C11 UNL     1       5.265  74.430  51.127  1.00  0.00     0.095 A 
HETATM   31  C12 UNL     1       5.211  74.802  52.438  1.00  0.00     0.043 A 
HETATM   32  C13 UNL     1       5.569  76.161  52.506  1.00  0.00     0.065 A 
HETATM   33  C14 UNL     1       5.820  76.525  51.213  1.00  0.00     0.215 A 
HETATM   34  O7  UNL     1       5.637  75.502  50.425  1.00  0.00    -0.287 OA
BRANCH  33  35
HETATM   35  N6  UNL     1       6.225  77.838  50.785  1.00  0.00    -0.090 N 
HETATM   36  O5  UNL     1       5.682  78.344  49.780  1.00  0.00    -0.530 OA
HETATM   37  O6  UNL     1       7.196  78.504  51.487  1.00  0.00    -0.530 OA
ENDBRANCH  33  35
ENDBRANCH  28  30
ENDBRANCH   5  27
BRANCH   8  38
HETATM   38  N7  UNL     1       7.596  73.343  45.429  1.00  0.00    -0.030 NA
BRANCH  38  39
HETATM   39  O9  UNL     1       6.794  72.400  44.880  1.00  0.00    -0.284 OA
ATOM     40  H9  UNL     1       6.938  72.351  43.942  1.00  0.00     0.240 HD
ENDBRANCH  38  39
BRANCH  38  41
HETATM   41  O10 UNL     1       7.021  74.545  45.184  1.00  0.00    -0.284 OA
ATOM     42  H10 UNL     1       7.673  75.229  45.081  1.00  0.00     0.240 HD
ENDBRANCH  38  41
ENDBRANCH   8  38
TORSDOF 12
ENDMDL
MODEL 5
REMARK VINA RESULT: -7.951717929      1.515      1.851
REMARK  12 active torsions:
REMARK  status: ('A' for Active; 'I' for Inactive)
REMARK    1  A    between atoms: C4_4  and  N1_5 
REMARK    2  A    between atoms: N1_5  and  N2_7 
REMARK       I    between atoms: N2_7  and  C5_9 
REMARK    3  A    between atoms: C5_9  and  C6_11 
REMARK    4  A    between atoms: C7_12  and  C8_13 
REMARK    5  A    between atoms: C8_13  and  O2_14 
REMARK    6  A    between atoms: C8_13  and  O3_16 
REMARK    7  A    between atoms: N4_23  and  N5_24 
REMARK    8  A    between atoms: C10_26  and  C11_27 
REMARK    9  A    between atoms: C14_30  and  N6_31 
REMARK   10  A    between atoms: C16_37  and  N7_38 
REMARK   11  A    between atoms: N7_38  and  O9_39 
REMARK   12  A    between atoms: N7_38  and  O10_41 
ROOT
HETATM    1  C1  UNL     1      10.233  73.271  46.356  1.00  0.00     0.050 C 
HETATM    2  C2  UNL     1       9.078  73.090  47.284  1.00  0.00    -0.027 A 
HETATM    3  C3  UNL     1       9.238  72.884  48.632  1.00  0.00     0.060 A 
HETATM    4  C4  UNL     1       8.189  72.716  49.497  1.00  0.00     0.145 A 
HETATM    5  N4  UNL     1       6.940  72.756  48.998  1.00  0.00    -0.201 N 
HETATM    6  C15 UNL     1       6.762  72.958  47.665  1.00  0.00     0.294 A 
HETATM    7  O8  UNL     1       5.593  73.001  47.161  1.00  0.00    -0.264 OA
HETATM    8  C16 UNL     1       7.799  73.130  46.778  1.00  0.00     0.141 A 
ENDROOT
BRANCH   4   9
HETATM    9  N1  UNL     1       8.377  72.496  50.886  1.00  0.00    -0.281 N 
ATOM     10  H1  UNL     1       7.822  71.774  51.347  1.00  0.00     0.188 HD
BRANCH   9  11
HETATM   11  N2  UNL     1       9.296  73.231  51.651  1.00  0.00    -0.264 N 
HETATM   12  C5  UNL     1      10.590  72.742  51.947  1.00  0.00     0.276 C 
HETATM   13  O1  UNL     1      10.911  71.594  51.483  1.00  0.00    -0.266 OA
ATOM     14  H2  UNL     1       9.021  74.147  52.005  1.00  0.00     0.190 HD
BRANCH  12  15
HETATM   15  C6  UNL     1      11.545  73.482  52.739  1.00  0.00     0.110 A 
HETATM   16  C7  UNL     1      12.490  74.369  52.232  1.00  0.00     0.149 A 
HETATM   17  O4  UNL     1      13.222  74.833  53.237  1.00  0.00    -0.235 OA
HETATM   18  N3  UNL     1      12.845  74.334  54.351  1.00  0.00    -0.249 N 
HETATM   19  C9  UNL     1      11.803  73.487  54.099  1.00  0.00     0.139 A 
ATOM     20  H3  UNL     1      13.250  74.532  55.266  1.00  0.00     0.196 HD
HETATM   21  S1  UNL     1      11.062  72.639  55.273  1.00  0.00    -0.057 SA
BRANCH  16  22
HETATM   22  C8  UNL     1      12.734  74.797  50.860  1.00  0.00     0.316 C 
BRANCH  22  23
HETATM   23  O2  UNL     1      14.092  75.219  50.804  1.00  0.00    -0.365 OA
ATOM     24  H2  UNL     1      14.157  75.825  50.075  1.00  0.00     0.213 HD
ENDBRANCH  22  23
BRANCH  22  25
HETATM   25  O3  UNL     1      12.682  73.700  49.980  1.00  0.00    -0.365 OA
ATOM     26  H3  UNL     1      12.181  73.917  49.203  1.00  0.00     0.213 HD
ENDBRANCH  22  25
ENDBRANCH  16  22
ENDBRANCH  12  15
ENDBRANCH   9  11
ENDBRANCH   4   9
BRANCH   5  27
HETATM   27  N5  UNL     1       5.802  72.599  49.735  1.00  0.00    -0.298 N 
HETATM   28  C10 UNL     1       5.201  73.295  50.582  1.00  0.00     0.145 C 
ATOM     29  H5  UNL     1       5.336  71.710  49.554  1.00  0.00     0.186 HD
BRANCH  28  30
HETATM   30  C11 UNL     1       5.507  74.588  51.119  1.00  0.00     0.095 A 
HETATM   31  C12 UNL     1       4.706  75.684  51.248  1.00  0.00     0.043 A 
HETATM   32  C13 UNL     1       5.475  76.704  51.835  1.00  0.00     0.065 A 
HETATM   33  C14 UNL     1       6.709  76.149  52.026  1.00  0.00     0.215 A 
HETATM   34  O7  UNL     1       6.708  74.917  51.602  1.00  0.00    -0.287 OA
BRANCH  33  35
HETATM   35  N6  UNL     1       7.841  76.823  52.607  1.00  0.00    -0.090 N 
HETATM   36  O5  UNL     1       7.708  77.999  53.009  1.00  0.00    -0.530 OA
HETATM   37  O6  UNL     1       9.038  76.162  52.706  1.00  0.00    -0.530 OA
ENDBRANCH  33  35
ENDBRANCH  28  30
ENDBRANCH   5  27
BRANCH   8  38
HETATM   38  N7  UNL     1       7.594  73.345  45.385  1.00  0.00    -0.030 NA
BRANCH  38  39
HETATM   39  O9  UNL     1       6.751  72.412  44.884  1.00  0.00    -0.284 OA
ATOM     40  H9  UNL     1       7.228  71.791  44.347  1.00  0.00     0.240 HD
ENDBRANCH  38  39
BRANCH  38  41
HETATM   41  O10 UNL     1       7.032  74.555  45.148  1.00  0.00    -0.284 OA
ATOM     42  H10 UNL     1       7.323  74.917  44.319  1.00  0.00     0.240 HD
ENDBRANCH  38  41
ENDBRANCH   8  38
TORSDOF 12
ENDMDL
