MODEL 1
REMARK VINA RESULT: -5.037335064      0.000      0.000
REMARK  1 active torsions:
REMARK  status: ('A' for Active; 'I' for Inactive)
REMARK       I    between atoms: C1_2  and  N2_4 
REMARK    1  A    between atoms: C2_6  and  C3_8 
ROOT
HETATM    1  C3  UNL     1      11.829   5.250  -4.651  1.00  0.00     0.157 A 
HETATM    2  N4  UNL     1      10.653   5.811  -4.591  1.00  0.00    -0.299 N 
ATOM      3  H4  UNL     1      10.140   5.836  -3.710  1.00  0.00     0.171 HD
HETATM    4  C4  UNL     1      10.133   6.345  -5.679  1.00  0.00     0.305 A 
HETATM    5  O2  UNL     1       8.996   6.925  -5.769  1.00  0.00    -0.258 OA
HETATM    6  S1  UNL     1      11.352   6.043  -6.829  1.00  0.00     0.049 SA
HETATM    7  N5  UNL     1      12.453   5.247  -5.835  1.00  0.00    -0.305 N 
ATOM      8  H5  UNL     1      13.367   4.860  -6.074  1.00  0.00     0.176 HD
ENDROOT
BRANCH   1   9
HETATM    9  C2  UNL     1      12.447   4.637  -3.443  1.00  0.00     0.165 C 
HETATM   10  N2  UNL     1      11.925   3.629  -2.845  1.00  0.00    -0.296 N 
HETATM   11  C1  UNL     1      10.735   2.959  -3.207  1.00  0.00     0.334 C 
ATOM     12  H2  UNL     1      12.418   3.276  -2.025  1.00  0.00     0.171 HD
HETATM   13  N1  UNL     1      10.746   1.827  -4.095  1.00  0.00    -0.040 NA
HETATM   14  O1  UNL     1       9.608   3.331  -2.763  1.00  0.00    -0.251 OA
HETATM   15  N3  UNL     1      13.652   5.163  -2.914  1.00  0.00    -0.078 NA
ENDBRANCH   1   9
TORSDOF 1
ENDMDL
MODEL 2
REMARK VINA RESULT: -4.963223248      1.981      2.140
REMARK  1 active torsions:
REMARK  status: ('A' for Active; 'I' for Inactive)
REMARK       I    between atoms: C1_2  and  N2_4 
REMARK    1  A    between atoms: C2_6  and  C3_8 
ROOT
HETATM    1  C3  UNL     1      13.114   4.971  -4.551  1.00  0.00     0.157 A 
HETATM    2  N4  UNL     1      12.802   5.979  -5.319  1.00  0.00    -0.299 N 
ATOM      3  H4  UNL     1      12.545   6.877  -4.911  1.00  0.00     0.171 HD
HETATM    4  C4  UNL     1      12.822   5.825  -6.629  1.00  0.00     0.305 A 
HETATM    5  O2  UNL     1      12.541   6.719  -7.501  1.00  0.00    -0.258 OA
HETATM    6  S1  UNL     1      13.298   4.197  -6.780  1.00  0.00     0.049 SA
HETATM    7  N5  UNL     1      13.441   3.818  -5.145  1.00  0.00    -0.305 N 
ATOM      8  H5  UNL     1      13.710   2.932  -4.717  1.00  0.00     0.176 HD
ENDROOT
BRANCH   1   9
HETATM    9  C2  UNL     1      13.103   5.108  -3.068  1.00  0.00     0.165 C 
HETATM   10  N2  UNL     1      12.048   4.890  -2.370  1.00  0.00    -0.296 N 
HETATM   11  C1  UNL     1      10.781   4.503  -2.858  1.00  0.00     0.334 C 
ATOM     12  H2  UNL     1      12.134   5.008  -1.361  1.00  0.00     0.171 HD
HETATM   13  N1  UNL     1      10.410   3.119  -2.984  1.00  0.00    -0.040 NA
HETATM   14  O1  UNL     1       9.918   5.363  -3.205  1.00  0.00    -0.251 OA
HETATM   15  N3  UNL     1      14.280   5.490  -2.379  1.00  0.00    -0.078 NA
ENDBRANCH   1   9
TORSDOF 1
ENDMDL
MODEL 3
REMARK VINA RESULT: -4.952915298      2.365      2.805
REMARK  1 active torsions:
REMARK  status: ('A' for Active; 'I' for Inactive)
REMARK       I    between atoms: C1_2  and  N2_4 
REMARK    1  A    between atoms: C2_6  and  C3_8 
ROOT
HETATM    1  C3  UNL     1      13.117   4.885  -4.523  1.00  0.00     0.157 A 
HETATM    2  N4  UNL     1      13.448   3.738  -5.051  1.00  0.00    -0.299 N 
ATOM      3  H4  UNL     1      13.697   2.950  -4.454  1.00  0.00     0.171 HD
HETATM    4  C4  UNL     1      13.457   3.608  -6.363  1.00  0.00     0.305 A 
HETATM    5  O2  UNL     1      13.758   2.550  -7.018  1.00  0.00    -0.258 OA
HETATM    6  S1  UNL     1      12.981   5.163  -6.869  1.00  0.00     0.049 SA
HETATM    7  N5  UNL     1      12.801   5.882  -5.357  1.00  0.00    -0.305 N 
ATOM      8  H5  UNL     1      12.522   6.837  -5.133  1.00  0.00     0.176 HD
ENDROOT
BRANCH   1   9
HETATM    9  C2  UNL     1      13.096   5.069  -3.045  1.00  0.00     0.165 C 
HETATM   10  N2  UNL     1      12.032   4.894  -2.350  1.00  0.00    -0.296 N 
HETATM   11  C1  UNL     1      10.761   4.517  -2.837  1.00  0.00     0.334 C 
ATOM     12  H2  UNL     1      12.112   5.043  -1.344  1.00  0.00     0.171 HD
HETATM   13  N1  UNL     1      10.364   3.137  -2.922  1.00  0.00    -0.040 NA
HETATM   14  O1  UNL     1       9.919   5.383  -3.219  1.00  0.00    -0.251 OA
HETATM   15  N3  UNL     1      14.275   5.449  -2.358  1.00  0.00    -0.078 NA
ENDBRANCH   1   9
TORSDOF 1
ENDMDL
MODEL 4
REMARK VINA RESULT: -4.932756870      1.868      2.705
REMARK  1 active torsions:
REMARK  status: ('A' for Active; 'I' for Inactive)
REMARK       I    between atoms: C1_2  and  N2_4 
REMARK    1  A    between atoms: C2_6  and  C3_8 
ROOT
HETATM    1  C3  UNL     1      10.329   4.384  -4.762  1.00  0.00     0.157 A 
HETATM    2  N4  UNL     1       9.897   5.612  -4.854  1.00  0.00    -0.299 N 
ATOM      3  H4  UNL     1       9.802   6.188  -4.018  1.00  0.00     0.171 HD
HETATM    4  C4  UNL     1       9.585   6.102  -6.038  1.00  0.00     0.305 A 
HETATM    5  O2  UNL     1       9.151   7.281  -6.280  1.00  0.00    -0.258 OA
HETATM    6  S1  UNL     1       9.913   4.777  -7.058  1.00  0.00     0.049 SA
HETATM    7  N5  UNL     1      10.431   3.677  -5.893  1.00  0.00    -0.305 N 
ATOM      8  H5  UNL     1      10.745   2.714  -6.019  1.00  0.00     0.176 HD
ENDROOT
BRANCH   1   9
HETATM    9  C2  UNL     1      10.691   3.797  -3.441  1.00  0.00     0.165 C 
HETATM   10  N2  UNL     1      11.899   3.782  -3.009  1.00  0.00    -0.296 N 
HETATM   11  C1  UNL     1      13.037   4.291  -3.672  1.00  0.00     0.334 C 
ATOM     12  H2  UNL     1      12.053   3.359  -2.094  1.00  0.00     0.171 HD
HETATM   13  N1  UNL     1      13.484   5.644  -3.475  1.00  0.00    -0.040 NA
HETATM   14  O1  UNL     1      13.711   3.573  -4.470  1.00  0.00    -0.251 OA
HETATM   15  N3  UNL     1       9.689   3.230  -2.616  1.00  0.00    -0.078 NA
ENDBRANCH   1   9
TORSDOF 1
ENDMDL
MODEL 5
REMARK VINA RESULT: -4.920293503      2.092      3.789
REMARK  1 active torsions:
REMARK  status: ('A' for Active; 'I' for Inactive)
REMARK       I    between atoms: C1_2  and  N2_4 
REMARK    1  A    between atoms: C2_6  and  C3_8 
ROOT
HETATM    1  C3  UNL     1      12.656   4.007  -3.646  1.00  0.00     0.157 A 
HETATM    2  N4  UNL     1      11.519   3.577  -3.170  1.00  0.00    -0.299 N 
ATOM      3  H4  UNL     1      10.966   4.167  -2.549  1.00  0.00     0.171 HD
HETATM    4  C4  UNL     1      11.092   2.374  -3.500  1.00  0.00     0.305 A 
HETATM    5  O2  UNL     1      10.004   1.823  -3.111  1.00  0.00    -0.258 OA
HETATM    6  S1  UNL     1      12.344   1.829  -4.518  1.00  0.00     0.049 SA
HETATM    7  N5  UNL     1      13.338   3.187  -4.455  1.00  0.00    -0.305 N 
ATOM      8  H5  UNL     1      14.233   3.345  -4.917  1.00  0.00     0.176 HD
ENDROOT
BRANCH   1   9
HETATM    9  C2  UNL     1      13.170   5.360  -3.296  1.00  0.00     0.165 C 
HETATM   10  N2  UNL     1      12.659   6.431  -3.783  1.00  0.00    -0.296 N 
HETATM   11  C1  UNL     1      11.577   6.513  -4.688  1.00  0.00     0.334 C 
ATOM     12  H2  UNL     1      13.076   7.314  -3.487  1.00  0.00     0.171 HD
HETATM   13  N1  UNL     1      10.218   6.636  -4.231  1.00  0.00    -0.040 NA
HETATM   14  O1  UNL     1      11.762   6.480  -5.941  1.00  0.00    -0.251 OA
HETATM   15  N3  UNL     1      14.258   5.499  -2.400  1.00  0.00    -0.078 NA
ENDBRANCH   1   9
TORSDOF 1
ENDMDL
