MODEL 1
REMARK VINA RESULT: -5.806649806      0.000      0.000
REMARK  2 active torsions:
REMARK  status: ('A' for Active; 'I' for Inactive)
REMARK    1  A    between atoms: C3_6  and  N2_7 
REMARK    2  A    between atoms: N2_7  and  C4_9 
ROOT
HETATM    1  O1  UNL     1       8.628  -1.322  -5.427  1.00  0.00    -0.245 OA
HETATM    2  C1  UNL     1       9.264  -0.291  -5.054  1.00  0.00     0.338 A 
HETATM    3  N1  UNL     1      10.323   0.157  -5.768  1.00  0.00    -0.314 N 
ATOM      4  H1  UNL     1      10.627  -0.325  -6.614  1.00  0.00     0.170 HD
HETATM    5  C2  UNL     1      10.968   1.267  -5.323  1.00  0.00     0.143 A 
HETATM    6  C3  UNL     1      10.546   1.908  -4.179  1.00  0.00     0.151 A 
HETATM    7  N6  UNL     1       9.494   1.445  -3.490  1.00  0.00    -0.280 N 
ATOM      8  H6  UNL     1       9.176   1.915  -2.642  1.00  0.00     0.188 HD
HETATM    9  N7  UNL     1       8.880   0.364  -3.936  1.00  0.00    -0.250 N 
ATOM     10  H7  UNL     1       8.080   0.008  -3.414  1.00  0.00     0.192 HD
ENDROOT
BRANCH   6  11
HETATM   11  N2  UNL     1      11.167   2.942  -3.787  1.00  0.00    -0.172 N 
ATOM     12  H2  UNL     1      12.095   2.808  -3.385  1.00  0.00     0.186 HD
BRANCH  11  13
HETATM   13  C4  UNL     1      10.677   4.263  -3.860  1.00  0.00     0.699 A 
HETATM   14  N3  UNL     1      10.373   5.011  -4.935  1.00  0.00    -0.185 N 
HETATM   15  C5  UNL     1       9.937   6.220  -4.554  1.00  0.00     0.215 A 
ATOM     16  H3  UNL     1      10.462   4.702  -5.903  1.00  0.00     0.185 HD
HETATM   17  N4  UNL     1       9.965   6.237  -3.209  1.00  0.00    -0.281 N 
HETATM   18  N5  UNL     1      10.410   5.060  -2.800  1.00  0.00    -0.131 N 
ATOM     19  H4  UNL     1       9.692   7.017  -2.611  1.00  0.00     0.188 HD
ATOM     20  H5  UNL     1      10.535   4.791  -1.824  1.00  0.00     0.205 HD
ENDBRANCH  11  13
ENDBRANCH   6  11
TORSDOF 2
ENDMDL
MODEL 2
REMARK VINA RESULT: -5.676409822      3.015      5.166
REMARK  2 active torsions:
REMARK  status: ('A' for Active; 'I' for Inactive)
REMARK    1  A    between atoms: C3_6  and  N2_7 
REMARK    2  A    between atoms: N2_7  and  C4_9 
ROOT
HETATM    1  O1  UNL     1      14.329   5.509  -2.291  1.00  0.00    -0.245 OA
HETATM    2  C1  UNL     1      13.326   5.009  -2.886  1.00  0.00     0.338 A 
HETATM    3  N1  UNL     1      13.453   4.500  -4.132  1.00  0.00    -0.314 N 
ATOM      4  H1  UNL     1      14.352   4.508  -4.614  1.00  0.00     0.170 HD
HETATM    5  C2  UNL     1      12.346   3.976  -4.722  1.00  0.00     0.143 A 
HETATM    6  C3  UNL     1      11.139   3.971  -4.060  1.00  0.00     0.151 A 
HETATM    7  N6  UNL     1      11.040   4.481  -2.825  1.00  0.00    -0.280 N 
ATOM      8  H6  UNL     1      10.149   4.480  -2.328  1.00  0.00     0.188 HD
HETATM    9  N7  UNL     1      12.125   4.986  -2.267  1.00  0.00    -0.250 N 
ATOM     10  H7  UNL     1      12.053   5.377  -1.328  1.00  0.00     0.192 HD
ENDROOT
BRANCH   6  11
HETATM   11  N2  UNL     1      10.122   3.475  -4.634  1.00  0.00    -0.172 N 
ATOM     12  H2  UNL     1       9.492   4.121  -5.110  1.00  0.00     0.186 HD
BRANCH  11  13
HETATM   13  C4  UNL     1       9.792   2.104  -4.668  1.00  0.00     0.699 A 
HETATM   14  N3  UNL     1       9.694   1.267  -5.714  1.00  0.00    -0.185 N 
HETATM   15  C5  UNL     1       9.353   0.038  -5.299  1.00  0.00     0.215 A 
ATOM     16  H3  UNL     1       9.855   1.529  -6.687  1.00  0.00     0.185 HD
HETATM   17  N4  UNL     1       9.234   0.101  -3.961  1.00  0.00    -0.281 N 
HETATM   18  N5  UNL     1       9.499   1.342  -3.589  1.00  0.00    -0.131 N 
ATOM     19  H4  UNL     1       8.985  -0.671  -3.342  1.00  0.00     0.188 HD
ATOM     20  H5  UNL     1       9.484   1.678  -2.626  1.00  0.00     0.205 HD
ENDBRANCH  11  13
ENDBRANCH   6  11
TORSDOF 2
ENDMDL
MODEL 3
REMARK VINA RESULT: -5.576017349      3.344      5.514
REMARK  2 active torsions:
REMARK  status: ('A' for Active; 'I' for Inactive)
REMARK    1  A    between atoms: C3_6  and  N2_7 
REMARK    2  A    between atoms: N2_7  and  C4_9 
ROOT
HETATM    1  O1  UNL     1      13.748   7.631  -4.352  1.00  0.00    -0.245 OA
HETATM    2  C1  UNL     1      13.006   6.671  -3.983  1.00  0.00     0.338 A 
HETATM    3  N1  UNL     1      13.551   5.508  -3.558  1.00  0.00    -0.314 N 
ATOM      4  H1  UNL     1      14.563   5.383  -3.527  1.00  0.00     0.170 HD
HETATM    5  C2  UNL     1      12.709   4.513  -3.174  1.00  0.00     0.143 A 
HETATM    6  C3  UNL     1      11.345   4.696  -3.221  1.00  0.00     0.151 A 
HETATM    7  N6  UNL     1      10.830   5.858  -3.645  1.00  0.00    -0.280 N 
ATOM      8  H6  UNL     1       9.820   6.000  -3.681  1.00  0.00     0.188 HD
HETATM    9  N7  UNL     1      11.662   6.813  -4.015  1.00  0.00    -0.250 N 
ATOM     10  H7  UNL     1      11.274   7.699  -4.340  1.00  0.00     0.192 HD
ENDROOT
BRANCH   6  11
HETATM   11  N2  UNL     1      10.582   3.750  -2.856  1.00  0.00    -0.172 N 
ATOM     12  H2  UNL     1      10.205   3.790  -1.909  1.00  0.00     0.186 HD
BRANCH  11  13
HETATM   13  C4  UNL     1      10.215   2.645  -3.654  1.00  0.00     0.699 A 
HETATM   14  N3  UNL     1      10.397   2.433  -4.968  1.00  0.00    -0.185 N 
HETATM   15  C5  UNL     1       9.892   1.243  -5.323  1.00  0.00     0.215 A 
ATOM     16  H3  UNL     1      10.855   3.085  -5.605  1.00  0.00     0.185 HD
HETATM   17  N4  UNL     1       9.379   0.692  -4.209  1.00  0.00    -0.281 N 
HETATM   18  N5  UNL     1       9.576   1.538  -3.211  1.00  0.00    -0.131 N 
ATOM     19  H4  UNL     1       8.920  -0.217  -4.143  1.00  0.00     0.188 HD
ATOM     20  H5  UNL     1       9.288   1.378  -2.246  1.00  0.00     0.205 HD
ENDBRANCH  11  13
ENDBRANCH   6  11
TORSDOF 2
ENDMDL
MODEL 4
REMARK VINA RESULT: -5.556389985      2.970      5.288
REMARK  2 active torsions:
REMARK  status: ('A' for Active; 'I' for Inactive)
REMARK    1  A    between atoms: C3_6  and  N2_7 
REMARK    2  A    between atoms: N2_7  and  C4_9 
ROOT
HETATM    1  O1  UNL     1      14.226   5.421  -2.275  1.00  0.00    -0.245 OA
HETATM    2  C1  UNL     1      13.236   4.931  -2.898  1.00  0.00     0.338 A 
HETATM    3  N1  UNL     1      11.991   5.009  -2.374  1.00  0.00    -0.314 N 
ATOM      4  H1  UNL     1      11.827   5.460  -1.474  1.00  0.00     0.170 HD
HETATM    5  C2  UNL     1      10.967   4.467  -3.085  1.00  0.00     0.143 A 
HETATM    6  C3  UNL     1      11.203   3.862  -4.298  1.00  0.00     0.151 A 
HETATM    7  N6  UNL     1      12.446   3.798  -4.796  1.00  0.00    -0.280 N 
ATOM      8  H6  UNL     1      12.627   3.352  -5.695  1.00  0.00     0.188 HD
HETATM    9  N7  UNL     1      13.429   4.329  -4.092  1.00  0.00    -0.250 N 
ATOM     10  H7  UNL     1      14.376   4.282  -4.466  1.00  0.00     0.192 HD
ENDROOT
BRANCH   6  11
HETATM   11  N2  UNL     1      10.228   3.365  -4.940  1.00  0.00    -0.172 N 
ATOM     12  H2  UNL     1       9.729   3.979  -5.584  1.00  0.00     0.186 HD
BRANCH  11  13
HETATM   13  C4  UNL     1       9.777   2.032  -4.835  1.00  0.00     0.699 A 
HETATM   14  N3  UNL     1       9.463   1.150  -5.800  1.00  0.00    -0.185 N 
HETATM   15  C5  UNL     1       9.077  -0.015  -5.259  1.00  0.00     0.215 A 
ATOM     16  H3  UNL     1       9.511   1.340  -6.801  1.00  0.00     0.185 HD
HETATM   17  N4  UNL     1       9.150   0.134  -3.925  1.00  0.00    -0.281 N 
HETATM   18  N5  UNL     1       9.571   1.364  -3.677  1.00  0.00    -0.131 N 
ATOM     19  H4  UNL     1       8.922  -0.574  -3.227  1.00  0.00     0.188 HD
ATOM     20  H5  UNL     1       9.718   1.753  -2.746  1.00  0.00     0.205 HD
ENDBRANCH  11  13
ENDBRANCH   6  11
TORSDOF 2
ENDMDL
MODEL 5
REMARK VINA RESULT: -5.520552825      2.663      5.097
REMARK  2 active torsions:
REMARK  status: ('A' for Active; 'I' for Inactive)
REMARK    1  A    between atoms: C3_6  and  N2_7 
REMARK    2  A    between atoms: N2_7  and  C4_9 
ROOT
HETATM    1  O1  UNL     1       9.258   7.328  -6.216  1.00  0.00    -0.245 OA
HETATM    2  C1  UNL     1       9.666   6.193  -5.824  1.00  0.00     0.338 A 
HETATM    3  N1  UNL     1      10.084   5.269  -6.720  1.00  0.00    -0.314 N 
ATOM      4  H1  UNL     1      10.078   5.467  -7.721  1.00  0.00     0.170 HD
HETATM    5  C2  UNL     1      10.511   4.069  -6.245  1.00  0.00     0.143 A 
HETATM    6  C3  UNL     1      10.514   3.815  -4.892  1.00  0.00     0.151 A 
HETATM    7  N6  UNL     1      10.095   4.748  -4.025  1.00  0.00    -0.280 N 
ATOM      8  H6  UNL     1      10.095   4.566  -3.021  1.00  0.00     0.188 HD
HETATM    9  N7  UNL     1       9.682   5.907  -4.504  1.00  0.00    -0.250 N 
ATOM     10  H7  UNL     1       9.362   6.618  -3.848  1.00  0.00     0.192 HD
ENDROOT
BRANCH   6  11
HETATM   11  N2  UNL     1      10.918   2.687  -4.477  1.00  0.00    -0.172 N 
ATOM     12  H2  UNL     1      11.842   2.649  -4.047  1.00  0.00     0.186 HD
BRANCH  11  13
HETATM   13  C4  UNL     1      10.192   1.480  -4.560  1.00  0.00     0.699 A 
HETATM   14  N3  UNL     1      10.236   0.511  -5.491  1.00  0.00    -0.185 N 
HETATM   15  C5  UNL     1       9.375  -0.470  -5.184  1.00  0.00     0.215 A 
ATOM     16  H3  UNL     1      10.838   0.521  -6.314  1.00  0.00     0.185 HD
HETATM   17  N4  UNL     1       8.775  -0.114  -4.034  1.00  0.00    -0.281 N 
HETATM   18  N5  UNL     1       9.270   1.056  -3.666  1.00  0.00    -0.131 N 
ATOM     19  H4  UNL     1       8.066  -0.650  -3.535  1.00  0.00     0.188 HD
ATOM     20  H5  UNL     1       8.996   1.567  -2.826  1.00  0.00     0.205 HD
ENDBRANCH  11  13
ENDBRANCH   6  11
TORSDOF 2
ENDMDL
