MODEL 1
REMARK VINA RESULT: -5.257758282      0.000      0.000
REMARK  1 active torsions:
REMARK  status: ('A' for Active; 'I' for Inactive)
REMARK    1  A    between atoms: N3_5  and  C2_6 
ROOT
HETATM    1  N1  UNL     1      13.222   4.348  -3.201  1.00  0.00    -0.075 NA
HETATM    2  C1  UNL     1      12.011   3.647  -3.444  1.00  0.00     0.202 A 
HETATM    3  N2  UNL     1      11.840   2.416  -3.954  1.00  0.00    -0.260 N 
ATOM      4  H2  UNL     1      12.608   1.810  -4.242  1.00  0.00     0.190 HD
HETATM    5  N3  UNL     1      10.564   2.077  -4.042  1.00  0.00    -0.175 N 
HETATM    6  N5  UNL     1       9.884   3.136  -3.567  1.00  0.00    -0.240 N 
ATOM      7  H5  UNL     1       8.869   3.194  -3.499  1.00  0.00     0.192 HD
HETATM    8  C7  UNL     1      10.735   4.107  -3.195  1.00  0.00     0.304 A 
HETATM    9  O1  UNL     1      10.435   5.230  -2.710  1.00  0.00    -0.263 OA
ENDROOT
BRANCH   5  10
HETATM   10  C2  UNL     1       9.996   0.868  -4.526  1.00  0.00     0.145 A 
HETATM   11  C3  UNL     1      10.577   0.178  -5.558  1.00  0.00     0.052 A 
HETATM   12  C4  UNL     1      10.036  -1.014  -6.051  1.00  0.00     0.005 A 
HETATM   13  C5  UNL     1       8.892  -1.488  -5.471  1.00  0.00     0.017 A 
HETATM   14  C6  UNL     1       8.318  -0.785  -4.436  1.00  0.00     0.090 A 
HETATM   15  N4  UNL     1       8.878   0.377  -3.982  1.00  0.00    -0.350 N 
ATOM     16  H4  UNL     1       8.433   0.879  -3.214  1.00  0.00     0.166 HD
ENDBRANCH   5  10
TORSDOF 1
ENDMDL
MODEL 2
REMARK VINA RESULT: -5.154615634      3.430      4.848
REMARK  1 active torsions:
REMARK  status: ('A' for Active; 'I' for Inactive)
REMARK    1  A    between atoms: N3_5  and  C2_6 
ROOT
HETATM    1  N1  UNL     1      14.537   8.943  -4.034  1.00  0.00    -0.075 NA
HETATM    2  C1  UNL     1      14.201   7.672  -3.499  1.00  0.00     0.202 A 
HETATM    3  N2  UNL     1      13.234   6.824  -3.888  1.00  0.00    -0.260 N 
ATOM      4  H2  UNL     1      12.595   7.011  -4.660  1.00  0.00     0.190 HD
HETATM    5  N3  UNL     1      13.204   5.720  -3.159  1.00  0.00    -0.175 N 
HETATM    6  N5  UNL     1      14.195   5.864  -2.261  1.00  0.00    -0.240 N 
ATOM      7  H5  UNL     1      14.437   5.179  -1.546  1.00  0.00     0.192 HD
HETATM    8  C7  UNL     1      14.820   7.039  -2.441  1.00  0.00     0.304 A 
HETATM    9  O1  UNL     1      15.790   7.489  -1.775  1.00  0.00    -0.263 OA
ENDROOT
BRANCH   5  10
HETATM   10  C2  UNL     1      12.331   4.604  -3.270  1.00  0.00     0.145 A 
HETATM   11  C3  UNL     1      12.744   3.442  -3.869  1.00  0.00     0.052 A 
HETATM   12  C4  UNL     1      11.902   2.331  -3.991  1.00  0.00     0.005 A 
HETATM   13  C5  UNL     1      10.634   2.429  -3.490  1.00  0.00     0.017 A 
HETATM   14  C6  UNL     1      10.232   3.601  -2.892  1.00  0.00     0.090 A 
HETATM   15  N4  UNL     1      11.085   4.666  -2.792  1.00  0.00    -0.350 N 
ATOM     16  H4  UNL     1      10.763   5.524  -2.344  1.00  0.00     0.166 HD
ENDBRANCH   5  10
TORSDOF 1
ENDMDL
MODEL 3
REMARK VINA RESULT: -5.090821740      3.449      4.835
REMARK  1 active torsions:
REMARK  status: ('A' for Active; 'I' for Inactive)
REMARK    1  A    between atoms: N3_5  and  C2_6 
ROOT
HETATM    1  N1  UNL     1      15.998   7.720  -1.773  1.00  0.00    -0.075 NA
HETATM    2  C1  UNL     1      14.882   7.179  -2.465  1.00  0.00     0.202 A 
HETATM    3  N2  UNL     1      14.293   5.982  -2.306  1.00  0.00    -0.260 N 
ATOM      4  H2  UNL     1      14.600   5.286  -1.627  1.00  0.00     0.190 HD
HETATM    5  N3  UNL     1      13.269   5.808  -3.126  1.00  0.00    -0.175 N 
HETATM    6  N5  UNL     1      13.196   6.942  -3.845  1.00  0.00    -0.240 N 
ATOM      7  H5  UNL     1      12.507   7.128  -4.573  1.00  0.00     0.192 HD
HETATM    8  C7  UNL     1      14.162   7.796  -3.467  1.00  0.00     0.304 A 
HETATM    9  O1  UNL     1      14.380   8.946  -3.934  1.00  0.00    -0.263 OA
ENDROOT
BRANCH   5  10
HETATM   10  C2  UNL     1      12.410   4.683  -3.250  1.00  0.00     0.145 A 
HETATM   11  C3  UNL     1      12.811   3.559  -3.926  1.00  0.00     0.052 A 
HETATM   12  C4  UNL     1      11.982   2.440  -4.062  1.00  0.00     0.005 A 
HETATM   13  C5  UNL     1      10.739   2.490  -3.495  1.00  0.00     0.017 A 
HETATM   14  C6  UNL     1      10.349   3.624  -2.820  1.00  0.00     0.090 A 
HETATM   15  N4  UNL     1      11.188   4.698  -2.709  1.00  0.00    -0.350 N 
ATOM     16  H4  UNL     1      10.876   5.526  -2.204  1.00  0.00     0.166 HD
ENDBRANCH   5  10
TORSDOF 1
ENDMDL
MODEL 4
REMARK VINA RESULT: -5.006325666      6.586     10.076
REMARK  1 active torsions:
REMARK  status: ('A' for Active; 'I' for Inactive)
REMARK    1  A    between atoms: N3_5  and  C2_6 
ROOT
HETATM    1  N1  UNL     1      12.974   6.401  -4.561  1.00  0.00    -0.075 NA
HETATM    2  C1  UNL     1      13.711   7.076  -3.552  1.00  0.00     0.202 A 
HETATM    3  N2  UNL     1      13.902   8.395  -3.390  1.00  0.00    -0.260 N 
ATOM      4  H2  UNL     1      13.514   9.104  -4.013  1.00  0.00     0.190 HD
HETATM    5  N3  UNL     1      14.648   8.674  -2.334  1.00  0.00    -0.175 N 
HETATM    6  N5  UNL     1      14.951   7.481  -1.792  1.00  0.00    -0.240 N 
ATOM      7  H5  UNL     1      15.520   7.348  -0.956  1.00  0.00     0.192 HD
HETATM    8  C7  UNL     1      14.396   6.490  -2.509  1.00  0.00     0.304 A 
HETATM    9  O1  UNL     1      14.480   5.253  -2.280  1.00  0.00    -0.263 OA
ENDROOT
BRANCH   5  10
HETATM   10  C2  UNL     1      15.061   9.943  -1.846  1.00  0.00     0.145 A 
HETATM   11  C3  UNL     1      16.284  10.464  -2.178  1.00  0.00     0.052 A 
HETATM   12  C4  UNL     1      16.711  11.711  -1.709  1.00  0.00     0.005 A 
HETATM   13  C5  UNL     1      15.868  12.414  -0.895  1.00  0.00     0.017 A 
HETATM   14  C6  UNL     1      14.643  11.879  -0.567  1.00  0.00     0.090 A 
HETATM   15  N4  UNL     1      14.261  10.656  -1.046  1.00  0.00    -0.350 N 
ATOM     16  H4  UNL     1      13.348  10.282  -0.790  1.00  0.00     0.166 HD
ENDBRANCH   5  10
TORSDOF 1
ENDMDL
MODEL 5
REMARK VINA RESULT: -4.965621168      1.054      1.530
REMARK  1 active torsions:
REMARK  status: ('A' for Active; 'I' for Inactive)
REMARK    1  A    between atoms: N3_5  and  C2_6 
ROOT
HETATM    1  N1  UNL     1      10.308   5.608  -2.858  1.00  0.00    -0.075 NA
HETATM    2  C1  UNL     1      10.651   4.290  -3.262  1.00  0.00     0.202 A 
HETATM    3  N2  UNL     1       9.847   3.311  -3.709  1.00  0.00    -0.260 N 
ATOM      4  H2  UNL     1       8.837   3.412  -3.816  1.00  0.00     0.190 HD
HETATM    5  N3  UNL     1      10.509   2.202  -3.996  1.00  0.00    -0.175 N 
HETATM    6  N5  UNL     1      11.796   2.480  -3.721  1.00  0.00    -0.240 N 
ATOM      7  H5  UNL     1      12.571   1.827  -3.837  1.00  0.00     0.192 HD
HETATM    8  C7  UNL     1      11.915   3.741  -3.273  1.00  0.00     0.304 A 
HETATM    9  O1  UNL     1      12.978   4.322  -2.926  1.00  0.00    -0.263 OA
ENDROOT
BRANCH   5  10
HETATM   10  C2  UNL     1      10.007   0.968  -4.490  1.00  0.00     0.145 A 
HETATM   11  C3  UNL     1      10.640   0.305  -5.509  1.00  0.00     0.052 A 
HETATM   12  C4  UNL     1      10.163  -0.911  -6.011  1.00  0.00     0.005 A 
HETATM   13  C5  UNL     1       9.030  -1.435  -5.455  1.00  0.00     0.017 A 
HETATM   14  C6  UNL     1       8.403  -0.758  -4.433  1.00  0.00     0.090 A 
HETATM   15  N4  UNL     1       8.900   0.428  -3.969  1.00  0.00    -0.350 N 
ATOM     16  H4  UNL     1       8.418   0.910  -3.211  1.00  0.00     0.166 HD
ENDBRANCH   5  10
TORSDOF 1
ENDMDL
