MODEL 1
REMARK VINA RESULT: -5.801707914      0.000      0.000
REMARK  2 active torsions:
REMARK  status: ('A' for Active; 'I' for Inactive)
REMARK    1  A    between atoms: C2_3  and  C3_4 
REMARK    2  A    between atoms: C4_7  and  N3_8 
ROOT
HETATM    1  N1  UNL     1     -31.728  11.784 -42.955  1.00  0.00    -0.197 NA
HETATM    2  C1  UNL     1     -32.107  10.792 -42.536  1.00  0.00     0.065 C 
HETATM    3  C2  UNL     1     -32.610   9.520 -41.963  1.00  0.00     0.183 C 
ENDROOT
BRANCH   3   4
HETATM    4  C3  UNL     1     -33.765   9.861 -41.113  1.00  0.00     0.066 A 
HETATM    5  N2  UNL     1     -33.609  10.246 -39.852  1.00  0.00    -0.193 N 
HETATM    6  C4  UNL     1     -34.642  10.559 -39.034  1.00  0.00     0.679 A 
ATOM      7  H2  UNL     1     -32.661  10.310 -39.480  1.00  0.00     0.184 HD
HETATM    8  N4  UNL     1     -35.892  10.480 -39.515  1.00  0.00    -0.155 N 
HETATM    9  C5  UNL     1     -36.086  10.093 -40.790  1.00  0.00     0.282 A 
ATOM     10  H4  UNL     1     -36.687  10.711 -38.920  1.00  0.00     0.187 HD
HETATM   11  O1  UNL     1     -37.250  10.000 -41.295  1.00  0.00    -0.266 OA
HETATM   12  C6  UNL     1     -35.043   9.772 -41.628  1.00  0.00     0.137 A 
HETATM   13  C7  UNL     1     -35.293   9.358 -43.005  1.00  0.00     0.107 C 
HETATM   14  N5  UNL     1     -35.481   9.043 -44.106  1.00  0.00    -0.191 NA
BRANCH   6  15
HETATM   15  N3  UNL     1     -34.458  10.926 -37.816  1.00  0.00    -0.234 N 
ATOM     16  H32 UNL     1     -35.228  11.351 -37.300  1.00  0.00     0.174 HD
ATOM     17  H31 UNL     1     -33.561  10.803 -37.344  1.00  0.00     0.174 HD
ENDBRANCH   6  15
ENDBRANCH   3   4
TORSDOF 2
ENDMDL
MODEL 2
REMARK VINA RESULT: -5.529648728      2.700      4.297
REMARK  2 active torsions:
REMARK  status: ('A' for Active; 'I' for Inactive)
REMARK    1  A    between atoms: C2_3  and  C3_4 
REMARK    2  A    between atoms: C4_7  and  N3_8 
ROOT
HETATM    1  N1  UNL     1     -35.121   6.914 -44.759  1.00  0.00    -0.197 NA
HETATM    2  C1  UNL     1     -34.725   7.962 -44.979  1.00  0.00     0.065 C 
HETATM    3  C2  UNL     1     -34.218   9.333 -45.232  1.00  0.00     0.183 C 
ENDROOT
BRANCH   3   4
HETATM    4  C3  UNL     1     -33.647   9.818 -43.962  1.00  0.00     0.066 A 
HETATM    5  N2  UNL     1     -33.901   9.210 -42.810  1.00  0.00    -0.193 N 
HETATM    6  C4  UNL     1     -33.406   9.628 -41.621  1.00  0.00     0.679 A 
ATOM      7  H2  UNL     1     -34.502   8.385 -42.821  1.00  0.00     0.184 HD
HETATM    8  N4  UNL     1     -32.615  10.711 -41.597  1.00  0.00    -0.155 N 
HETATM    9  C5  UNL     1     -32.336  11.352 -42.748  1.00  0.00     0.282 A 
ATOM     10  H4  UNL     1     -32.228  11.046 -40.714  1.00  0.00     0.187 HD
HETATM   11  O1  UNL     1     -31.592  12.384 -42.781  1.00  0.00    -0.266 OA
HETATM   12  C6  UNL     1     -32.835  10.935 -43.961  1.00  0.00     0.137 A 
HETATM   13  C7  UNL     1     -32.509  11.655 -45.188  1.00  0.00     0.107 C 
HETATM   14  N5  UNL     1     -32.243  12.210 -46.171  1.00  0.00    -0.191 NA
BRANCH   6  15
HETATM   15  N3  UNL     1     -33.674   9.020 -40.521  1.00  0.00    -0.234 N 
ATOM     16  H32 UNL     1     -33.393   8.046 -40.406  1.00  0.00     0.174 HD
ATOM     17  H31 UNL     1     -34.161   9.482 -39.752  1.00  0.00     0.174 HD
ENDBRANCH   6  15
ENDBRANCH   3   4
TORSDOF 2
ENDMDL
MODEL 3
REMARK VINA RESULT: -5.516706937      1.868      3.692
REMARK  2 active torsions:
REMARK  status: ('A' for Active; 'I' for Inactive)
REMARK    1  A    between atoms: C2_3  and  C3_4 
REMARK    2  A    between atoms: C4_7  and  N3_8 
ROOT
HETATM    1  N1  UNL     1     -35.357   7.393 -44.909  1.00  0.00    -0.197 NA
HETATM    2  C1  UNL     1     -35.618   8.324 -44.303  1.00  0.00     0.065 C 
HETATM    3  C2  UNL     1     -35.946   9.519 -43.487  1.00  0.00     0.183 C 
ENDROOT
BRANCH   3   4
HETATM    4  C3  UNL     1     -34.932   9.599 -42.420  1.00  0.00     0.066 A 
HETATM    5  N2  UNL     1     -33.639   9.442 -42.678  1.00  0.00    -0.193 N 
HETATM    6  C4  UNL     1     -32.676   9.498 -41.727  1.00  0.00     0.679 A 
ATOM      7  H2  UNL     1     -33.356   9.271 -43.643  1.00  0.00     0.184 HD
HETATM    8  N4  UNL     1     -33.039   9.724 -40.455  1.00  0.00    -0.155 N 
HETATM    9  C5  UNL     1     -34.342   9.889 -40.159  1.00  0.00     0.282 A 
ATOM     10  H4  UNL     1     -32.333   9.772 -39.720  1.00  0.00     0.187 HD
HETATM   11  O1  UNL     1     -34.739  10.104 -38.969  1.00  0.00    -0.266 OA
HETATM   12  C6  UNL     1     -35.327   9.832 -41.118  1.00  0.00     0.137 A 
HETATM   13  C7  UNL     1     -36.730  10.016 -40.758  1.00  0.00     0.107 C 
HETATM   14  N5  UNL     1     -37.845  10.178 -40.484  1.00  0.00    -0.191 NA
BRANCH   6  15
HETATM   15  N3  UNL     1     -31.432   9.339 -42.008  1.00  0.00    -0.234 N 
ATOM     16  H32 UNL     1     -31.119   8.452 -42.403  1.00  0.00     0.174 HD
ATOM     17  H31 UNL     1     -30.744  10.075 -41.851  1.00  0.00     0.174 HD
ENDBRANCH   6  15
ENDBRANCH   3   4
TORSDOF 2
ENDMDL
MODEL 4
REMARK VINA RESULT: -5.353772441      2.464      4.961
REMARK  2 active torsions:
REMARK  status: ('A' for Active; 'I' for Inactive)
REMARK    1  A    between atoms: C2_3  and  C3_4 
REMARK    2  A    between atoms: C4_7  and  N3_8 
ROOT
HETATM    1  N1  UNL     1     -36.236   9.568 -40.390  1.00  0.00    -0.197 NA
HETATM    2  C1  UNL     1     -35.162   9.775 -40.720  1.00  0.00     0.065 C 
HETATM    3  C2  UNL     1     -33.770  10.017 -41.169  1.00  0.00     0.183 C 
ENDROOT
BRANCH   3   4
HETATM    4  C3  UNL     1     -33.703   9.616 -42.586  1.00  0.00     0.066 A 
HETATM    5  N2  UNL     1     -34.295   8.512 -43.024  1.00  0.00    -0.193 N 
HETATM    6  C4  UNL     1     -34.250   8.102 -44.314  1.00  0.00     0.679 A 
ATOM      7  H2  UNL     1     -34.811   7.941 -42.353  1.00  0.00     0.184 HD
HETATM    8  N4  UNL     1     -33.576   8.846 -45.203  1.00  0.00    -0.155 N 
HETATM    9  C5  UNL     1     -32.964   9.973 -44.794  1.00  0.00     0.282 A 
ATOM     10  H4  UNL     1     -33.527   8.560 -46.181  1.00  0.00     0.187 HD
HETATM   11  O1  UNL     1     -32.310  10.714 -45.596  1.00  0.00    -0.266 OA
HETATM   12  C6  UNL     1     -33.003  10.397 -43.485  1.00  0.00     0.137 A 
HETATM   13  C7  UNL     1     -32.328  11.626 -43.078  1.00  0.00     0.107 C 
HETATM   14  N5  UNL     1     -31.809  12.609 -42.749  1.00  0.00    -0.191 NA
BRANCH   6  15
HETATM   15  N3  UNL     1     -34.831   7.024 -44.706  1.00  0.00    -0.234 N 
ATOM     16  H32 UNL     1     -34.517   6.571 -45.564  1.00  0.00     0.174 HD
ATOM     17  H31 UNL     1     -35.600   6.604 -44.183  1.00  0.00     0.174 HD
ENDBRANCH   6  15
ENDBRANCH   3   4
TORSDOF 2
ENDMDL
MODEL 5
REMARK VINA RESULT: -5.319469756      1.974      3.669
REMARK  2 active torsions:
REMARK  status: ('A' for Active; 'I' for Inactive)
REMARK    1  A    between atoms: C2_3  and  C3_4 
REMARK    2  A    between atoms: C4_7  and  N3_8 
ROOT
HETATM    1  N1  UNL     1     -39.038  11.023 -39.481  1.00  0.00    -0.197 NA
HETATM    2  C1  UNL     1     -38.278  10.846 -40.316  1.00  0.00     0.065 C 
HETATM    3  C2  UNL     1     -37.268  10.631 -41.380  1.00  0.00     0.183 C 
ENDROOT
BRANCH   3   4
HETATM    4  C3  UNL     1     -35.976  10.414 -40.704  1.00  0.00     0.066 A 
HETATM    5  N2  UNL     1     -35.777  10.794 -39.448  1.00  0.00    -0.193 N 
HETATM    6  C4  UNL     1     -34.604  10.623 -38.793  1.00  0.00     0.679 A 
ATOM      7  H2  UNL     1     -36.549  11.238 -38.950  1.00  0.00     0.184 HD
HETATM    8  N4  UNL     1     -33.584  10.038 -39.440  1.00  0.00    -0.155 N 
HETATM    9  C5  UNL     1     -33.751   9.640 -40.715  1.00  0.00     0.282 A 
ATOM     10  H4  UNL     1     -32.690   9.897 -38.969  1.00  0.00     0.187 HD
HETATM   11  O1  UNL     1     -32.817   9.081 -41.374  1.00  0.00    -0.266 OA
HETATM   12  C6  UNL     1     -34.939   9.811 -41.389  1.00  0.00     0.137 A 
HETATM   13  C7  UNL     1     -35.083   9.364 -42.771  1.00  0.00     0.107 C 
HETATM   14  N5  UNL     1     -35.213   8.998 -43.864  1.00  0.00    -0.191 NA
BRANCH   6  15
HETATM   15  N3  UNL     1     -34.441  11.005 -37.577  1.00  0.00    -0.234 N 
ATOM     16  H32 UNL     1     -34.991  11.788 -37.221  1.00  0.00     0.174 HD
ATOM     17  H31 UNL     1     -33.778  10.548 -36.951  1.00  0.00     0.174 HD
ENDBRANCH   6  15
ENDBRANCH   3   4
TORSDOF 2
ENDMDL
