MODEL 1
REMARK VINA RESULT: -5.502759841      0.000      0.000
REMARK  2 active torsions:
REMARK  status: ('A' for Active; 'I' for Inactive)
REMARK    1  A    between atoms: N1_1  and  C1_5 
REMARK    2  A    between atoms: C1_5  and  C2_6 
ROOT
HETATM    1  C2  UNL     1     -33.877   8.683 -44.645  1.00  0.00     0.055 A 
HETATM    2  C3  UNL     1     -33.347   9.889 -44.234  1.00  0.00     0.067 A 
HETATM    3  C4  UNL     1     -33.550   9.989 -42.885  1.00  0.00     0.144 A 
HETATM    4  C5  UNL     1     -33.213  10.996 -41.978  1.00  0.00     0.279 A 
HETATM    5  O1  UNL     1     -32.610  12.042 -42.383  1.00  0.00    -0.265 OA
HETATM    6  N2  UNL     1     -33.547  10.814 -40.685  1.00  0.00    -0.272 N 
ATOM      7  H2  UNL     1     -33.322  11.524 -39.988  1.00  0.00     0.174 HD
HETATM    8  C6  UNL     1     -34.176   9.695 -40.330  1.00  0.00     0.343 A 
HETATM    9  O2  UNL     1     -34.490   9.529 -39.103  1.00  0.00    -0.245 OA
HETATM   10  N3  UNL     1     -34.503   8.723 -41.196  1.00  0.00    -0.229 N 
ATOM     11  H3  UNL     1     -34.986   7.886 -40.872  1.00  0.00     0.194 HD
HETATM   12  N4  UNL     1     -34.193   8.864 -42.477  1.00  0.00    -0.187 N 
HETATM   13  N5  UNL     1     -34.375   8.104 -43.546  1.00  0.00    -0.281 N 
ATOM     14  H5  UNL     1     -34.835   7.194 -43.533  1.00  0.00     0.189 HD
ENDROOT
BRANCH   1  15
HETATM   15  C1  UNL     1     -33.879   8.162 -46.035  1.00  0.00     0.288 C 
BRANCH  15  16
HETATM   16  N1  UNL     1     -32.575   7.594 -46.396  1.00  0.00    -0.074 N 
ATOM     17  H13 UNL     1     -31.874   8.322 -46.531  1.00  0.00     0.274 HD
ATOM     18  H12 UNL     1     -32.147   7.109 -45.606  1.00  0.00     0.274 HD
ATOM     19  H11 UNL     1     -32.646   6.987 -47.213  1.00  0.00     0.274 HD
ENDBRANCH  15  16
ENDBRANCH   1  15
TORSDOF 2
ENDMDL
MODEL 2
REMARK VINA RESULT: -5.347421805      3.251      5.962
REMARK  2 active torsions:
REMARK  status: ('A' for Active; 'I' for Inactive)
REMARK    1  A    between atoms: N1_1  and  C1_5 
REMARK    2  A    between atoms: C1_5  and  C2_6 
ROOT
HETATM    1  C2  UNL     1     -35.148  11.747 -37.793  1.00  0.00     0.055 A 
HETATM    2  C3  UNL     1     -35.946  12.029 -38.884  1.00  0.00     0.067 A 
HETATM    3  C4  UNL     1     -35.649  11.115 -39.857  1.00  0.00     0.144 A 
HETATM    4  C5  UNL     1     -36.160  10.950 -41.146  1.00  0.00     0.279 A 
HETATM    5  O1  UNL     1     -37.060  11.737 -41.581  1.00  0.00    -0.265 OA
HETATM    6  N2  UNL     1     -35.666   9.941 -41.892  1.00  0.00    -0.272 N 
ATOM      7  H2  UNL     1     -36.008   9.784 -42.840  1.00  0.00     0.174 HD
HETATM    8  C6  UNL     1     -34.724   9.154 -41.375  1.00  0.00     0.343 A 
HETATM    9  O2  UNL     1     -34.261   8.200 -42.087  1.00  0.00    -0.245 OA
HETATM   10  N3  UNL     1     -34.229   9.307 -40.137  1.00  0.00    -0.229 N 
ATOM     11  H3  UNL     1     -33.508   8.676 -39.789  1.00  0.00     0.194 HD
HETATM   12  N4  UNL     1     -34.688  10.287 -39.371  1.00  0.00    -0.187 N 
HETATM   13  N5  UNL     1     -34.409  10.686 -38.140  1.00  0.00    -0.281 N 
ATOM     14  H5  UNL     1     -33.719  10.243 -37.534  1.00  0.00     0.189 HD
ENDROOT
BRANCH   1  15
HETATM   15  C1  UNL     1     -35.138  12.488 -36.507  1.00  0.00     0.288 C 
BRANCH  15  16
HETATM   16  N1  UNL     1     -34.374  11.770 -35.480  1.00  0.00    -0.074 N 
ATOM     17  H13 UNL     1     -34.977  11.438 -34.729  1.00  0.00     0.274 HD
ATOM     18  H12 UNL     1     -34.041  10.869 -35.824  1.00  0.00     0.274 HD
ATOM     19  H11 UNL     1     -33.607  12.339 -35.121  1.00  0.00     0.274 HD
ENDBRANCH  15  16
ENDBRANCH   1  15
TORSDOF 2
ENDMDL
MODEL 3
REMARK VINA RESULT: -5.164052983      2.054      4.443
REMARK  2 active torsions:
REMARK  status: ('A' for Active; 'I' for Inactive)
REMARK    1  A    between atoms: N1_1  and  C1_5 
REMARK    2  A    between atoms: C1_5  and  C2_6 
ROOT
HETATM    1  C2  UNL     1     -34.484   9.612 -40.886  1.00  0.00     0.055 A 
HETATM    2  C3  UNL     1     -33.567  10.585 -41.231  1.00  0.00     0.067 A 
HETATM    3  C4  UNL     1     -33.277  10.423 -42.558  1.00  0.00     0.144 A 
HETATM    4  C5  UNL     1     -32.420  11.131 -43.403  1.00  0.00     0.279 A 
HETATM    5  O1  UNL     1     -31.749  12.114 -42.951  1.00  0.00    -0.265 OA
HETATM    6  N2  UNL     1     -32.337  10.735 -44.688  1.00  0.00    -0.272 N 
ATOM      7  H2  UNL     1     -31.723  11.221 -45.341  1.00  0.00     0.174 HD
HETATM    8  C6  UNL     1     -33.068   9.698 -45.095  1.00  0.00     0.343 A 
HETATM    9  O2  UNL     1     -32.985   9.328 -46.315  1.00  0.00    -0.245 OA
HETATM   10  N3  UNL     1     -33.893   9.013 -44.289  1.00  0.00    -0.229 N 
ATOM     11  H3  UNL     1     -34.431   8.226 -44.651  1.00  0.00     0.194 HD
HETATM   12  N4  UNL     1     -34.004   9.371 -43.017  1.00  0.00    -0.187 N 
HETATM   13  N5  UNL     1     -34.713   8.907 -42.000  1.00  0.00    -0.281 N 
ATOM     14  H5  UNL     1     -35.352   8.114 -42.058  1.00  0.00     0.189 HD
ENDROOT
BRANCH   1  15
HETATM   15  C1  UNL     1     -35.078   9.415 -39.540  1.00  0.00     0.288 C 
BRANCH  15  16
HETATM   16  N1  UNL     1     -34.541  10.377 -38.571  1.00  0.00    -0.074 N 
ATOM     17  H13 UNL     1     -33.607  10.112 -38.259  1.00  0.00     0.274 HD
ATOM     18  H12 UNL     1     -34.311  11.267 -39.014  1.00  0.00     0.274 HD
ATOM     19  H11 UNL     1     -35.175  10.506 -37.782  1.00  0.00     0.274 HD
ENDBRANCH  15  16
ENDBRANCH   1  15
TORSDOF 2
ENDMDL
MODEL 4
REMARK VINA RESULT: -5.058917327      2.129      4.559
REMARK  2 active torsions:
REMARK  status: ('A' for Active; 'I' for Inactive)
REMARK    1  A    between atoms: N1_1  and  C1_5 
REMARK    2  A    between atoms: C1_5  and  C2_6 
ROOT
HETATM    1  C2  UNL     1     -34.917  10.704 -40.475  1.00  0.00     0.055 A 
HETATM    2  C3  UNL     1     -33.889  11.083 -41.315  1.00  0.00     0.067 A 
HETATM    3  C4  UNL     1     -33.916  10.249 -42.399  1.00  0.00     0.144 A 
HETATM    4  C5  UNL     1     -33.106  10.195 -43.535  1.00  0.00     0.279 A 
HETATM    5  O1  UNL     1     -32.150  11.024 -43.676  1.00  0.00    -0.265 OA
HETATM    6  N2  UNL     1     -33.375   9.246 -44.454  1.00  0.00    -0.272 N 
ATOM      7  H2  UNL     1     -32.809   9.168 -45.298  1.00  0.00     0.174 HD
HETATM    8  C6  UNL     1     -34.392   8.411 -44.243  1.00  0.00     0.343 A 
HETATM    9  O2  UNL     1     -34.642   7.515 -45.118  1.00  0.00    -0.245 OA
HETATM   10  N3  UNL     1     -35.174   8.458 -43.154  1.00  0.00    -0.229 N 
ATOM     11  H3  UNL     1     -35.940   7.793 -43.041  1.00  0.00     0.194 HD
HETATM   12  N4  UNL     1     -34.942   9.376 -42.226  1.00  0.00    -0.187 N 
HETATM   13  N5  UNL     1     -35.521   9.670 -41.073  1.00  0.00    -0.281 N 
ATOM     14  H5  UNL     1     -36.324   9.172 -40.688  1.00  0.00     0.189 HD
ENDROOT
BRANCH   1  15
HETATM   15  C1  UNL     1     -35.259  11.338 -39.177  1.00  0.00     0.288 C 
BRANCH  15  16
HETATM   16  N1  UNL     1     -34.504  10.737 -38.072  1.00  0.00    -0.074 N 
ATOM     17  H13 UNL     1     -33.699  10.211 -38.411  1.00  0.00     0.274 HD
ATOM     18  H12 UNL     1     -34.010  11.444 -37.527  1.00  0.00     0.274 HD
ATOM     19  H11 UNL     1     -35.104  10.162 -37.481  1.00  0.00     0.274 HD
ENDBRANCH  15  16
ENDBRANCH   1  15
TORSDOF 2
ENDMDL
MODEL 5
REMARK VINA RESULT: -5.007537067      0.964      1.002
REMARK  2 active torsions:
REMARK  status: ('A' for Active; 'I' for Inactive)
REMARK    1  A    between atoms: N1_1  and  C1_5 
REMARK    2  A    between atoms: C1_5  and  C2_6 
ROOT
HETATM    1  C2  UNL     1     -33.308   9.115 -45.476  1.00  0.00     0.055 A 
HETATM    2  C3  UNL     1     -32.649  10.191 -44.915  1.00  0.00     0.067 A 
HETATM    3  C4  UNL     1     -32.893  10.165 -43.569  1.00  0.00     0.144 A 
HETATM    4  C5  UNL     1     -32.470  11.014 -42.544  1.00  0.00     0.279 A 
HETATM    5  O1  UNL     1     -31.727  12.013 -42.810  1.00  0.00    -0.265 OA
HETATM    6  N2  UNL     1     -32.876  10.734 -41.290  1.00  0.00    -0.272 N 
ATOM      7  H2  UNL     1     -32.593  11.328 -40.510  1.00  0.00     0.174 HD
HETATM    8  C6  UNL     1     -33.652   9.672 -41.082  1.00  0.00     0.343 A 
HETATM    9  O2  UNL     1     -34.033   9.412 -39.891  1.00  0.00    -0.245 OA
HETATM   10  N3  UNL     1     -34.062   8.852 -42.062  1.00  0.00    -0.229 N 
ATOM     11  H3  UNL     1     -34.657   8.052 -41.849  1.00  0.00     0.194 HD
HETATM   12  N4  UNL     1     -33.685   9.092 -43.311  1.00  0.00    -0.187 N 
HETATM   13  N5  UNL     1     -33.916   8.485 -44.463  1.00  0.00    -0.281 N 
ATOM     14  H5  UNL     1     -34.486   7.645 -44.567  1.00  0.00     0.189 HD
ENDROOT
BRANCH   1  15
HETATM   15  C1  UNL     1     -33.318   8.755 -46.916  1.00  0.00     0.288 C 
BRANCH  15  16
HETATM   16  N1  UNL     1     -32.207   7.857 -47.252  1.00  0.00    -0.074 N 
ATOM     17  H13 UNL     1     -32.504   6.881 -47.259  1.00  0.00     0.274 HD
ATOM     18  H12 UNL     1     -31.938   7.946 -48.232  1.00  0.00     0.274 HD
ATOM     19  H11 UNL     1     -31.411   8.000 -46.631  1.00  0.00     0.274 HD
ENDBRANCH  15  16
ENDBRANCH   1  15
TORSDOF 2
ENDMDL
