MODEL 1
REMARK VINA RESULT: -5.333520316      0.000      0.000
REMARK  2 active torsions:
REMARK  status: ('A' for Active; 'I' for Inactive)
REMARK    1  A    between atoms: C4_8  and  S1_9 
REMARK    2  A    between atoms: S1_9  and  N3_10 
ROOT
HETATM    1  N1  UNL     1     -34.104  14.578 -40.601  1.00  0.00    -0.083 NA
HETATM    2  C1  UNL     1     -33.735  13.362 -41.245  1.00  0.00     0.123 A 
HETATM    3  C2  UNL     1     -32.868  13.357 -42.320  1.00  0.00     0.119 A 
HETATM    4  C3  UNL     1     -32.534  12.161 -42.919  1.00  0.00     0.250 A 
HETATM    5  O1  UNL     1     -31.738  12.189 -43.898  1.00  0.00    -0.268 OA
HETATM    6  N2  UNL     1     -33.060  11.010 -42.445  1.00  0.00    -0.298 N 
ATOM      7  H2  UNL     1     -32.811  10.126 -42.890  1.00  0.00     0.171 HD
HETATM    8  C4  UNL     1     -33.894  11.005 -41.415  1.00  0.00     0.227 A 
HETATM    9  N4  UNL     1     -34.217  12.176 -40.834  1.00  0.00    -0.320 N 
ATOM     10  H4  UNL     1     -34.860  12.162 -40.042  1.00  0.00     0.169 HD
ENDROOT
BRANCH   8  11
HETATM   11  S1  UNL     1     -34.598   9.521 -40.774  1.00  0.00     0.289 S 
HETATM   12  O2  UNL     1     -36.062   9.464 -41.103  1.00  0.00    -0.198 OA
HETATM   13  O3  UNL     1     -34.456   9.438 -39.291  1.00  0.00    -0.198 OA
BRANCH  11  14
HETATM   14  N3  UNL     1     -33.838   8.206 -41.589  1.00  0.00    -0.322 N 
ATOM     15  H32 UNL     1     -32.844   7.980 -41.556  1.00  0.00     0.169 HD
ATOM     16  H31 UNL     1     -34.566   7.709 -42.101  1.00  0.00     0.169 HD
ENDBRANCH  11  14
ENDBRANCH   8  11
TORSDOF 2
ENDMDL
MODEL 2
REMARK VINA RESULT: -5.305017228      1.509      2.353
REMARK  2 active torsions:
REMARK  status: ('A' for Active; 'I' for Inactive)
REMARK    1  A    between atoms: C4_8  and  S1_9 
REMARK    2  A    between atoms: S1_9  and  N3_10 
ROOT
HETATM    1  N1  UNL     1     -31.874  12.159 -44.079  1.00  0.00    -0.083 NA
HETATM    2  C1  UNL     1     -32.699  12.186 -42.919  1.00  0.00     0.123 A 
HETATM    3  C2  UNL     1     -32.976  13.372 -42.267  1.00  0.00     0.119 A 
HETATM    4  C3  UNL     1     -33.779  13.360 -41.146  1.00  0.00     0.250 A 
HETATM    5  O1  UNL     1     -34.015  14.460 -40.573  1.00  0.00    -0.268 OA
HETATM    6  N2  UNL     1     -34.284  12.188 -40.701  1.00  0.00    -0.298 N 
ATOM      7  H2  UNL     1     -34.878  12.182 -39.872  1.00  0.00     0.171 HD
HETATM    8  C4  UNL     1     -34.022  11.046 -41.321  1.00  0.00     0.227 A 
HETATM    9  N4  UNL     1     -33.238  11.062 -42.414  1.00  0.00    -0.320 N 
ATOM     10  H4  UNL     1     -33.042  10.178 -42.883  1.00  0.00     0.169 HD
ENDROOT
BRANCH   8  11
HETATM   11  S1  UNL     1     -34.665   9.500 -40.765  1.00  0.00     0.289 S 
HETATM   12  O2  UNL     1     -36.111   9.377 -41.152  1.00  0.00    -0.198 OA
HETATM   13  O3  UNL     1     -34.570   9.363 -39.283  1.00  0.00    -0.198 OA
BRANCH  11  14
HETATM   14  N3  UNL     1     -33.804   8.263 -41.603  1.00  0.00    -0.322 N 
ATOM     15  H32 UNL     1     -32.854   7.955 -41.396  1.00  0.00     0.169 HD
ATOM     16  H31 UNL     1     -34.422   7.908 -42.332  1.00  0.00     0.169 HD
ENDBRANCH  11  14
ENDBRANCH   8  11
TORSDOF 2
ENDMDL
MODEL 3
REMARK VINA RESULT: -5.192718852      2.396      4.778
REMARK  2 active torsions:
REMARK  status: ('A' for Active; 'I' for Inactive)
REMARK    1  A    between atoms: C4_8  and  S1_9 
REMARK    2  A    between atoms: S1_9  and  N3_10 
ROOT
HETATM    1  N1  UNL     1     -35.437   8.090 -43.499  1.00  0.00    -0.083 NA
HETATM    2  C1  UNL     1     -34.711   9.028 -42.712  1.00  0.00     0.123 A 
HETATM    3  C2  UNL     1     -34.645   8.908 -41.337  1.00  0.00     0.119 A 
HETATM    4  C3  UNL     1     -33.932   9.836 -40.606  1.00  0.00     0.250 A 
HETATM    5  O1  UNL     1     -33.889   9.699 -39.353  1.00  0.00    -0.268 OA
HETATM    6  N2  UNL     1     -33.309  10.850 -41.247  1.00  0.00    -0.298 N 
ATOM      7  H2  UNL     1     -32.782  11.535 -40.704  1.00  0.00     0.171 HD
HETATM    8  C4  UNL     1     -33.368  10.973 -42.565  1.00  0.00     0.227 A 
HETATM    9  N4  UNL     1     -34.065  10.065 -43.274  1.00  0.00    -0.320 N 
ATOM     10  H4  UNL     1     -34.105  10.169 -44.287  1.00  0.00     0.169 HD
ENDROOT
BRANCH   8  11
HETATM   11  S1  UNL     1     -32.567  12.284 -43.430  1.00  0.00     0.289 S 
HETATM   12  O2  UNL     1     -31.852  11.743 -44.635  1.00  0.00    -0.198 OA
HETATM   13  O3  UNL     1     -31.564  12.980 -42.572  1.00  0.00    -0.198 OA
BRANCH  11  14
HETATM   14  N3  UNL     1     -33.801  13.345 -44.001  1.00  0.00    -0.322 N 
ATOM     15  H32 UNL     1     -34.757  13.389 -43.648  1.00  0.00     0.169 HD
ATOM     16  H31 UNL     1     -33.392  13.907 -44.747  1.00  0.00     0.169 HD
ENDBRANCH  11  14
ENDBRANCH   8  11
TORSDOF 2
ENDMDL
MODEL 4
REMARK VINA RESULT: -5.095535814      2.032      4.715
REMARK  2 active torsions:
REMARK  status: ('A' for Active; 'I' for Inactive)
REMARK    1  A    between atoms: C4_8  and  S1_9 
REMARK    2  A    between atoms: S1_9  and  N3_10 
ROOT
HETATM    1  N1  UNL     1     -35.368   8.269 -43.254  1.00  0.00    -0.083 NA
HETATM    2  C1  UNL     1     -34.829   9.222 -42.344  1.00  0.00     0.123 A 
HETATM    3  C2  UNL     1     -34.894   9.023 -40.978  1.00  0.00     0.119 A 
HETATM    4  C3  UNL     1     -34.362   9.968 -40.126  1.00  0.00     0.250 A 
HETATM    5  O1  UNL     1     -34.436   9.757 -38.885  1.00  0.00    -0.268 OA
HETATM    6  N2  UNL     1     -33.784  11.076 -40.641  1.00  0.00    -0.298 N 
ATOM      7  H2  UNL     1     -33.390  11.773 -40.008  1.00  0.00     0.171 HD
HETATM    8  C4  UNL     1     -33.718  11.276 -41.949  1.00  0.00     0.227 A 
HETATM    9  N4  UNL     1     -34.239  10.350 -42.776  1.00  0.00    -0.320 N 
ATOM     10  H4  UNL     1     -34.183  10.514 -43.781  1.00  0.00     0.169 HD
ENDROOT
BRANCH   8  11
HETATM   11  S1  UNL     1     -32.970  12.711 -42.651  1.00  0.00     0.289 S 
HETATM   12  O2  UNL     1     -33.567  12.993 -44.000  1.00  0.00    -0.198 OA
HETATM   13  O3  UNL     1     -31.498  12.538 -42.824  1.00  0.00    -0.198 OA
BRANCH  11  14
HETATM   14  N3  UNL     1     -33.367  14.041 -41.627  1.00  0.00    -0.322 N 
ATOM     15  H32 UNL     1     -33.178  15.022 -41.828  1.00  0.00     0.169 HD
ATOM     16  H31 UNL     1     -33.820  13.656 -40.798  1.00  0.00     0.169 HD
ENDBRANCH  11  14
ENDBRANCH   8  11
TORSDOF 2
ENDMDL
MODEL 5
REMARK VINA RESULT: -5.044468102      2.723      4.391
REMARK  2 active torsions:
REMARK  status: ('A' for Active; 'I' for Inactive)
REMARK    1  A    between atoms: C4_8  and  S1_9 
REMARK    2  A    between atoms: S1_9  and  N3_10 
ROOT
HETATM    1  N1  UNL     1     -34.090   9.924 -39.212  1.00  0.00    -0.083 NA
HETATM    2  C1  UNL     1     -34.134   9.920 -40.635  1.00  0.00     0.123 A 
HETATM    3  C2  UNL     1     -34.851   8.962 -41.325  1.00  0.00     0.119 A 
HETATM    4  C3  UNL     1     -34.872   8.989 -42.704  1.00  0.00     0.250 A 
HETATM    5  O1  UNL     1     -35.537   8.101 -43.305  1.00  0.00    -0.268 OA
HETATM    6  N2  UNL     1     -34.189   9.953 -43.360  1.00  0.00    -0.298 N 
ATOM      7  H2  UNL     1     -34.207   9.972 -44.380  1.00  0.00     0.171 HD
HETATM    8  C4  UNL     1     -33.498  10.876 -42.706  1.00  0.00     0.227 A 
HETATM    9  N4  UNL     1     -33.481  10.845 -41.361  1.00  0.00    -0.320 N 
ATOM     10  H4  UNL     1     -32.946  11.559 -40.867  1.00  0.00     0.169 HD
ENDROOT
BRANCH   8  11
HETATM   11  S1  UNL     1     -32.597  12.147 -43.534  1.00  0.00     0.289 S 
HETATM   12  O2  UNL     1     -31.963  11.598 -44.779  1.00  0.00    -0.198 OA
HETATM   13  O3  UNL     1     -31.515  12.707 -42.673  1.00  0.00    -0.198 OA
BRANCH  11  14
HETATM   14  N3  UNL     1     -33.740  13.341 -44.025  1.00  0.00    -0.322 N 
ATOM     15  H32 UNL     1     -33.774  14.304 -43.692  1.00  0.00     0.169 HD
ATOM     16  H31 UNL     1     -34.363  12.899 -44.701  1.00  0.00     0.169 HD
ENDBRANCH  11  14
ENDBRANCH   8  11
TORSDOF 2
ENDMDL
