MODEL 1
REMARK VINA RESULT: -5.330274664      0.000      0.000
REMARK  2 active torsions:
REMARK  status: ('A' for Active; 'I' for Inactive)
REMARK    1  A    between atoms: N1_1  and  N2_4 
REMARK       I    between atoms: N2_4  and  C1_6 
REMARK    2  A    between atoms: C1_6  and  C2_8 
ROOT
HETATM    1  C2  UNL     1     -34.492  10.161 -40.416  1.00  0.00     0.121 A 
HETATM    2  C3  UNL     1     -34.499   8.785 -40.632  1.00  0.00     0.125 A 
HETATM    3  N3  UNL     1     -33.902   8.542 -41.785  1.00  0.00    -0.352 N 
ATOM      4  H3  UNL     1     -33.762   7.619 -42.199  1.00  0.00     0.166 HD
HETATM    5  C4  UNL     1     -33.513   9.697 -42.317  1.00  0.00     0.101 A 
HETATM    6  N4  UNL     1     -33.875  10.698 -41.473  1.00  0.00    -0.328 N 
HETATM    7  C5  UNL     1     -33.530  12.026 -41.898  1.00  0.00     0.150 C 
HETATM    8  C6  UNL     1     -33.847  12.149 -43.371  1.00  0.00     0.134 C 
HETATM    9  N5  UNL     1     -33.154  11.217 -44.192  1.00  0.00    -0.413 N 
ATOM     10  H5  UNL     1     -32.919  11.418 -45.164  1.00  0.00     0.153 HD
HETATM   11  C7  UNL     1     -32.811   9.987 -43.566  1.00  0.00     0.190 C 
ENDROOT
BRANCH   1  12
HETATM   12  C1  UNL     1     -35.027  10.884 -39.291  1.00  0.00     0.287 C 
HETATM   13  N2  UNL     1     -34.370  10.882 -38.005  1.00  0.00    -0.271 N 
ATOM     14  H2  UNL     1     -33.505  10.347 -37.915  1.00  0.00     0.189 HD
HETATM   15  O1  UNL     1     -36.073  11.536 -39.385  1.00  0.00    -0.264 OA
BRANCH  13  16
HETATM   16  N1  UNL     1     -34.824  11.547 -36.900  1.00  0.00    -0.342 N 
ATOM     17  H12 UNL     1     -35.271  12.450 -37.060  1.00  0.00     0.176 HD
ATOM     18  H11 UNL     1     -34.744  11.202 -35.943  1.00  0.00     0.176 HD
ENDBRANCH  13  16
ENDBRANCH   1  12
TORSDOF 2
ENDMDL
MODEL 2
REMARK VINA RESULT: -5.328059362      2.087      4.492
REMARK  2 active torsions:
REMARK  status: ('A' for Active; 'I' for Inactive)
REMARK    1  A    between atoms: N1_1  and  N2_4 
REMARK       I    between atoms: N2_4  and  C1_6 
REMARK    2  A    between atoms: C1_6  and  C2_8 
ROOT
HETATM    1  C2  UNL     1     -32.819  10.888 -42.345  1.00  0.00     0.121 A 
HETATM    2  C3  UNL     1     -32.222   9.630 -42.316  1.00  0.00     0.125 A 
HETATM    3  N3  UNL     1     -32.924   8.855 -41.509  1.00  0.00    -0.352 N 
ATOM      4  H3  UNL     1     -32.719   7.878 -41.297  1.00  0.00     0.166 HD
HETATM    5  C4  UNL     1     -33.941   9.557 -41.020  1.00  0.00     0.101 A 
HETATM    6  N4  UNL     1     -33.879  10.813 -41.535  1.00  0.00    -0.328 N 
HETATM    7  C5  UNL     1     -34.912  11.714 -41.105  1.00  0.00     0.150 C 
HETATM    8  C6  UNL     1     -35.109  11.534 -39.618  1.00  0.00     0.134 C 
HETATM    9  N5  UNL     1     -35.475  10.213 -39.238  1.00  0.00    -0.413 N 
ATOM     10  H5  UNL     1     -36.034  10.021 -38.406  1.00  0.00     0.153 HD
HETATM   11  C7  UNL     1     -35.009   9.179 -40.096  1.00  0.00     0.190 C 
ENDROOT
BRANCH   1  12
HETATM   12  C1  UNL     1     -32.403  12.050 -43.089  1.00  0.00     0.287 C 
HETATM   13  N2  UNL     1     -32.991  12.383 -44.365  1.00  0.00    -0.271 N 
ATOM     14  H2  UNL     1     -33.718  11.766 -44.729  1.00  0.00     0.189 HD
HETATM   15  O1  UNL     1     -31.524  12.807 -42.661  1.00  0.00    -0.264 OA
BRANCH  13  16
HETATM   16  N1  UNL     1     -32.643  13.469 -45.120  1.00  0.00    -0.342 N 
ATOM     17  H12 UNL     1     -31.710  13.460 -45.533  1.00  0.00     0.176 HD
ATOM     18  H11 UNL     1     -33.248  14.273 -45.293  1.00  0.00     0.176 HD
ENDBRANCH  13  16
ENDBRANCH   1  12
TORSDOF 2
ENDMDL
MODEL 3
REMARK VINA RESULT: -5.098805330      2.494      4.201
REMARK  2 active torsions:
REMARK  status: ('A' for Active; 'I' for Inactive)
REMARK    1  A    between atoms: N1_1  and  N2_4 
REMARK       I    between atoms: N2_4  and  C1_6 
REMARK    2  A    between atoms: C1_6  and  C2_8 
ROOT
HETATM    1  C2  UNL     1     -32.765  11.087 -42.297  1.00  0.00     0.121 A 
HETATM    2  C3  UNL     1     -32.084   9.873 -42.359  1.00  0.00     0.125 A 
HETATM    3  N3  UNL     1     -32.746   8.987 -41.635  1.00  0.00    -0.352 N 
ATOM      4  H3  UNL     1     -32.479   8.012 -41.500  1.00  0.00     0.166 HD
HETATM    5  C4  UNL     1     -33.817   9.578 -41.112  1.00  0.00     0.101 A 
HETATM    6  N4  UNL     1     -33.831  10.874 -41.520  1.00  0.00    -0.328 N 
HETATM    7  C5  UNL     1     -34.929  11.665 -41.040  1.00  0.00     0.150 C 
HETATM    8  C6  UNL     1     -35.139  11.347 -39.578  1.00  0.00     0.134 C 
HETATM    9  N5  UNL     1     -35.421   9.978 -39.317  1.00  0.00    -0.413 N 
ATOM     10  H5  UNL     1     -35.979   9.680 -38.517  1.00  0.00     0.153 HD
HETATM   11  C7  UNL     1     -34.872   9.053 -40.247  1.00  0.00     0.190 C 
ENDROOT
BRANCH   1  12
HETATM   12  C1  UNL     1     -32.416  12.332 -42.933  1.00  0.00     0.287 C 
HETATM   13  N2  UNL     1     -32.635  13.602 -42.282  1.00  0.00    -0.271 N 
ATOM     14  H2  UNL     1     -33.047  13.593 -41.349  1.00  0.00     0.189 HD
HETATM   15  O1  UNL     1     -31.916  12.358 -44.063  1.00  0.00    -0.264 OA
BRANCH  13  16
HETATM   16  N1  UNL     1     -32.327  14.818 -42.829  1.00  0.00    -0.342 N 
ATOM     17  H12 UNL     1     -33.049  15.260 -43.399  1.00  0.00     0.176 HD
ATOM     18  H11 UNL     1     -31.436  15.300 -42.705  1.00  0.00     0.176 HD
ENDBRANCH  13  16
ENDBRANCH   1  12
TORSDOF 2
ENDMDL
MODEL 4
REMARK VINA RESULT: -4.925439971      1.583      2.024
REMARK  2 active torsions:
REMARK  status: ('A' for Active; 'I' for Inactive)
REMARK    1  A    between atoms: N1_1  and  N2_4 
REMARK       I    between atoms: N2_4  and  C1_6 
REMARK    2  A    between atoms: C1_6  and  C2_8 
ROOT
HETATM    1  C2  UNL     1     -35.481  11.155 -40.489  1.00  0.00     0.121 A 
HETATM    2  C3  UNL     1     -36.643  11.268 -41.248  1.00  0.00     0.125 A 
HETATM    3  N3  UNL     1     -36.486  10.566 -42.356  1.00  0.00    -0.352 N 
ATOM      4  H3  UNL     1     -37.178  10.467 -43.100  1.00  0.00     0.166 HD
HETATM    5  C4  UNL     1     -35.278  10.010 -42.343  1.00  0.00     0.101 A 
HETATM    6  N4  UNL     1     -34.655  10.371 -41.190  1.00  0.00    -0.328 N 
HETATM    7  C5  UNL     1     -33.327   9.855 -41.012  1.00  0.00     0.150 C 
HETATM    8  C6  UNL     1     -32.589   9.985 -42.324  1.00  0.00     0.134 C 
HETATM    9  N5  UNL     1     -33.201   9.292 -43.405  1.00  0.00    -0.413 N 
ATOM     10  H5  UNL     1     -32.664   8.928 -44.192  1.00  0.00     0.153 HD
HETATM   11  C7  UNL     1     -34.613   9.143 -43.314  1.00  0.00     0.190 C 
ENDROOT
BRANCH   1  12
HETATM   12  C1  UNL     1     -35.199  11.746 -39.206  1.00  0.00     0.287 C 
HETATM   13  N2  UNL     1     -34.754  10.952 -38.086  1.00  0.00    -0.271 N 
ATOM     14  H2  UNL     1     -34.644   9.947 -38.230  1.00  0.00     0.189 HD
HETATM   15  O1  UNL     1     -35.328  12.961 -39.016  1.00  0.00    -0.264 OA
BRANCH  13  16
HETATM   16  N1  UNL     1     -34.469  11.450 -36.844  1.00  0.00    -0.342 N 
ATOM     17  H12 UNL     1     -33.603  11.130 -36.410  1.00  0.00     0.176 HD
ATOM     18  H11 UNL     1     -35.059  12.109 -36.335  1.00  0.00     0.176 HD
ENDBRANCH  13  16
ENDBRANCH   1  12
TORSDOF 2
ENDMDL
MODEL 5
REMARK VINA RESULT: -4.920620070      2.508      4.769
REMARK  2 active torsions:
REMARK  status: ('A' for Active; 'I' for Inactive)
REMARK    1  A    between atoms: N1_1  and  N2_4 
REMARK       I    between atoms: N2_4  and  C1_6 
REMARK    2  A    between atoms: C1_6  and  C2_8 
ROOT
HETATM    1  C2  UNL     1     -34.416   9.367 -42.097  1.00  0.00     0.121 A 
HETATM    2  C3  UNL     1     -33.109   9.369 -41.614  1.00  0.00     0.125 A 
HETATM    3  N3  UNL     1     -33.125   9.819 -40.372  1.00  0.00    -0.352 N 
ATOM      4  H3  UNL     1     -32.309   9.929 -39.770  1.00  0.00     0.166 HD
HETATM    5  C4  UNL     1     -34.380  10.107 -40.038  1.00  0.00     0.101 A 
HETATM    6  N4  UNL     1     -35.179   9.828 -41.101  1.00  0.00    -0.328 N 
HETATM    7  C5  UNL     1     -36.579  10.085 -40.912  1.00  0.00     0.150 C 
HETATM    8  C6  UNL     1     -36.726  11.412 -40.204  1.00  0.00     0.134 C 
HETATM    9  N5  UNL     1     -36.081  11.468 -38.938  1.00  0.00    -0.413 N 
ATOM     10  H5  UNL     1     -36.412  12.072 -38.185  1.00  0.00     0.153 HD
HETATM   11  C7  UNL     1     -34.943  10.627 -38.793  1.00  0.00     0.190 C 
ENDROOT
BRANCH   1  12
HETATM   12  C1  UNL     1     -34.880   8.955 -43.397  1.00  0.00     0.287 C 
HETATM   13  N2  UNL     1     -34.596   7.640 -43.922  1.00  0.00    -0.271 N 
ATOM     14  H2  UNL     1     -34.052   7.004 -43.340  1.00  0.00     0.189 HD
HETATM   15  O1  UNL     1     -35.541   9.716 -44.114  1.00  0.00    -0.264 OA
BRANCH  13  16
HETATM   16  N1  UNL     1     -35.007   7.188 -45.146  1.00  0.00    -0.342 N 
ATOM     17  H12 UNL     1     -35.719   7.741 -45.623  1.00  0.00     0.176 HD
ATOM     18  H11 UNL     1     -34.652   6.346 -45.601  1.00  0.00     0.176 HD
ENDBRANCH  13  16
ENDBRANCH   1  12
TORSDOF 2
ENDMDL
