MODEL 1
REMARK VINA RESULT: -5.470117883      0.000      0.000
REMARK  3 active torsions:
REMARK  status: ('A' for Active; 'I' for Inactive)
REMARK    1  A    between atoms: N1_1  and  C1_4 
REMARK    2  A    between atoms: C2_7  and  N3_8 
REMARK    3  A    between atoms: N3_8  and  C3_10 
ROOT
HETATM    1  C1  UNL     1     -33.032   9.519 -42.185  1.00  0.00     0.727 A 
HETATM    2  N2  UNL     1     -33.598   9.296 -43.385  1.00  0.00    -0.020 N 
ATOM      3  H2  UNL     1     -33.025   9.173 -44.220  1.00  0.00     0.203 HD
HETATM    4  C2  UNL     1     -34.940   9.240 -43.454  1.00  0.00     0.713 A 
HETATM    5  N4  UNL     1     -35.664   9.409 -42.332  1.00  0.00    -0.019 N 
ATOM      6  H4  UNL     1     -36.681   9.367 -42.386  1.00  0.00     0.203 HD
HETATM    7  C4  UNL     1     -35.075   9.632 -41.130  1.00  0.00     0.734 A 
HETATM    8  N5  UNL     1     -35.552   9.828 -39.888  1.00  0.00    -0.184 N 
ATOM      9  H5  UNL     1     -36.540   9.839 -39.636  1.00  0.00     0.185 HD
HETATM   10  C5  UNL     1     -34.537  10.006 -39.030  1.00  0.00     0.216 A 
HETATM   11  N6  UNL     1     -33.411   9.917 -39.771  1.00  0.00    -0.260 N 
ATOM     12  H6  UNL     1     -32.461  10.009 -39.412  1.00  0.00     0.189 HD
HETATM   13  N7  UNL     1     -33.734   9.689 -41.048  1.00  0.00     0.091 N 
ENDROOT
BRANCH   4  14
HETATM   14  N3  UNL     1     -35.463   9.026 -44.614  1.00  0.00    -0.166 N 
ATOM     15  H3  UNL     1     -36.073   9.727 -45.033  1.00  0.00     0.186 HD
BRANCH  14  16
HETATM   16  C3  UNL     1     -35.192   7.818 -45.311  1.00  0.00     0.368 C 
HETATM   17  O1  UNL     1     -34.953   6.727 -44.737  1.00  0.00    -0.283 OA
ENDBRANCH  14  16
ENDBRANCH   4  14
BRANCH   1  18
HETATM   18  N1  UNL     1     -31.757   9.577 -42.082  1.00  0.00    -0.232 N 
ATOM     19  H12 UNL     1     -31.276  10.187 -42.744  1.00  0.00     0.174 HD
ATOM     20  H11 UNL     1     -31.279   9.031 -41.366  1.00  0.00     0.174 HD
ENDBRANCH   1  18
TORSDOF 3
ENDMDL
MODEL 2
REMARK VINA RESULT: -5.332921941      2.524      3.647
REMARK  3 active torsions:
REMARK  status: ('A' for Active; 'I' for Inactive)
REMARK    1  A    between atoms: N1_1  and  C1_4 
REMARK    2  A    between atoms: C2_7  and  N3_8 
REMARK    3  A    between atoms: N3_8  and  C3_10 
ROOT
HETATM    1  C1  UNL     1     -34.609  10.458 -39.153  1.00  0.00     0.727 A 
HETATM    2  N2  UNL     1     -33.582   9.915 -39.832  1.00  0.00    -0.020 N 
ATOM      3  H2  UNL     1     -32.676   9.774 -39.386  1.00  0.00     0.203 HD
HETATM    4  C2  UNL     1     -33.783   9.563 -41.114  1.00  0.00     0.713 A 
HETATM    5  N4  UNL     1     -34.992   9.765 -41.670  1.00  0.00    -0.019 N 
ATOM      6  H4  UNL     1     -35.142   9.498 -42.643  1.00  0.00     0.203 HD
HETATM    7  C4  UNL     1     -36.016  10.314 -40.970  1.00  0.00     0.734 A 
HETATM    8  N5  UNL     1     -37.290  10.616 -41.277  1.00  0.00    -0.184 N 
ATOM      9  H5  UNL     1     -37.725  10.460 -42.186  1.00  0.00     0.185 HD
HETATM   10  C5  UNL     1     -37.903  11.153 -40.212  1.00  0.00     0.216 A 
HETATM   11  N6  UNL     1     -36.976  11.179 -39.230  1.00  0.00    -0.260 N 
ATOM     12  H6  UNL     1     -37.129  11.532 -38.285  1.00  0.00     0.189 HD
HETATM   13  N7  UNL     1     -35.828  10.669 -39.687  1.00  0.00     0.091 N 
ENDROOT
BRANCH   4  14
HETATM   14  N3  UNL     1     -32.785   9.044 -41.746  1.00  0.00    -0.166 N 
ATOM     15  H3  UNL     1     -32.608   8.042 -41.679  1.00  0.00     0.186 HD
BRANCH  14  16
HETATM   16  C3  UNL     1     -31.931   9.861 -42.535  1.00  0.00     0.368 C 
HETATM   17  O1  UNL     1     -32.009  11.115 -42.566  1.00  0.00    -0.283 OA
ENDBRANCH  14  16
ENDBRANCH   4  14
BRANCH   1  18
HETATM   18  N1  UNL     1     -34.454  10.804 -37.930  1.00  0.00    -0.232 N 
ATOM     19  H12 UNL     1     -34.001  10.124 -37.320  1.00  0.00     0.174 HD
ATOM     20  H11 UNL     1     -34.777  11.719 -37.615  1.00  0.00     0.174 HD
ENDBRANCH   1  18
TORSDOF 3
ENDMDL
MODEL 3
REMARK VINA RESULT: -5.269442938      2.520      4.479
REMARK  3 active torsions:
REMARK  status: ('A' for Active; 'I' for Inactive)
REMARK    1  A    between atoms: N1_1  and  C1_4 
REMARK    2  A    between atoms: C2_7  and  N3_8 
REMARK    3  A    between atoms: N3_8  and  C3_10 
ROOT
HETATM    1  C1  UNL     1     -33.021   9.431 -41.406  1.00  0.00     0.727 A 
HETATM    2  N2  UNL     1     -33.234   9.778 -40.124  1.00  0.00    -0.020 N 
ATOM      3  H2  UNL     1     -32.476   9.749 -39.441  1.00  0.00     0.203 HD
HETATM    4  C2  UNL     1     -34.471  10.164 -39.767  1.00  0.00     0.713 A 
HETATM    5  N4  UNL     1     -35.446  10.189 -40.694  1.00  0.00    -0.019 N 
ATOM      6  H4  UNL     1     -36.384  10.481 -40.421  1.00  0.00     0.203 HD
HETATM    7  C4  UNL     1     -35.213   9.835 -41.983  1.00  0.00     0.734 A 
HETATM    8  N5  UNL     1     -35.988   9.772 -43.081  1.00  0.00    -0.184 N 
ATOM      9  H5  UNL     1     -36.980  10.008 -43.110  1.00  0.00     0.185 HD
HETATM   10  C5  UNL     1     -35.265   9.354 -44.129  1.00  0.00     0.216 A 
HETATM   11  N6  UNL     1     -34.015   9.156 -43.657  1.00  0.00    -0.260 N 
ATOM     12  H6  UNL     1     -33.220   8.835 -44.209  1.00  0.00     0.189 HD
HETATM   13  N7  UNL     1     -33.980   9.448 -42.353  1.00  0.00     0.091 N 
ENDROOT
BRANCH   4  14
HETATM   14  N3  UNL     1     -34.653  10.493 -38.532  1.00  0.00    -0.166 N 
ATOM     15  H3  UNL     1     -34.369   9.854 -37.790  1.00  0.00     0.186 HD
BRANCH  14  16
HETATM   16  C3  UNL     1     -35.248  11.740 -38.202  1.00  0.00     0.368 C 
HETATM   17  O1  UNL     1     -35.282  12.720 -38.988  1.00  0.00    -0.283 OA
ENDBRANCH  14  16
ENDBRANCH   4  14
BRANCH   1  18
HETATM   18  N1  UNL     1     -31.855   9.059 -41.781  1.00  0.00    -0.232 N 
ATOM     19  H12 UNL     1     -31.081   9.301 -41.163  1.00  0.00     0.174 HD
ATOM     20  H11 UNL     1     -31.741   8.550 -42.658  1.00  0.00     0.174 HD
ENDBRANCH   1  18
TORSDOF 3
ENDMDL
MODEL 4
REMARK VINA RESULT: -5.268780914      1.672      3.043
REMARK  3 active torsions:
REMARK  status: ('A' for Active; 'I' for Inactive)
REMARK    1  A    between atoms: N1_1  and  C1_4 
REMARK    2  A    between atoms: C2_7  and  N3_8 
REMARK    3  A    between atoms: N3_8  and  C3_10 
ROOT
HETATM    1  C1  UNL     1     -36.379  10.775 -40.857  1.00  0.00     0.727 A 
HETATM    2  N2  UNL     1     -35.850   9.888 -41.719  1.00  0.00    -0.020 N 
ATOM      3  H2  UNL     1     -36.287   9.710 -42.623  1.00  0.00     0.203 HD
HETATM    4  C2  UNL     1     -34.728   9.241 -41.355  1.00  0.00     0.713 A 
HETATM    5  N4  UNL     1     -34.179   9.499 -40.154  1.00  0.00    -0.019 N 
ATOM      6  H4  UNL     1     -33.329   9.007 -39.880  1.00  0.00     0.203 HD
HETATM    7  C4  UNL     1     -34.728  10.397 -39.298  1.00  0.00     0.734 A 
HETATM    8  N5  UNL     1     -34.390  10.832 -38.071  1.00  0.00    -0.184 N 
ATOM      9  H5  UNL     1     -33.580  10.514 -37.540  1.00  0.00     0.185 HD
HETATM   10  C5  UNL     1     -35.277  11.744 -37.648  1.00  0.00     0.216 A 
HETATM   11  N6  UNL     1     -36.179  11.868 -38.645  1.00  0.00    -0.260 N 
ATOM     12  H6  UNL     1     -36.989  12.489 -38.634  1.00  0.00     0.189 HD
HETATM   13  N7  UNL     1     -35.849  11.051 -39.650  1.00  0.00     0.091 N 
ENDROOT
BRANCH   4  14
HETATM   14  N3  UNL     1     -34.237   8.394 -42.197  1.00  0.00    -0.166 N 
ATOM     15  H3  UNL     1     -33.532   7.724 -41.889  1.00  0.00     0.186 HD
BRANCH  14  16
HETATM   16  C3  UNL     1     -34.672   8.391 -43.549  1.00  0.00     0.368 C 
HETATM   17  O1  UNL     1     -35.639   7.704 -43.963  1.00  0.00    -0.283 OA
ENDBRANCH  14  16
ENDBRANCH   4  14
BRANCH   1  18
HETATM   18  N1  UNL     1     -37.446  11.409 -41.170  1.00  0.00    -0.232 N 
ATOM     19  H12 UNL     1     -37.574  11.622 -42.160  1.00  0.00     0.174 HD
ATOM     20  H11 UNL     1     -38.113  11.674 -40.444  1.00  0.00     0.174 HD
ENDBRANCH   1  18
TORSDOF 3
ENDMDL
MODEL 5
REMARK VINA RESULT: -5.175726429      1.825      2.889
REMARK  3 active torsions:
REMARK  status: ('A' for Active; 'I' for Inactive)
REMARK    1  A    between atoms: N1_1  and  C1_4 
REMARK    2  A    between atoms: C2_7  and  N3_8 
REMARK    3  A    between atoms: N3_8  and  C3_10 
ROOT
HETATM    1  C1  UNL     1     -34.837  10.209 -39.454  1.00  0.00     0.727 A 
HETATM    2  N2  UNL     1     -34.199   9.449 -40.362  1.00  0.00    -0.020 N 
ATOM      3  H2  UNL     1     -33.296   9.024 -40.148  1.00  0.00     0.203 HD
HETATM    4  C2  UNL     1     -34.782   9.264 -41.559  1.00  0.00     0.713 A 
HETATM    5  N4  UNL     1     -35.973   9.842 -41.807  1.00  0.00    -0.019 N 
ATOM      6  H4  UNL     1     -36.413   9.701 -42.716  1.00  0.00     0.203 HD
HETATM    7  C4  UNL     1     -36.601  10.606 -40.879  1.00  0.00     0.734 A 
HETATM    8  N5  UNL     1     -37.766  11.279 -40.869  1.00  0.00    -0.184 N 
ATOM      9  H5  UNL     1     -38.424  11.321 -41.647  1.00  0.00     0.185 HD
HETATM   10  C5  UNL     1     -37.933  11.887 -39.686  1.00  0.00     0.216 A 
HETATM   11  N6  UNL     1     -36.840  11.576 -38.956  1.00  0.00    -0.260 N 
ATOM     12  H6  UNL     1     -36.661  11.887 -38.001  1.00  0.00     0.189 HD
HETATM   13  N7  UNL     1     -36.029  10.797 -39.678  1.00  0.00     0.091 N 
ENDROOT
BRANCH   4  14
HETATM   14  N3  UNL     1     -34.153   8.531 -42.416  1.00  0.00    -0.166 N 
ATOM     15  H3  UNL     1     -33.296   8.052 -42.140  1.00  0.00     0.186 HD
BRANCH  14  16
HETATM   16  C3  UNL     1     -34.648   8.389 -43.739  1.00  0.00     0.368 C 
HETATM   17  O1  UNL     1     -35.653   7.693 -44.031  1.00  0.00    -0.283 OA
ENDBRANCH  14  16
ENDBRANCH   4  14
BRANCH   1  18
HETATM   18  N1  UNL     1     -34.311  10.405 -38.304  1.00  0.00    -0.232 N 
ATOM     19  H12 UNL     1     -33.453   9.891 -38.103  1.00  0.00     0.174 HD
ATOM     20  H11 UNL     1     -34.752  11.049 -37.646  1.00  0.00     0.174 HD
ENDBRANCH   1  18
TORSDOF 3
ENDMDL
