MODEL 1
REMARK VINA RESULT: -9.060193370      0.000      0.000
REMARK  8 active torsions:
REMARK  status: ('A' for Active; 'I' for Inactive)
REMARK    1  A    between atoms: C9_9  and  C10_10 
REMARK    2  A    between atoms: C10_10  and  C11_11 
REMARK    3  A    between atoms: C11_11  and  C12_12 
REMARK    4  A    between atoms: C12_12  and  C13_13 
REMARK    5  A    between atoms: C14_14  and  O1_15 
REMARK    6  A    between atoms: C15_17  and  O2_18 
REMARK    7  A    between atoms: C15_17  and  N1_20 
REMARK    8  A    between atoms: C20_25  and  C21_26 
ROOT
HETATM    1  C12 UNL     1      12.849   8.578   1.990  1.00  0.00    -0.006 C 
HETATM    2  C15 UNL     1      13.858   7.911   2.678  1.00  0.00     0.145 C 
ENDROOT
BRANCH   1   3
HETATM    3  C11 UNL     1      11.477   7.782   2.009  1.00  0.00     0.044 C 
BRANCH   3   4
HETATM    4  C10 UNL     1      10.389   8.793   2.142  1.00  0.00     0.016 C 
BRANCH   4   5
HETATM    5  C9  UNL     1       9.795   8.831   3.550  1.00  0.00     0.040 C 
HETATM    6  C7  UNL     1       9.132  10.121   3.886  1.00  0.00    -0.028 C 
HETATM    7  C2  UNL     1       8.095   9.677   4.941  1.00  0.00    -0.031 C 
HETATM    8  C6  UNL     1       8.167  10.497   2.801  1.00  0.00     0.011 C 
HETATM    9  C8  UNL     1      10.007  11.199   4.364  1.00  0.00     0.016 C 
HETATM   10  C1  UNL     1       8.744   9.095   6.141  1.00  0.00     0.016 C 
HETATM   11  C3  UNL     1       7.146  10.759   5.310  1.00  0.00     0.016 C 
HETATM   12  C4  UNL     1       7.462   8.609   4.040  1.00  0.00     0.040 C 
HETATM   13  C5  UNL     1       7.091   9.410   2.845  1.00  0.00     0.012 C 
HETATM   14  C23 UNL     1       8.707   7.834   3.729  1.00  0.00    -0.010 C 
HETATM   15  N2  UNL     1       8.694   6.572   3.675  1.00  0.00    -0.405 N 
ATOM     16  H22 UNL     1       7.948   5.888   3.798  1.00  0.00     0.155 HD
ATOM     17  H21 UNL     1       9.542   6.044   3.463  1.00  0.00     0.155 HD
ENDBRANCH   4   5
ENDBRANCH   3   4
ENDBRANCH   1   3
BRANCH   1  18
HETATM   18  C13 UNL     1      12.674   9.709   1.431  1.00  0.00     0.035 C 
HETATM   19  C14 UNL     1      13.164  10.538   0.354  1.00  0.00     0.132 C 
BRANCH  19  20
HETATM   20  O1  UNL     1      14.128  10.196  -0.489  1.00  0.00    -0.373 OA
ATOM     21  H1  UNL     1      13.991   9.893  -1.379  1.00  0.00     0.216 HD
ENDBRANCH  19  20
ENDBRANCH   1  18
BRANCH   2  22
HETATM   22  O2  UNL     1      13.525   6.593   2.876  1.00  0.00    -0.346 OA
ATOM     23  H2  UNL     1      14.181   6.154   3.404  1.00  0.00     0.219 HD
ENDBRANCH   2  22
BRANCH   2  24
HETATM   24  N1  UNL     1      15.108   8.124   3.253  1.00  0.00    -0.351 N 
HETATM   25  C16 UNL     1      15.874   9.110   3.929  1.00  0.00     0.088 C 
HETATM   26  C17 UNL     1      16.466   8.342   5.105  1.00  0.00     0.027 C 
HETATM   27  C22 UNL     1      17.003   9.339   2.934  1.00  0.00     0.042 C 
HETATM   28  C18 UNL     1      16.426   6.897   4.659  1.00  0.00     0.028 C 
HETATM   29  C19 UNL     1      16.212   7.066   3.200  1.00  0.00     0.101 C 
HETATM   30  C20 UNL     1      17.304   7.869   2.601  1.00  0.00     0.111 C 
BRANCH  30  31
HETATM   31  C21 UNL     1      17.512   7.671   1.173  1.00  0.00     0.179 C 
HETATM   32  O3  UNL     1      16.915   6.756   0.566  1.00  0.00    -0.648 OA
HETATM   33  O4  UNL     1      18.368   8.490   0.479  1.00  0.00    -0.648 OA
ENDBRANCH  30  31
ENDBRANCH   2  24
TORSDOF 8
ENDMDL
MODEL 2
REMARK VINA RESULT: -9.049586051      1.835      2.705
REMARK  8 active torsions:
REMARK  status: ('A' for Active; 'I' for Inactive)
REMARK    1  A    between atoms: C9_9  and  C10_10 
REMARK    2  A    between atoms: C10_10  and  C11_11 
REMARK    3  A    between atoms: C11_11  and  C12_12 
REMARK    4  A    between atoms: C12_12  and  C13_13 
REMARK    5  A    between atoms: C14_14  and  O1_15 
REMARK    6  A    between atoms: C15_17  and  O2_18 
REMARK    7  A    between atoms: C15_17  and  N1_20 
REMARK    8  A    between atoms: C20_25  and  C21_26 
ROOT
HETATM    1  C12 UNL     1      13.167   9.044   2.125  1.00  0.00    -0.006 C 
HETATM    2  C15 UNL     1      14.098   8.342   1.366  1.00  0.00     0.145 C 
ENDROOT
BRANCH   1   3
HETATM    3  C11 UNL     1      12.078   8.093   2.776  1.00  0.00     0.044 C 
BRANCH   3   4
HETATM    4  C10 UNL     1      10.747   8.718   2.525  1.00  0.00     0.016 C 
BRANCH   4   5
HETATM    5  C9  UNL     1       9.867   8.741   3.773  1.00  0.00     0.040 C 
HETATM    6  C7  UNL     1       9.130  10.021   3.962  1.00  0.00    -0.028 C 
HETATM    7  C2  UNL     1       7.898   9.559   4.771  1.00  0.00    -0.031 C 
HETATM    8  C6  UNL     1       8.413  10.390   2.697  1.00  0.00     0.011 C 
HETATM    9  C8  UNL     1       9.868  11.107   4.619  1.00  0.00     0.016 C 
HETATM   10  C1  UNL     1       8.283   8.979   6.081  1.00  0.00     0.016 C 
HETATM   11  C3  UNL     1       6.878  10.627   4.932  1.00  0.00     0.016 C 
HETATM   12  C4  UNL     1       7.486   8.487   3.754  1.00  0.00     0.040 C 
HETATM   13  C5  UNL     1       7.367   9.289   2.509  1.00  0.00     0.012 C 
HETATM   14  C23 UNL     1       8.778   7.730   3.714  1.00  0.00    -0.010 C 
HETATM   15  N2  UNL     1       8.795   6.468   3.656  1.00  0.00    -0.405 N 
ATOM     16  H22 UNL     1       8.048   5.774   3.616  1.00  0.00     0.155 HD
ATOM     17  H21 UNL     1       9.675   5.952   3.629  1.00  0.00     0.155 HD
ENDBRANCH   4   5
ENDBRANCH   3   4
ENDBRANCH   1   3
BRANCH   1  18
HETATM   18  C13 UNL     1      12.993  10.234   2.543  1.00  0.00     0.035 C 
HETATM   19  C14 UNL     1      13.355  11.133   3.615  1.00  0.00     0.132 C 
BRANCH  19  20
HETATM   20  O1  UNL     1      14.153  10.825   4.627  1.00  0.00    -0.373 OA
ATOM     21  H1  UNL     1      14.978  11.255   4.820  1.00  0.00     0.216 HD
ENDBRANCH  19  20
ENDBRANCH   1  18
BRANCH   2  22
HETATM   22  O2  UNL     1      13.638   7.082   1.072  1.00  0.00    -0.346 OA
ATOM     23  H2  UNL     1      13.842   6.475   1.774  1.00  0.00     0.219 HD
ENDBRANCH   2  22
BRANCH   2  24
HETATM   24  N1  UNL     1      15.362   8.475   0.798  1.00  0.00    -0.351 N 
HETATM   25  C16 UNL     1      16.387   7.725   0.163  1.00  0.00     0.088 C 
HETATM   26  C17 UNL     1      16.744   8.583  -1.046  1.00  0.00     0.027 C 
HETATM   27  C22 UNL     1      17.524   7.872   1.164  1.00  0.00     0.042 C 
HETATM   28  C18 UNL     1      16.285   9.972  -0.661  1.00  0.00     0.028 C 
HETATM   29  C19 UNL     1      16.114   9.808   0.805  1.00  0.00     0.101 C 
HETATM   30  C20 UNL     1      17.385   9.380   1.435  1.00  0.00     0.111 C 
BRANCH  30  31
HETATM   31  C21 UNL     1      17.513   9.687   2.852  1.00  0.00     0.179 C 
HETATM   32  O3  UNL     1      18.521  10.286   3.283  1.00  0.00    -0.648 OA
HETATM   33  O4  UNL     1      16.523   9.320   3.731  1.00  0.00    -0.648 OA
ENDBRANCH  30  31
ENDBRANCH   2  24
TORSDOF 8
ENDMDL
MODEL 3
REMARK VINA RESULT: -9.046549645      1.611      2.082
REMARK  8 active torsions:
REMARK  status: ('A' for Active; 'I' for Inactive)
REMARK    1  A    between atoms: C9_9  and  C10_10 
REMARK    2  A    between atoms: C10_10  and  C11_11 
REMARK    3  A    between atoms: C11_11  and  C12_12 
REMARK    4  A    between atoms: C12_12  and  C13_13 
REMARK    5  A    between atoms: C14_14  and  O1_15 
REMARK    6  A    between atoms: C15_17  and  O2_18 
REMARK    7  A    between atoms: C15_17  and  N1_20 
REMARK    8  A    between atoms: C20_25  and  C21_26 
ROOT
HETATM    1  C12 UNL     1      12.562  10.443   2.074  1.00  0.00    -0.006 C 
HETATM    2  C15 UNL     1      13.422   9.358   2.210  1.00  0.00     0.145 C 
ENDROOT
BRANCH   1   3
HETATM    3  C11 UNL     1      11.253  10.078   1.256  1.00  0.00     0.044 C 
BRANCH   3   4
HETATM    4  C10 UNL     1      10.435   9.181   2.123  1.00  0.00     0.016 C 
BRANCH   4   5
HETATM    5  C9  UNL     1       9.712   9.941   3.234  1.00  0.00     0.040 C 
HETATM    6  C7  UNL     1       8.235   9.753   3.225  1.00  0.00    -0.028 C 
HETATM    7  C2  UNL     1       7.879   9.985   4.710  1.00  0.00    -0.031 C 
HETATM    8  C6  UNL     1       7.906   8.291   3.166  1.00  0.00     0.011 C 
HETATM    9  C8  UNL     1       7.474  10.617   2.315  1.00  0.00     0.016 C 
HETATM   10  C1  UNL     1       8.229  11.357   5.154  1.00  0.00     0.016 C 
HETATM   11  C3  UNL     1       6.464   9.660   5.024  1.00  0.00     0.016 C 
HETATM   12  C4  UNL     1       8.864   8.931   5.233  1.00  0.00     0.040 C 
HETATM   13  C5  UNL     1       8.427   7.722   4.488  1.00  0.00     0.012 C 
HETATM   14  C23 UNL     1      10.106   9.468   4.588  1.00  0.00    -0.010 C 
HETATM   15  N2  UNL     1      11.211   9.471   5.200  1.00  0.00    -0.405 N 
ATOM     16  H22 UNL     1      11.481   9.147   6.128  1.00  0.00     0.155 HD
ATOM     17  H21 UNL     1      12.056   9.837   4.761  1.00  0.00     0.155 HD
ENDBRANCH   4   5
ENDBRANCH   3   4
ENDBRANCH   1   3
BRANCH   1  18
HETATM   18  C13 UNL     1      12.469  11.636   2.510  1.00  0.00     0.035 C 
HETATM   19  C14 UNL     1      12.906  12.987   2.244  1.00  0.00     0.132 C 
BRANCH  19  20
HETATM   20  O1  UNL     1      13.677  13.350   1.229  1.00  0.00    -0.373 OA
ATOM     21  H1  UNL     1      14.126  14.184   1.157  1.00  0.00     0.216 HD
ENDBRANCH  19  20
ENDBRANCH   1  18
BRANCH   2  22
HETATM   22  O2  UNL     1      13.107   8.370   1.310  1.00  0.00    -0.346 OA
ATOM     23  H2  UNL     1      13.836   7.770   1.199  1.00  0.00     0.219 HD
ENDBRANCH   2  22
BRANCH   2  24
HETATM   24  N1  UNL     1      14.506   8.916   2.964  1.00  0.00    -0.351 N 
HETATM   25  C16 UNL     1      15.531   9.384   3.829  1.00  0.00     0.088 C 
HETATM   26  C17 UNL     1      15.476   8.400   4.993  1.00  0.00     0.027 C 
HETATM   27  C22 UNL     1      16.775   9.049   3.021  1.00  0.00     0.042 C 
HETATM   28  C18 UNL     1      14.818   7.172   4.406  1.00  0.00     0.028 C 
HETATM   29  C19 UNL     1      14.955   7.454   2.954  1.00  0.00     0.101 C 
HETATM   30  C20 UNL     1      16.380   7.628   2.587  1.00  0.00     0.111 C 
BRANCH  30  31
HETATM   31  C21 UNL     1      16.697   7.383   1.188  1.00  0.00     0.179 C 
HETATM   32  O3  UNL     1      17.828   7.661   0.735  1.00  0.00    -0.648 OA
HETATM   33  O4  UNL     1      15.753   6.841   0.349  1.00  0.00    -0.648 OA
ENDBRANCH  30  31
ENDBRANCH   2  24
TORSDOF 8
ENDMDL
MODEL 4
REMARK VINA RESULT: -9.023466182      2.903      7.714
REMARK  8 active torsions:
REMARK  status: ('A' for Active; 'I' for Inactive)
REMARK    1  A    between atoms: C9_9  and  C10_10 
REMARK    2  A    between atoms: C10_10  and  C11_11 
REMARK    3  A    between atoms: C11_11  and  C12_12 
REMARK    4  A    between atoms: C12_12  and  C13_13 
REMARK    5  A    between atoms: C14_14  and  O1_15 
REMARK    6  A    between atoms: C15_17  and  O2_18 
REMARK    7  A    between atoms: C15_17  and  N1_20 
REMARK    8  A    between atoms: C20_25  and  C21_26 
ROOT
HETATM    1  C12 UNL     1      11.948   7.990   4.073  1.00  0.00    -0.006 C 
HETATM    2  C15 UNL     1      10.579   8.099   3.853  1.00  0.00     0.145 C 
ENDROOT
BRANCH   1   3
HETATM    3  C11 UNL     1      12.656   7.041   3.017  1.00  0.00     0.044 C 
BRANCH   3   4
HETATM    4  C10 UNL     1      14.112   7.365   3.047  1.00  0.00     0.016 C 
BRANCH   4   5
HETATM    5  C9  UNL     1      14.570   8.113   1.795  1.00  0.00     0.040 C 
HETATM    6  C7  UNL     1      15.631   9.124   2.057  1.00  0.00    -0.028 C 
HETATM    7  C2  UNL     1      16.351   9.185   0.692  1.00  0.00    -0.031 C 
HETATM    8  C6  UNL     1      16.746   8.502   2.845  1.00  0.00     0.011 C 
HETATM    9  C8  UNL     1      15.176  10.440   2.521  1.00  0.00     0.016 C 
HETATM   10  C1  UNL     1      15.446   9.645  -0.390  1.00  0.00     0.016 C 
HETATM   11  C3  UNL     1      17.599   9.990   0.731  1.00  0.00     0.016 C 
HETATM   12  C4  UNL     1      16.616   7.675   0.632  1.00  0.00     0.040 C 
HETATM   13  C5  UNL     1      17.344   7.450   1.908  1.00  0.00     0.012 C 
HETATM   14  C23 UNL     1      15.202   7.208   0.799  1.00  0.00    -0.010 C 
HETATM   15  N2  UNL     1      14.756   6.225   0.142  1.00  0.00    -0.405 N 
ATOM     16  H22 UNL     1      15.190   5.605  -0.542  1.00  0.00     0.155 HD
ATOM     17  H21 UNL     1      13.793   5.908   0.255  1.00  0.00     0.155 HD
ENDBRANCH   4   5
ENDBRANCH   3   4
ENDBRANCH   1   3
BRANCH   1  18
HETATM   18  C13 UNL     1      12.831   8.523   4.821  1.00  0.00     0.035 C 
HETATM   19  C14 UNL     1      12.985   9.310   6.022  1.00  0.00     0.132 C 
BRANCH  19  20
HETATM   20  O1  UNL     1      11.988   9.732   6.787  1.00  0.00    -0.373 OA
ATOM     21  H1  UNL     1      12.030  10.478   7.373  1.00  0.00     0.216 HD
ENDBRANCH  19  20
ENDBRANCH   1  18
BRANCH   2  22
HETATM   22  O2  UNL     1      10.135   7.091   3.032  1.00  0.00    -0.346 OA
ATOM     23  H2  UNL     1      10.378   6.241   3.379  1.00  0.00     0.219 HD
ENDBRANCH   2  22
BRANCH   2  24
HETATM   24  N1  UNL     1       9.484   8.895   4.178  1.00  0.00    -0.351 N 
HETATM   25  C16 UNL     1       8.264   8.875   4.905  1.00  0.00     0.088 C 
HETATM   26  C17 UNL     1       8.304  10.186   5.683  1.00  0.00     0.027 C 
HETATM   27  C22 UNL     1       7.250   9.055   3.785  1.00  0.00     0.042 C 
HETATM   28  C18 UNL     1       9.261  11.052   4.896  1.00  0.00     0.028 C 
HETATM   29  C19 UNL     1       9.315  10.306   3.613  1.00  0.00     0.101 C 
HETATM   30  C20 UNL     1       7.962  10.184   3.022  1.00  0.00     0.111 C 
BRANCH  30  31
HETATM   31  C21 UNL     1       7.928   9.968   1.583  1.00  0.00     0.179 C 
HETATM   32  O3  UNL     1       7.186  10.661   0.855  1.00  0.00    -0.648 OA
HETATM   33  O4  UNL     1       8.714   8.998   1.010  1.00  0.00    -0.648 OA
ENDBRANCH  30  31
ENDBRANCH   2  24
TORSDOF 8
ENDMDL
MODEL 5
REMARK VINA RESULT: -8.934590251      2.692      7.123
REMARK  8 active torsions:
REMARK  status: ('A' for Active; 'I' for Inactive)
REMARK    1  A    between atoms: C9_9  and  C10_10 
REMARK    2  A    between atoms: C10_10  and  C11_11 
REMARK    3  A    between atoms: C11_11  and  C12_12 
REMARK    4  A    between atoms: C12_12  and  C13_13 
REMARK    5  A    between atoms: C14_14  and  O1_15 
REMARK    6  A    between atoms: C15_17  and  O2_18 
REMARK    7  A    between atoms: C15_17  and  N1_20 
REMARK    8  A    between atoms: C20_25  and  C21_26 
ROOT
HETATM    1  C12 UNL     1      12.008  10.368   4.416  1.00  0.00    -0.006 C 
HETATM    2  C15 UNL     1      10.809   9.953   4.988  1.00  0.00     0.145 C 
ENDROOT
BRANCH   1   3
HETATM    3  C11 UNL     1      13.235  10.215   5.409  1.00  0.00     0.044 C 
BRANCH   3   4
HETATM    4  C10 UNL     1      13.782   8.840   5.217  1.00  0.00     0.016 C 
BRANCH   4   5
HETATM    5  C9  UNL     1      14.162   8.560   3.764  1.00  0.00     0.040 C 
HETATM    6  C7  UNL     1      15.630   8.560   3.518  1.00  0.00    -0.028 C 
HETATM    7  C2  UNL     1      15.745   7.623   2.295  1.00  0.00    -0.031 C 
HETATM    8  C6  UNL     1      16.316   7.674   4.515  1.00  0.00     0.011 C 
HETATM    9  C8  UNL     1      16.253   9.871   3.294  1.00  0.00     0.016 C 
HETATM   10  C1  UNL     1      15.018   8.160   1.119  1.00  0.00     0.016 C 
HETATM   11  C3  UNL     1      17.151   7.288   1.954  1.00  0.00     0.016 C 
HETATM   12  C4  UNL     1      14.999   6.463   2.966  1.00  0.00     0.040 C 
HETATM   13  C5  UNL     1      15.804   6.266   4.199  1.00  0.00     0.012 C 
HETATM   14  C23 UNL     1      13.746   7.201   3.326  1.00  0.00    -0.010 C 
HETATM   15  N2  UNL     1      12.611   6.655   3.215  1.00  0.00    -0.405 N 
ATOM     16  H22 UNL     1      12.326   5.724   2.914  1.00  0.00     0.155 HD
ATOM     17  H21 UNL     1      11.758   7.158   3.460  1.00  0.00     0.155 HD
ENDBRANCH   4   5
ENDBRANCH   3   4
ENDBRANCH   1   3
BRANCH   1  18
HETATM   18  C13 UNL     1      12.432  10.741   3.275  1.00  0.00     0.035 C 
HETATM   19  C14 UNL     1      12.716  11.921   2.492  1.00  0.00     0.132 C 
BRANCH  19  20
HETATM   20  O1  UNL     1      12.567  13.168   2.917  1.00  0.00    -0.373 OA
ATOM     21  H1  UNL     1      13.063  13.565   3.624  1.00  0.00     0.216 HD
ENDBRANCH  19  20
ENDBRANCH   1  18
BRANCH   2  22
HETATM   22  O2  UNL     1      10.923   9.870   6.354  1.00  0.00    -0.346 OA
ATOM     23  H2  UNL     1      10.089   9.643   6.749  1.00  0.00     0.219 HD
ENDBRANCH   2  22
BRANCH   2  24
HETATM   24  N1  UNL     1       9.512   9.580   4.647  1.00  0.00    -0.351 N 
HETATM   25  C16 UNL     1       8.507   8.623   4.951  1.00  0.00     0.088 C 
HETATM   26  C17 UNL     1       7.254   9.477   5.109  1.00  0.00     0.027 C 
HETATM   27  C22 UNL     1       8.383   7.893   3.621  1.00  0.00     0.042 C 
HETATM   28  C18 UNL     1       7.568  10.738   4.337  1.00  0.00     0.028 C 
HETATM   29  C19 UNL     1       8.734  10.287   3.536  1.00  0.00     0.101 C 
HETATM   30  C20 UNL     1       8.372   9.121   2.696  1.00  0.00     0.111 C 
BRANCH  30  31
HETATM   31  C21 UNL     1       9.205   8.919   1.519  1.00  0.00     0.179 C 
HETATM   32  O3  UNL     1       9.013   9.589   0.483  1.00  0.00    -0.648 OA
HETATM   33  O4  UNL     1      10.213   7.985   1.538  1.00  0.00    -0.648 OA
ENDBRANCH  30  31
ENDBRANCH   2  24
TORSDOF 8
ENDMDL
