MODEL 1
REMARK VINA RESULT: -10.292845972      0.000      0.000
REMARK  6 active torsions:
REMARK  status: ('A' for Active; 'I' for Inactive)
REMARK    1  A    between atoms: C4_4  and  C5_5 
REMARK    2  A    between atoms: C5_5  and  C6_6 
REMARK    3  A    between atoms: C13_14  and  N1_15 
REMARK       I    between atoms: N1_15  and  C14_17 
REMARK    4  A    between atoms: C14_17  and  C15_19 
REMARK    5  A    between atoms: C15_19  and  N2_20 
REMARK       I    between atoms: N2_20  and  C16_22 
REMARK       I    between atoms: C16_22  and  N3_24 
REMARK    6  A    between atoms: N3_24  and  C17_26 
ROOT
HETATM    1  C6  UNL     1       7.485  10.068   3.231  1.00  0.00    -0.013 C 
HETATM    2  C7  UNL     1       7.093   8.630   3.178  1.00  0.00     0.177 C 
HETATM    3  O1  UNL     1       8.154   7.745   3.296  1.00  0.00    -0.385 OA
HETATM    4  C8  UNL     1       9.001   7.954   4.342  1.00  0.00     0.124 C 
HETATM    5  C9  UNL     1       8.393   8.615   5.543  1.00  0.00     0.037 C 
HETATM    6  C10 UNL     1       8.422  10.110   5.485  1.00  0.00    -0.009 C 
HETATM    7  C11 UNL     1       7.316  10.657   4.627  1.00  0.00     0.016 C 
HETATM    8  C12 UNL     1       9.730  10.679   5.016  1.00  0.00     0.035 C 
HETATM    9  C13 UNL     1       9.988  10.138   3.625  1.00  0.00     0.036 C 
HETATM   10  C22 UNL     1      10.238   8.637   3.859  1.00  0.00     0.062 C 
HETATM   11  C23 UNL     1       8.861  10.325   2.671  1.00  0.00     0.043 C 
ENDROOT
BRANCH   9  12
HETATM   12  N1  UNL     1      11.187  10.669   3.043  1.00  0.00    -0.350 N 
HETATM   13  C14 UNL     1      11.759  10.258   1.829  1.00  0.00     0.236 C 
HETATM   14  O2  UNL     1      11.200   9.351   1.168  1.00  0.00    -0.272 OA
ATOM     15  H1  UNL     1      11.665  11.410   3.555  1.00  0.00     0.163 HD
BRANCH  13  16
HETATM   16  C15 UNL     1      13.002  10.837   1.264  1.00  0.00     0.227 C 
BRANCH  16  17
HETATM   17  N2  UNL     1      13.746   9.889   0.488  1.00  0.00    -0.334 N 
HETATM   18  C16 UNL     1      14.769  10.280  -0.403  1.00  0.00     0.316 C 
HETATM   19  O3  UNL     1      15.052  11.486  -0.536  1.00  0.00    -0.247 OA
HETATM   20  N3  UNL     1      15.471   9.309  -1.143  1.00  0.00    -0.339 N 
ATOM     21  H3  UNL     1      15.219   8.330  -1.011  1.00  0.00     0.164 HD
ATOM     22  H2  UNL     1      13.529   8.897   0.582  1.00  0.00     0.164 HD
BRANCH  20  23
HETATM   23  C17 UNL     1      16.514   9.616  -2.067  1.00  0.00     0.086 C 
HETATM   24  C18 UNL     1      17.912   9.490  -1.492  1.00  0.00     0.025 C 
HETATM   25  C19 UNL     1      18.761   9.738  -2.752  1.00  0.00     0.002 C 
HETATM   26  C20 UNL     1      17.903   9.270  -3.908  1.00  0.00     0.002 C 
HETATM   27  C21 UNL     1      16.603   8.749  -3.276  1.00  0.00     0.025 C 
ENDBRANCH  20  23
ENDBRANCH  16  17
ENDBRANCH  13  16
ENDBRANCH   9  12
BRANCH   1  28
HETATM   28  C5  UNL     1       6.527  10.854   2.342  1.00  0.00     0.039 C 
BRANCH  28  29
HETATM   29  C4  UNL     1       6.562  10.362   0.945  1.00  0.00    -0.024 C 
HETATM   30  C2  UNL     1       5.518   9.879   0.285  1.00  0.00    -0.091 C 
HETATM   31  C1  UNL     1       4.151   9.764   0.866  1.00  0.00     0.042 C 
HETATM   32  C3  UNL     1       5.664   9.408  -1.129  1.00  0.00     0.042 C 
ENDBRANCH  28  29
ENDBRANCH   1  28
TORSDOF 6
ENDMDL
MODEL 2
REMARK VINA RESULT: -10.032902249      2.723      9.015
REMARK  6 active torsions:
REMARK  status: ('A' for Active; 'I' for Inactive)
REMARK    1  A    between atoms: C4_4  and  C5_5 
REMARK    2  A    between atoms: C5_5  and  C6_6 
REMARK    3  A    between atoms: C13_14  and  N1_15 
REMARK       I    between atoms: N1_15  and  C14_17 
REMARK    4  A    between atoms: C14_17  and  C15_19 
REMARK    5  A    between atoms: C15_19  and  N2_20 
REMARK       I    between atoms: N2_20  and  C16_22 
REMARK       I    between atoms: C16_22  and  N3_24 
REMARK    6  A    between atoms: N3_24  and  C17_26 
ROOT
HETATM    1  C6  UNL     1      15.661  10.751  -1.980  1.00  0.00    -0.013 C 
HETATM    2  C7  UNL     1      16.774  11.714  -1.739  1.00  0.00     0.177 C 
HETATM    3  O1  UNL     1      17.793  11.220  -0.941  1.00  0.00    -0.385 OA
HETATM    4  C8  UNL     1      18.302  10.006  -1.295  1.00  0.00     0.124 C 
HETATM    5  C9  UNL     1      18.213   9.669  -2.752  1.00  0.00     0.037 C 
HETATM    6  C10 UNL     1      16.924   9.013  -3.140  1.00  0.00    -0.009 C 
HETATM    7  C11 UNL     1      15.816  10.015  -3.306  1.00  0.00     0.016 C 
HETATM    8  C12 UNL     1      16.473   7.941  -2.190  1.00  0.00     0.035 C 
HETATM    9  C13 UNL     1      16.298   8.584  -0.830  1.00  0.00     0.036 C 
HETATM   10  C22 UNL     1      17.734   8.946  -0.410  1.00  0.00     0.062 C 
HETATM   11  C23 UNL     1      15.443   9.802  -0.829  1.00  0.00     0.043 C 
ENDROOT
BRANCH   9  12
HETATM   12  N1  UNL     1      15.801   7.663   0.153  1.00  0.00    -0.350 N 
HETATM   13  C14 UNL     1      15.560   7.959   1.503  1.00  0.00     0.236 C 
HETATM   14  O2  UNL     1      15.786   9.118   1.923  1.00  0.00    -0.272 OA
ATOM     15  H1  UNL     1      15.606   6.712  -0.157  1.00  0.00     0.163 HD
BRANCH  13  16
HETATM   16  C15 UNL     1      15.045   6.973   2.485  1.00  0.00     0.227 C 
BRANCH  16  17
HETATM   17  N2  UNL     1      13.624   6.804   2.400  1.00  0.00    -0.334 N 
HETATM   18  C16 UNL     1      12.724   7.603   3.137  1.00  0.00     0.316 C 
HETATM   19  O3  UNL     1      13.156   8.492   3.894  1.00  0.00    -0.247 OA
HETATM   20  N3  UNL     1      11.336   7.397   3.018  1.00  0.00    -0.339 N 
ATOM     21  H3  UNL     1      11.012   6.664   2.388  1.00  0.00     0.164 HD
ATOM     22  H2  UNL     1      13.250   6.081   1.786  1.00  0.00     0.164 HD
BRANCH  20  23
HETATM   23  C17 UNL     1      10.357   8.154   3.728  1.00  0.00     0.086 C 
HETATM   24  C18 UNL     1       9.923   9.426   3.024  1.00  0.00     0.025 C 
HETATM   25  C19 UNL     1       8.796   9.899   3.961  1.00  0.00     0.002 C 
HETATM   26  C20 UNL     1       8.242   8.636   4.586  1.00  0.00     0.002 C 
HETATM   27  C21 UNL     1       9.050   7.481   3.973  1.00  0.00     0.025 C 
ENDBRANCH  20  23
ENDBRANCH  16  17
ENDBRANCH  13  16
ENDBRANCH   9  12
BRANCH   1  28
HETATM   28  C5  UNL     1      14.365  11.545  -2.108  1.00  0.00     0.039 C 
BRANCH  28  29
HETATM   29  C4  UNL     1      14.170  12.447  -0.949  1.00  0.00    -0.024 C 
HETATM   30  C2  UNL     1      13.190  12.340  -0.061  1.00  0.00    -0.091 C 
HETATM   31  C1  UNL     1      12.139  11.285  -0.109  1.00  0.00     0.042 C 
HETATM   32  C3  UNL     1      13.085  13.308   1.076  1.00  0.00     0.042 C 
ENDBRANCH  28  29
ENDBRANCH   1  28
TORSDOF 6
ENDMDL
MODEL 3
REMARK VINA RESULT: -10.010140249      1.884      3.046
REMARK  6 active torsions:
REMARK  status: ('A' for Active; 'I' for Inactive)
REMARK    1  A    between atoms: C4_4  and  C5_5 
REMARK    2  A    between atoms: C5_5  and  C6_6 
REMARK    3  A    between atoms: C13_14  and  N1_15 
REMARK       I    between atoms: N1_15  and  C14_17 
REMARK    4  A    between atoms: C14_17  and  C15_19 
REMARK    5  A    between atoms: C15_19  and  N2_20 
REMARK       I    between atoms: N2_20  and  C16_22 
REMARK       I    between atoms: C16_22  and  N3_24 
REMARK    6  A    between atoms: N3_24  and  C17_26 
ROOT
HETATM    1  C6  UNL     1      10.137   9.737   4.124  1.00  0.00    -0.013 C 
HETATM    2  C7  UNL     1       9.801   8.290   3.996  1.00  0.00     0.177 C 
HETATM    3  O1  UNL     1      10.536   7.616   3.034  1.00  0.00    -0.385 OA
HETATM    4  C8  UNL     1      11.889   7.772   3.089  1.00  0.00     0.124 C 
HETATM    5  C9  UNL     1      12.451   8.058   4.449  1.00  0.00     0.037 C 
HETATM    6  C10 UNL     1      12.473   9.513   4.797  1.00  0.00    -0.009 C 
HETATM    7  C11 UNL     1      11.126   9.999   5.254  1.00  0.00     0.016 C 
HETATM    8  C12 UNL     1      12.960  10.400   3.688  1.00  0.00     0.035 C 
HETATM    9  C13 UNL     1      12.033  10.200   2.507  1.00  0.00     0.036 C 
HETATM   10  C22 UNL     1      12.324   8.757   2.055  1.00  0.00     0.062 C 
HETATM   11  C23 UNL     1      10.587  10.355   2.824  1.00  0.00     0.043 C 
ENDROOT
BRANCH   9  12
HETATM   12  N1  UNL     1      12.362  11.053   1.400  1.00  0.00    -0.350 N 
HETATM   13  C14 UNL     1      12.746  12.400   1.491  1.00  0.00     0.236 C 
HETATM   14  O2  UNL     1      12.821  12.938   2.620  1.00  0.00    -0.272 OA
ATOM     15  H1  UNL     1      12.312  10.645   0.467  1.00  0.00     0.163 HD
BRANCH  13  16
HETATM   16  C15 UNL     1      13.077  13.244   0.317  1.00  0.00     0.227 C 
BRANCH  16  17
HETATM   17  N2  UNL     1      14.262  12.804  -0.360  1.00  0.00    -0.334 N 
HETATM   18  C16 UNL     1      14.288  11.636  -1.152  1.00  0.00     0.316 C 
HETATM   19  O3  UNL     1      13.258  10.948  -1.281  1.00  0.00    -0.247 OA
HETATM   20  N3  UNL     1      15.478  11.246  -1.796  1.00  0.00    -0.339 N 
ATOM     21  H3  UNL     1      16.304  11.831  -1.674  1.00  0.00     0.164 HD
ATOM     22  H2  UNL     1      15.116  13.354  -0.266  1.00  0.00     0.164 HD
BRANCH  20  23
HETATM   23  C17 UNL     1      15.595  10.080  -2.610  1.00  0.00     0.086 C 
HETATM   24  C18 UNL     1      14.986  10.222  -3.992  1.00  0.00     0.025 C 
HETATM   25  C19 UNL     1      15.406   8.883  -4.627  1.00  0.00     0.002 C 
HETATM   26  C20 UNL     1      16.692   8.498  -3.926  1.00  0.00     0.002 C 
HETATM   27  C21 UNL     1      16.980   9.634  -2.932  1.00  0.00     0.025 C 
ENDBRANCH  20  23
ENDBRANCH  16  17
ENDBRANCH  13  16
ENDBRANCH   9  12
BRANCH   1  28
HETATM   28  C5  UNL     1       8.868  10.487   4.516  1.00  0.00     0.039 C 
BRANCH  28  29
HETATM   29  C4  UNL     1       7.801  10.305   3.504  1.00  0.00    -0.024 C 
HETATM   30  C2  UNL     1       6.500  10.383   3.753  1.00  0.00    -0.091 C 
HETATM   31  C1  UNL     1       5.928  10.666   5.098  1.00  0.00     0.042 C 
HETATM   32  C3  UNL     1       5.503  10.183   2.653  1.00  0.00     0.042 C 
ENDBRANCH  28  29
ENDBRANCH   1  28
TORSDOF 6
ENDMDL
MODEL 4
REMARK VINA RESULT: -9.955960978      1.862      3.024
REMARK  6 active torsions:
REMARK  status: ('A' for Active; 'I' for Inactive)
REMARK    1  A    between atoms: C4_4  and  C5_5 
REMARK    2  A    between atoms: C5_5  and  C6_6 
REMARK    3  A    between atoms: C13_14  and  N1_15 
REMARK       I    between atoms: N1_15  and  C14_17 
REMARK    4  A    between atoms: C14_17  and  C15_19 
REMARK    5  A    between atoms: C15_19  and  N2_20 
REMARK       I    between atoms: N2_20  and  C16_22 
REMARK       I    between atoms: C16_22  and  N3_24 
REMARK    6  A    between atoms: N3_24  and  C17_26 
ROOT
HETATM    1  C6  UNL     1       9.705   9.412   3.021  1.00  0.00    -0.013 C 
HETATM    2  C7  UNL     1      10.131   8.004   3.267  1.00  0.00     0.177 C 
HETATM    3  O1  UNL     1      11.441   7.733   2.905  1.00  0.00    -0.385 OA
HETATM    4  C8  UNL     1      12.388   8.592   3.378  1.00  0.00     0.124 C 
HETATM    5  C9  UNL     1      12.056   9.268   4.673  1.00  0.00     0.037 C 
HETATM    6  C10 UNL     1      11.281  10.538   4.507  1.00  0.00    -0.009 C 
HETATM    7  C11 UNL     1       9.820  10.273   4.273  1.00  0.00     0.016 C 
HETATM    8  C12 UNL     1      11.795  11.431   3.415  1.00  0.00     0.035 C 
HETATM    9  C13 UNL     1      11.725  10.649   2.119  1.00  0.00     0.036 C 
HETATM   10  C22 UNL     1      12.784   9.547   2.300  1.00  0.00     0.062 C 
HETATM   11  C23 UNL     1      10.396  10.039   1.837  1.00  0.00     0.043 C 
ENDROOT
BRANCH   9  12
HETATM   12  N1  UNL     1      12.131  11.429   0.985  1.00  0.00    -0.350 N 
HETATM   13  C14 UNL     1      12.889  12.608   1.032  1.00  0.00     0.236 C 
HETATM   14  O2  UNL     1      13.264  13.049   2.145  1.00  0.00    -0.272 OA
ATOM     15  H1  UNL     1      11.844  11.097   0.065  1.00  0.00     0.163 HD
BRANCH  13  16
HETATM   16  C15 UNL     1      13.287  13.383  -0.169  1.00  0.00     0.227 C 
BRANCH  16  17
HETATM   17  N2  UNL     1      14.411  12.808  -0.847  1.00  0.00    -0.334 N 
HETATM   18  C16 UNL     1      14.334  11.567  -1.516  1.00  0.00     0.316 C 
HETATM   19  O3  UNL     1      13.263  10.933  -1.531  1.00  0.00    -0.247 OA
HETATM   20  N3  UNL     1      15.469  11.045  -2.167  1.00  0.00    -0.339 N 
ATOM     21  H3  UNL     1      16.331  11.588  -2.140  1.00  0.00     0.164 HD
ATOM     22  H2  UNL     1      15.298  13.312  -0.846  1.00  0.00     0.164 HD
BRANCH  20  23
HETATM   23  C17 UNL     1      15.481   9.799  -2.862  1.00  0.00     0.086 C 
HETATM   24  C18 UNL     1      15.240   9.917  -4.355  1.00  0.00     0.025 C 
HETATM   25  C19 UNL     1      15.460   8.457  -4.795  1.00  0.00     0.002 C 
HETATM   26  C20 UNL     1      16.434   7.882  -3.788  1.00  0.00     0.002 C 
HETATM   27  C21 UNL     1      16.758   9.031  -2.820  1.00  0.00     0.025 C 
ENDBRANCH  20  23
ENDBRANCH  16  17
ENDBRANCH  13  16
ENDBRANCH   9  12
BRANCH   1  28
HETATM   28  C5  UNL     1       8.220   9.404   2.671  1.00  0.00     0.039 C 
BRANCH  28  29
HETATM   29  C4  UNL     1       7.399   9.908   3.797  1.00  0.00    -0.024 C 
HETATM   30  C2  UNL     1       6.116  10.234   3.712  1.00  0.00    -0.091 C 
HETATM   31  C1  UNL     1       5.317  10.138   2.460  1.00  0.00     0.042 C 
HETATM   32  C3  UNL     1       5.378  10.735   4.916  1.00  0.00     0.042 C 
ENDBRANCH  28  29
ENDBRANCH   1  28
TORSDOF 6
ENDMDL
MODEL 5
REMARK VINA RESULT: -9.895791214      1.819      2.915
REMARK  6 active torsions:
REMARK  status: ('A' for Active; 'I' for Inactive)
REMARK    1  A    between atoms: C4_4  and  C5_5 
REMARK    2  A    between atoms: C5_5  and  C6_6 
REMARK    3  A    between atoms: C13_14  and  N1_15 
REMARK       I    between atoms: N1_15  and  C14_17 
REMARK    4  A    between atoms: C14_17  and  C15_19 
REMARK    5  A    between atoms: C15_19  and  N2_20 
REMARK       I    between atoms: N2_20  and  C16_22 
REMARK       I    between atoms: C16_22  and  N3_24 
REMARK    6  A    between atoms: N3_24  and  C17_26 
ROOT
HETATM    1  C6  UNL     1       9.910   9.546   2.715  1.00  0.00    -0.013 C 
HETATM    2  C7  UNL     1       9.753   8.147   3.209  1.00  0.00     0.177 C 
HETATM    3  O1  UNL     1      10.821   7.315   2.914  1.00  0.00    -0.385 OA
HETATM    4  C8  UNL     1      12.058   7.783   3.239  1.00  0.00     0.124 C 
HETATM    5  C9  UNL     1      12.105   8.739   4.392  1.00  0.00     0.037 C 
HETATM    6  C10 UNL     1      11.893  10.167   3.998  1.00  0.00    -0.009 C 
HETATM    7  C11 UNL     1      10.436  10.481   3.798  1.00  0.00     0.016 C 
HETATM    8  C12 UNL     1      12.652  10.583   2.771  1.00  0.00     0.035 C 
HETATM    9  C13 UNL     1      12.196   9.694   1.632  1.00  0.00     0.036 C 
HETATM   10  C22 UNL     1      12.736   8.304   2.015  1.00  0.00     0.062 C 
HETATM   11  C23 UNL     1      10.721   9.636   1.448  1.00  0.00     0.043 C 
ENDROOT
BRANCH   9  12
HETATM   12  N1  UNL     1      12.810  10.045   0.383  1.00  0.00    -0.350 N 
HETATM   13  C14 UNL     1      12.794  11.317  -0.208  1.00  0.00     0.236 C 
HETATM   14  O2  UNL     1      12.203  12.255   0.378  1.00  0.00    -0.272 OA
ATOM     15  H1  UNL     1      13.300   9.305  -0.119  1.00  0.00     0.163 HD
BRANCH  13  16
HETATM   16  C15 UNL     1      13.443  11.635  -1.504  1.00  0.00     0.227 C 
BRANCH  16  17
HETATM   17  N2  UNL     1      14.384  10.631  -1.907  1.00  0.00    -0.334 N 
HETATM   18  C16 UNL     1      15.778  10.842  -1.862  1.00  0.00     0.316 C 
HETATM   19  O3  UNL     1      16.230  11.932  -1.461  1.00  0.00    -0.247 OA
HETATM   20  N3  UNL     1      16.661   9.824  -2.270  1.00  0.00    -0.339 N 
ATOM     21  H3  UNL     1      16.261   8.942  -2.590  1.00  0.00     0.164 HD
ATOM     22  H2  UNL     1      14.033   9.732  -2.239  1.00  0.00     0.164 HD
BRANCH  20  23
HETATM   23  C17 UNL     1      18.082   9.954  -2.261  1.00  0.00     0.086 C 
HETATM   24  C18 UNL     1      18.758   9.311  -1.064  1.00  0.00     0.025 C 
HETATM   25  C19 UNL     1      20.240   9.503  -1.438  1.00  0.00     0.002 C 
HETATM   26  C20 UNL     1      20.268   9.525  -2.951  1.00  0.00     0.002 C 
HETATM   27  C21 UNL     1      18.811   9.323  -3.397  1.00  0.00     0.025 C 
ENDBRANCH  20  23
ENDBRANCH  16  17
ENDBRANCH  13  16
ENDBRANCH   9  12
BRANCH   1  28
HETATM   28  C5  UNL     1       8.528  10.081   2.357  1.00  0.00     0.039 C 
BRANCH  28  29
HETATM   29  C4  UNL     1       7.721  10.345   3.570  1.00  0.00    -0.024 C 
HETATM   30  C2  UNL     1       6.395  10.336   3.616  1.00  0.00    -0.091 C 
HETATM   31  C1  UNL     1       5.526  10.059   2.438  1.00  0.00     0.042 C 
HETATM   32  C3  UNL     1       5.676  10.616   4.900  1.00  0.00     0.042 C 
ENDBRANCH  28  29
ENDBRANCH   1  28
TORSDOF 6
ENDMDL
