MODEL 1
REMARK VINA RESULT: -8.586586711      0.000      0.000
REMARK  9 active torsions:
REMARK  status: ('A' for Active; 'I' for Inactive)
REMARK       I    between atoms: N1_2  and  C2_4 
REMARK       I    between atoms: C2_4  and  N2_6 
REMARK    1  A    between atoms: N2_6  and  C3_8 
REMARK    2  A    between atoms: C3_8  and  C4_9 
REMARK    3  A    between atoms: C4_9  and  C5_10 
REMARK    4  A    between atoms: C9_14  and  C10_15 
REMARK    5  A    between atoms: C10_15  and  C11_16 
REMARK    6  A    between atoms: C10_15  and  C17_27 
REMARK    7  A    between atoms: C11_16  and  O2_17 
REMARK    8  A    between atoms: C11_16  and  N3_19 
REMARK       I    between atoms: N3_19  and  C12_21 
REMARK    9  A    between atoms: C12_21  and  C13_23 
ROOT
HETATM    1  C5  UNL     1       8.538   9.402   3.136  1.00  0.00    -0.043 C 
HETATM    2  C6  UNL     1       8.337   8.166   3.935  1.00  0.00     0.015 C 
HETATM    3  C7  UNL     1       9.179  10.450   3.982  1.00  0.00     0.010 C 
HETATM    4  C8  UNL     1      10.693  10.446   4.024  1.00  0.00     0.010 C 
HETATM    5  C9  UNL     1      11.192  10.355   2.655  1.00  0.00     0.019 C 
HETATM    6  C21 UNL     1      10.767   8.942   2.189  1.00  0.00     0.010 C 
HETATM    7  C22 UNL     1       9.304   9.019   1.888  1.00  0.00     0.010 C 
ENDROOT
BRANCH   5   8
HETATM    8  C10 UNL     1      12.585  10.564   2.262  1.00  0.00    -0.017 C 
BRANCH   8   9
HETATM    9  C11 UNL     1      13.682  10.209   3.154  1.00  0.00     0.146 C 
BRANCH   9  10
HETATM   10  O2  UNL     1      13.843  11.058   4.195  1.00  0.00    -0.346 OA
ATOM     11  H2  UNL     1      14.013  11.957   3.938  1.00  0.00     0.219 HD
ENDBRANCH   9  10
BRANCH   9  12
HETATM   12  N3  UNL     1      14.637   9.226   3.244  1.00  0.00    -0.307 N 
HETATM   13  C12 UNL     1      15.446   8.637   4.207  1.00  0.00     0.231 C 
HETATM   14  O3  UNL     1      15.404   9.004   5.392  1.00  0.00    -0.272 OA
ATOM     15  H3  UNL     1      14.802   8.802   2.331  1.00  0.00     0.171 HD
BRANCH  13  16
HETATM   16  C13 UNL     1      16.418   7.538   3.929  1.00  0.00     0.030 C 
HETATM   17  C14 UNL     1      15.667   6.236   3.851  1.00  0.00     0.025 C 
HETATM   18  C15 UNL     1      17.136   7.746   2.625  1.00  0.00     0.025 C 
HETATM   19  C16 UNL     1      17.446   7.391   5.019  1.00  0.00     0.025 C 
ENDBRANCH  13  16
ENDBRANCH   9  12
ENDBRANCH   8   9
BRANCH   8  20
HETATM   20  C17 UNL     1      12.895  11.640   1.259  1.00  0.00    -0.023 C 
HETATM   21  C18 UNL     1      13.019  13.032   1.698  1.00  0.00     0.019 C 
HETATM   22  C19 UNL     1      11.949  11.603   0.071  1.00  0.00     0.019 C 
HETATM   23  C20 UNL     1      14.266  11.245   0.666  1.00  0.00     0.019 C 
ENDBRANCH   8  20
ENDBRANCH   5   8
BRANCH   1  24
HETATM   24  C4  UNL     1       7.257   9.987   2.602  1.00  0.00     0.029 C 
BRANCH  24  25
HETATM   25  C3  UNL     1       7.232  10.532   1.245  1.00  0.00     0.125 C 
BRANCH  25  26
HETATM   26  N2  UNL     1       6.199   9.986   0.420  1.00  0.00    -0.343 N 
HETATM   27  C2  UNL     1       6.386   9.580  -0.953  1.00  0.00     0.315 C 
HETATM   28  N1  UNL     1       5.323   9.038  -1.715  1.00  0.00    -0.347 N 
HETATM   29  O1  UNL     1       7.494   9.687  -1.539  1.00  0.00    -0.247 OA
HETATM   30  C1  UNL     1       5.465   8.623  -3.079  1.00  0.00     0.151 C 
ATOM     31  H1  UNL     1       4.410   8.938  -1.269  1.00  0.00     0.163 HD
ATOM     32  H2  UNL     1       5.271   9.875   0.828  1.00  0.00     0.164 HD
ENDBRANCH  25  26
ENDBRANCH  24  25
ENDBRANCH   1  24
TORSDOF 9
ENDMDL
MODEL 2
REMARK VINA RESULT: -8.504403788      3.703      6.263
REMARK  9 active torsions:
REMARK  status: ('A' for Active; 'I' for Inactive)
REMARK       I    between atoms: N1_2  and  C2_4 
REMARK       I    between atoms: C2_4  and  N2_6 
REMARK    1  A    between atoms: N2_6  and  C3_8 
REMARK    2  A    between atoms: C3_8  and  C4_9 
REMARK    3  A    between atoms: C4_9  and  C5_10 
REMARK    4  A    between atoms: C9_14  and  C10_15 
REMARK    5  A    between atoms: C10_15  and  C11_16 
REMARK    6  A    between atoms: C10_15  and  C17_27 
REMARK    7  A    between atoms: C11_16  and  O2_17 
REMARK    8  A    between atoms: C11_16  and  N3_19 
REMARK       I    between atoms: N3_19  and  C12_21 
REMARK    9  A    between atoms: C12_21  and  C13_23 
ROOT
HETATM    1  C5  UNL     1      14.158   8.061   4.080  1.00  0.00    -0.043 C 
HETATM    2  C6  UNL     1      15.063   6.885   4.151  1.00  0.00     0.015 C 
HETATM    3  C7  UNL     1      14.965   9.313   4.011  1.00  0.00     0.010 C 
HETATM    4  C8  UNL     1      15.376   9.773   2.628  1.00  0.00     0.010 C 
HETATM    5  C9  UNL     1      14.203   9.736   1.761  1.00  0.00     0.019 C 
HETATM    6  C21 UNL     1      13.869   8.229   1.637  1.00  0.00     0.010 C 
HETATM    7  C22 UNL     1      13.210   7.836   2.921  1.00  0.00     0.010 C 
ENDROOT
BRANCH   5   8
HETATM    8  C10 UNL     1      14.136  10.328   0.426  1.00  0.00    -0.017 C 
BRANCH   8   9
HETATM    9  C11 UNL     1      15.298  10.340  -0.454  1.00  0.00     0.146 C 
BRANCH   9  10
HETATM   10  O2  UNL     1      16.236  11.254  -0.115  1.00  0.00    -0.346 OA
ATOM     11  H2  UNL     1      16.288  11.993  -0.710  1.00  0.00     0.219 HD
ENDBRANCH   9  10
BRANCH   9  12
HETATM   12  N3  UNL     1      15.732   9.667  -1.570  1.00  0.00    -0.307 N 
HETATM   13  C12 UNL     1      15.508   9.660  -2.940  1.00  0.00     0.231 C 
HETATM   14  O3  UNL     1      14.699  10.444  -3.464  1.00  0.00    -0.272 OA
ATOM     15  H3  UNL     1      16.424   8.962  -1.317  1.00  0.00     0.171 HD
BRANCH  13  16
HETATM   16  C13 UNL     1      16.192   8.741  -3.898  1.00  0.00     0.030 C 
HETATM   17  C14 UNL     1      17.681   8.869  -3.712  1.00  0.00     0.025 C 
HETATM   18  C15 UNL     1      15.810   7.307  -3.664  1.00  0.00     0.025 C 
HETATM   19  C16 UNL     1      15.896   9.083  -5.334  1.00  0.00     0.025 C 
ENDBRANCH  13  16
ENDBRANCH   9  12
ENDBRANCH   8   9
BRANCH   8  20
HETATM   20  C17 UNL     1      13.125  11.412   0.169  1.00  0.00    -0.023 C 
HETATM   21  C18 UNL     1      13.337  12.360  -0.927  1.00  0.00     0.019 C 
HETATM   22  C19 UNL     1      12.808  12.205   1.425  1.00  0.00     0.019 C 
HETATM   23  C20 UNL     1      11.813  10.661  -0.149  1.00  0.00     0.019 C 
ENDBRANCH   8  20
ENDBRANCH   5   8
BRANCH   1  24
HETATM   24  C4  UNL     1      13.244   8.188   5.269  1.00  0.00     0.029 C 
BRANCH  24  25
HETATM   25  C3  UNL     1      12.964   9.515   5.816  1.00  0.00     0.125 C 
BRANCH  25  26
HETATM   26  N2  UNL     1      11.601   9.705   6.206  1.00  0.00    -0.343 N 
HETATM   27  C2  UNL     1      10.556  10.155   5.315  1.00  0.00     0.315 C 
HETATM   28  N1  UNL     1       9.223  10.316   5.762  1.00  0.00    -0.347 N 
HETATM   29  O1  UNL     1      10.777  10.424   4.106  1.00  0.00    -0.247 OA
HETATM   30  C1  UNL     1       8.157  10.759   4.912  1.00  0.00     0.151 C 
ATOM     31  H1  UNL     1       9.010  10.106   6.737  1.00  0.00     0.163 HD
ATOM     32  H2  UNL     1      11.350   9.512   7.175  1.00  0.00     0.164 HD
ENDBRANCH  25  26
ENDBRANCH  24  25
ENDBRANCH   1  24
TORSDOF 9
ENDMDL
MODEL 3
REMARK VINA RESULT: -8.334408656      3.614      6.167
REMARK  9 active torsions:
REMARK  status: ('A' for Active; 'I' for Inactive)
REMARK       I    between atoms: N1_2  and  C2_4 
REMARK       I    between atoms: C2_4  and  N2_6 
REMARK    1  A    between atoms: N2_6  and  C3_8 
REMARK    2  A    between atoms: C3_8  and  C4_9 
REMARK    3  A    between atoms: C4_9  and  C5_10 
REMARK    4  A    between atoms: C9_14  and  C10_15 
REMARK    5  A    between atoms: C10_15  and  C11_16 
REMARK    6  A    between atoms: C10_15  and  C17_27 
REMARK    7  A    between atoms: C11_16  and  O2_17 
REMARK    8  A    between atoms: C11_16  and  N3_19 
REMARK       I    between atoms: N3_19  and  C12_21 
REMARK    9  A    between atoms: C12_21  and  C13_23 
ROOT
HETATM    1  C5  UNL     1      14.854   7.547   3.804  1.00  0.00    -0.043 C 
HETATM    2  C6  UNL     1      16.224   7.007   4.003  1.00  0.00     0.015 C 
HETATM    3  C7  UNL     1      14.858   9.023   4.020  1.00  0.00     0.010 C 
HETATM    4  C8  UNL     1      15.175   9.878   2.812  1.00  0.00     0.010 C 
HETATM    5  C9  UNL     1      14.365   9.412   1.691  1.00  0.00     0.019 C 
HETATM    6  C21 UNL     1      14.920   8.000   1.382  1.00  0.00     0.010 C 
HETATM    7  C22 UNL     1      14.378   7.093   2.441  1.00  0.00     0.010 C 
ENDROOT
BRANCH   5   8
HETATM    8  C10 UNL     1      14.208  10.126   0.425  1.00  0.00    -0.017 C 
BRANCH   8   9
HETATM    9  C11 UNL     1      15.316  10.252  -0.513  1.00  0.00     0.146 C 
BRANCH   9  10
HETATM   10  O2  UNL     1      16.196  11.230  -0.198  1.00  0.00    -0.346 OA
ATOM     11  H2  UNL     1      16.934  11.293  -0.794  1.00  0.00     0.219 HD
ENDBRANCH   9  10
BRANCH   9  12
HETATM   12  N3  UNL     1      15.740   9.643  -1.670  1.00  0.00    -0.307 N 
HETATM   13  C12 UNL     1      15.490   9.699  -3.034  1.00  0.00     0.231 C 
HETATM   14  O3  UNL     1      14.657  10.492  -3.503  1.00  0.00    -0.272 OA
ATOM     15  H3  UNL     1      16.450   8.940  -1.464  1.00  0.00     0.171 HD
BRANCH  13  16
HETATM   16  C13 UNL     1      16.172   8.841  -4.048  1.00  0.00     0.030 C 
HETATM   17  C14 UNL     1      17.660   8.933  -3.838  1.00  0.00     0.025 C 
HETATM   18  C15 UNL     1      15.767   7.400  -3.922  1.00  0.00     0.025 C 
HETATM   19  C16 UNL     1      15.897   9.290  -5.459  1.00  0.00     0.025 C 
ENDBRANCH  13  16
ENDBRANCH   9  12
ENDBRANCH   8   9
BRANCH   8  20
HETATM   20  C17 UNL     1      13.161  11.202   0.331  1.00  0.00    -0.023 C 
HETATM   21  C18 UNL     1      13.199  12.160  -0.776  1.00  0.00     0.019 C 
HETATM   22  C19 UNL     1      13.030  11.985   1.627  1.00  0.00     0.019 C 
HETATM   23  C20 UNL     1      11.822  10.442   0.207  1.00  0.00     0.019 C 
ENDBRANCH   8  20
ENDBRANCH   5   8
BRANCH   1  24
HETATM   24  C4  UNL     1      13.836   6.963   4.748  1.00  0.00     0.029 C 
BRANCH  24  25
HETATM   25  C3  UNL     1      12.672   7.764   5.127  1.00  0.00     0.125 C 
BRANCH  25  26
HETATM   26  N2  UNL     1      11.496   7.472   4.366  1.00  0.00    -0.343 N 
HETATM   27  C2  UNL     1      10.767   8.449   3.591  1.00  0.00     0.315 C 
HETATM   28  N1  UNL     1       9.613   8.094   2.853  1.00  0.00    -0.347 N 
HETATM   29  O1  UNL     1      11.118   9.655   3.533  1.00  0.00    -0.247 OA
HETATM   30  C1  UNL     1       8.861   9.031   2.071  1.00  0.00     0.151 C 
ATOM     31  H1  UNL     1       9.301   7.123   2.878  1.00  0.00     0.163 HD
ATOM     32  H2  UNL     1      11.150   6.513   4.372  1.00  0.00     0.164 HD
ENDBRANCH  25  26
ENDBRANCH  24  25
ENDBRANCH   1  24
TORSDOF 9
ENDMDL
MODEL 4
REMARK VINA RESULT: -8.304601479      3.411      5.429
REMARK  9 active torsions:
REMARK  status: ('A' for Active; 'I' for Inactive)
REMARK       I    between atoms: N1_2  and  C2_4 
REMARK       I    between atoms: C2_4  and  N2_6 
REMARK    1  A    between atoms: N2_6  and  C3_8 
REMARK    2  A    between atoms: C3_8  and  C4_9 
REMARK    3  A    between atoms: C4_9  and  C5_10 
REMARK    4  A    between atoms: C9_14  and  C10_15 
REMARK    5  A    between atoms: C10_15  and  C11_16 
REMARK    6  A    between atoms: C10_15  and  C17_27 
REMARK    7  A    between atoms: C11_16  and  O2_17 
REMARK    8  A    between atoms: C11_16  and  N3_19 
REMARK       I    between atoms: N3_19  and  C12_21 
REMARK    9  A    between atoms: C12_21  and  C13_23 
ROOT
HETATM    1  C5  UNL     1      10.985   9.890   3.097  1.00  0.00    -0.043 C 
HETATM    2  C6  UNL     1       9.947   9.762   2.043  1.00  0.00     0.015 C 
HETATM    3  C7  UNL     1      11.328   8.541   3.633  1.00  0.00     0.010 C 
HETATM    4  C8  UNL     1      12.419   7.786   2.904  1.00  0.00     0.010 C 
HETATM    5  C9  UNL     1      13.551   8.687   2.705  1.00  0.00     0.019 C 
HETATM    6  C21 UNL     1      13.020   9.750   1.714  1.00  0.00     0.010 C 
HETATM    7  C22 UNL     1      12.142  10.666   2.506  1.00  0.00     0.010 C 
ENDROOT
BRANCH   5   8
HETATM    8  C10 UNL     1      14.878   8.269   2.257  1.00  0.00    -0.017 C 
BRANCH   8   9
HETATM    9  C11 UNL     1      15.100   7.790   0.899  1.00  0.00     0.146 C 
BRANCH   9  10
HETATM   10  O2  UNL     1      14.825   6.478   0.725  1.00  0.00    -0.346 OA
ATOM     11  H2  UNL     1      15.205   6.103  -0.061  1.00  0.00     0.219 HD
ENDBRANCH   9  10
BRANCH   9  12
HETATM   12  N3  UNL     1      15.527   8.307  -0.301  1.00  0.00    -0.307 N 
HETATM   13  C12 UNL     1      16.708   8.724  -0.900  1.00  0.00     0.231 C 
HETATM   14  O3  UNL     1      17.789   8.674  -0.292  1.00  0.00    -0.272 OA
ATOM     15  H3  UNL     1      14.742   8.416  -0.943  1.00  0.00     0.171 HD
BRANCH  13  16
HETATM   16  C13 UNL     1      16.800   9.258  -2.291  1.00  0.00     0.030 C 
HETATM   17  C14 UNL     1      15.822  10.393  -2.440  1.00  0.00     0.025 C 
HETATM   18  C15 UNL     1      18.175   9.779  -2.598  1.00  0.00     0.025 C 
HETATM   19  C16 UNL     1      16.441   8.227  -3.328  1.00  0.00     0.025 C 
ENDBRANCH  13  16
ENDBRANCH   9  12
ENDBRANCH   8   9
BRANCH   8  20
HETATM   20  C17 UNL     1      15.860   7.770   3.283  1.00  0.00    -0.023 C 
HETATM   21  C18 UNL     1      17.287   7.720   2.960  1.00  0.00     0.019 C 
HETATM   22  C19 UNL     1      15.456   6.419   3.849  1.00  0.00     0.019 C 
HETATM   23  C20 UNL     1      15.714   8.742   4.474  1.00  0.00     0.019 C 
ENDBRANCH   8  20
ENDBRANCH   5   8
BRANCH   1  24
HETATM   24  C4  UNL     1      10.552  10.734   4.267  1.00  0.00     0.029 C 
BRANCH  24  25
HETATM   25  C3  UNL     1       9.842  10.102   5.379  1.00  0.00     0.125 C 
BRANCH  25  26
HETATM   26  N2  UNL     1       8.586  10.714   5.687  1.00  0.00    -0.343 N 
HETATM   27  C2  UNL     1       7.315  10.260   5.176  1.00  0.00     0.315 C 
HETATM   28  N1  UNL     1       6.105  10.905   5.527  1.00  0.00    -0.347 N 
HETATM   29  O1  UNL     1       7.218   9.275   4.399  1.00  0.00    -0.247 OA
HETATM   30  C1  UNL     1       4.822  10.487   5.042  1.00  0.00     0.151 C 
ATOM     31  H1  UNL     1       6.148  11.707   6.156  1.00  0.00     0.163 HD
ATOM     32  H2  UNL     1       8.589  11.523   6.308  1.00  0.00     0.164 HD
ENDBRANCH  25  26
ENDBRANCH  24  25
ENDBRANCH   1  24
TORSDOF 9
ENDMDL
MODEL 5
REMARK VINA RESULT: -8.265869911      3.208      7.156
REMARK  9 active torsions:
REMARK  status: ('A' for Active; 'I' for Inactive)
REMARK       I    between atoms: N1_2  and  C2_4 
REMARK       I    between atoms: C2_4  and  N2_6 
REMARK    1  A    between atoms: N2_6  and  C3_8 
REMARK    2  A    between atoms: C3_8  and  C4_9 
REMARK    3  A    between atoms: C4_9  and  C5_10 
REMARK    4  A    between atoms: C9_14  and  C10_15 
REMARK    5  A    between atoms: C10_15  and  C11_16 
REMARK    6  A    between atoms: C10_15  and  C17_27 
REMARK    7  A    between atoms: C11_16  and  O2_17 
REMARK    8  A    between atoms: C11_16  and  N3_19 
REMARK       I    between atoms: N3_19  and  C12_21 
REMARK    9  A    between atoms: C12_21  and  C13_23 
ROOT
HETATM    1  C5  UNL     1      16.019   7.931   2.191  1.00  0.00    -0.043 C 
HETATM    2  C6  UNL     1      16.367   7.472   3.560  1.00  0.00     0.015 C 
HETATM    3  C7  UNL     1      14.685   7.390   1.802  1.00  0.00     0.010 C 
HETATM    4  C8  UNL     1      13.482   8.223   2.192  1.00  0.00     0.010 C 
HETATM    5  C9  UNL     1      13.733   9.607   1.803  1.00  0.00     0.019 C 
HETATM    6  C21 UNL     1      14.892  10.057   2.726  1.00  0.00     0.010 C 
HETATM    7  C22 UNL     1      16.136   9.440   2.172  1.00  0.00     0.010 C 
ENDROOT
BRANCH   5   8
HETATM    8  C10 UNL     1      12.723  10.665   1.793  1.00  0.00    -0.017 C 
BRANCH   8   9
HETATM    9  C11 UNL     1      11.654  10.697   2.782  1.00  0.00     0.146 C 
BRANCH   9  10
HETATM   10  O2  UNL     1      11.816  11.639   3.739  1.00  0.00    -0.346 OA
ATOM     11  H2  UNL     1      12.182  11.308   4.551  1.00  0.00     0.219 HD
ENDBRANCH   9  10
BRANCH   9  12
HETATM   12  N3  UNL     1      10.486  10.019   3.035  1.00  0.00    -0.307 N 
HETATM   13  C12 UNL     1       9.424  10.060   3.928  1.00  0.00     0.231 C 
HETATM   14  O3  UNL     1       9.374  10.915   4.828  1.00  0.00    -0.272 OA
ATOM     15  H3  UNL     1      10.363   9.257   2.367  1.00  0.00     0.171 HD
BRANCH  13  16
HETATM   16  C13 UNL     1       8.269   9.114   3.904  1.00  0.00     0.030 C 
HETATM   17  C14 UNL     1       7.569   9.238   2.577  1.00  0.00     0.025 C 
HETATM   18  C15 UNL     1       8.714   7.688   4.070  1.00  0.00     0.025 C 
HETATM   19  C16 UNL     1       7.252   9.421   4.970  1.00  0.00     0.025 C 
ENDBRANCH  13  16
ENDBRANCH   9  12
ENDBRANCH   8   9
BRANCH   8  20
HETATM   20  C17 UNL     1      12.414  11.351   0.490  1.00  0.00    -0.023 C 
HETATM   21  C18 UNL     1      12.434  12.813   0.416  1.00  0.00     0.019 C 
HETATM   22  C19 UNL     1      11.108  10.865  -0.115  1.00  0.00     0.019 C 
HETATM   23  C20 UNL     1      13.498  10.848  -0.488  1.00  0.00     0.019 C 
ENDBRANCH   8  20
ENDBRANCH   5   8
BRANCH   1  24
HETATM   24  C4  UNL     1      17.001   7.485   1.140  1.00  0.00     0.029 C 
BRANCH  24  25
HETATM   25  C3  UNL     1      17.164   8.288  -0.072  1.00  0.00     0.125 C 
BRANCH  25  26
HETATM   26  N2  UNL     1      16.282   7.919  -1.135  1.00  0.00    -0.343 N 
HETATM   27  C2  UNL     1      16.437   8.347  -2.505  1.00  0.00     0.315 C 
HETATM   28  N1  UNL     1      15.533   7.939  -3.514  1.00  0.00    -0.347 N 
HETATM   29  O1  UNL     1      17.378   9.098  -2.870  1.00  0.00    -0.247 OA
HETATM   30  C1  UNL     1      15.651   8.340  -4.885  1.00  0.00     0.151 C 
ATOM     31  H1  UNL     1      14.757   7.329  -3.252  1.00  0.00     0.163 HD
ATOM     32  H2  UNL     1      15.491   7.315  -0.911  1.00  0.00     0.164 HD
ENDBRANCH  25  26
ENDBRANCH  24  25
ENDBRANCH   1  24
TORSDOF 9
ENDMDL
