MODEL 1
REMARK VINA RESULT: -5.882133094      0.000      0.000
REMARK  2 active torsions:
REMARK  status: ('A' for Active; 'I' for Inactive)
REMARK    1  A    between atoms: N1_1  and  C1_4 
REMARK    2  A    between atoms: C3_8  and  N3_9 
ROOT
HETATM    1  C1  UNL     1     -38.204  20.404  12.014  1.00  0.00     0.678 A 
HETATM    2  N2  UNL     1     -37.883  21.609  11.520  1.00  0.00    -0.200 N 
ATOM      3  H2  UNL     1     -36.981  22.032  11.742  1.00  0.00     0.183 HD
HETATM    4  C2  UNL     1     -38.752  22.253  10.738  1.00  0.00     0.143 A 
HETATM    5  C3  UNL     1     -39.996  21.722  10.406  1.00  0.00     0.138 A 
HETATM    6  C6  UNL     1     -40.280  20.479  10.939  1.00  0.00     0.289 A 
HETATM    7  O1  UNL     1     -41.412  19.978  10.646  1.00  0.00    -0.265 OA
HETATM    8  N6  UNL     1     -39.403  19.835  11.725  1.00  0.00    -0.154 N 
ATOM      9  H6  UNL     1     -39.637  18.918  12.106  1.00  0.00     0.187 HD
ENDROOT
BRANCH   5  10
HETATM   10  N3  UNL     1     -40.900  22.429   9.572  1.00  0.00    -0.243 N 
HETATM   11  C4  UNL     1     -41.961  23.174   9.867  1.00  0.00     0.133 A 
HETATM   12  C5  UNL     1     -42.534  23.661   8.710  1.00  0.00     0.123 A 
HETATM   13  N4  UNL     1     -41.764  23.171   7.713  1.00  0.00    -0.294 N 
HETATM   14  N5  UNL     1     -40.799  22.441   8.241  1.00  0.00    -0.016 NA
ATOM     15  H4  UNL     1     -41.906  23.338   6.717  1.00  0.00     0.183 HD
ENDBRANCH   5  10
BRANCH   1  16
HETATM   16  N1  UNL     1     -37.387  19.731  12.786  1.00  0.00    -0.234 N 
ATOM     17  H12 UNL     1     -37.006  20.213  13.599  1.00  0.00     0.174 HD
ATOM     18  H11 UNL     1     -37.135  18.762  12.590  1.00  0.00     0.174 HD
ENDBRANCH   1  16
TORSDOF 2
ENDMDL
MODEL 2
REMARK VINA RESULT: -5.595593355      2.878      3.992
REMARK  2 active torsions:
REMARK  status: ('A' for Active; 'I' for Inactive)
REMARK    1  A    between atoms: N1_1  and  C1_4 
REMARK    2  A    between atoms: C3_8  and  N3_9 
ROOT
HETATM    1  C1  UNL     1     -38.015  20.645  16.119  1.00  0.00     0.678 A 
HETATM    2  N2  UNL     1     -39.190  21.284  16.026  1.00  0.00    -0.200 N 
ATOM      3  H2  UNL     1     -39.613  21.704  16.854  1.00  0.00     0.183 HD
HETATM    4  C2  UNL     1     -39.803  21.366  14.844  1.00  0.00     0.143 A 
HETATM    5  C3  UNL     1     -39.270  20.810  13.684  1.00  0.00     0.138 A 
HETATM    6  C6  UNL     1     -38.058  20.162  13.831  1.00  0.00     0.289 A 
HETATM    7  O1  UNL     1     -37.556  19.648  12.782  1.00  0.00    -0.265 OA
HETATM    8  N6  UNL     1     -37.445  20.081  15.023  1.00  0.00    -0.154 N 
ATOM      9  H6  UNL     1     -36.551  19.597  15.105  1.00  0.00     0.187 HD
ENDROOT
BRANCH   5  10
HETATM   10  N3  UNL     1     -39.943  20.913  12.440  1.00  0.00    -0.243 N 
HETATM   11  C4  UNL     1     -39.926  21.866  11.513  1.00  0.00     0.133 A 
HETATM   12  C5  UNL     1     -40.752  21.520  10.463  1.00  0.00     0.123 A 
HETATM   13  N4  UNL     1     -41.262  20.317  10.809  1.00  0.00    -0.294 N 
HETATM   14  N5  UNL     1     -40.772  19.970  11.986  1.00  0.00    -0.016 NA
ATOM     15  H4  UNL     1     -41.916  19.767  10.253  1.00  0.00     0.183 HD
ENDBRANCH   5  10
BRANCH   1  16
HETATM   16  N1  UNL     1     -37.372  20.536  17.256  1.00  0.00    -0.234 N 
ATOM     17  H12 UNL     1     -37.459  19.654  17.761  1.00  0.00     0.174 HD
ATOM     18  H11 UNL     1     -36.805  21.296  17.630  1.00  0.00     0.174 HD
ENDBRANCH   1  16
TORSDOF 2
ENDMDL
MODEL 3
REMARK VINA RESULT: -5.413879856      2.272      2.564
REMARK  2 active torsions:
REMARK  status: ('A' for Active; 'I' for Inactive)
REMARK    1  A    between atoms: N1_1  and  C1_4 
REMARK    2  A    between atoms: C3_8  and  N3_9 
ROOT
HETATM    1  C1  UNL     1     -38.120  20.599  13.708  1.00  0.00     0.678 A 
HETATM    2  N2  UNL     1     -38.748  21.764  13.921  1.00  0.00    -0.200 N 
ATOM      3  H2  UNL     1     -39.003  22.044  14.868  1.00  0.00     0.183 HD
HETATM    4  C2  UNL     1     -39.038  22.554  12.886  1.00  0.00     0.143 A 
HETATM    5  C3  UNL     1     -38.714  22.219  11.574  1.00  0.00     0.138 A 
HETATM    6  C6  UNL     1     -38.068  21.009  11.406  1.00  0.00     0.289 A 
HETATM    7  O1  UNL     1     -37.763  20.686  10.214  1.00  0.00    -0.265 OA
HETATM    8  N6  UNL     1     -37.778  20.217  12.450  1.00  0.00    -0.154 N 
ATOM      9  H6  UNL     1     -37.300  19.329  12.299  1.00  0.00     0.187 HD
ENDROOT
BRANCH   5  10
HETATM   10  N3  UNL     1     -39.035  23.079  10.492  1.00  0.00    -0.243 N 
HETATM   11  C4  UNL     1     -40.053  23.066   9.638  1.00  0.00     0.133 A 
HETATM   12  C5  UNL     1     -39.938  24.114   8.748  1.00  0.00     0.123 A 
HETATM   13  N4  UNL     1     -38.803  24.751   9.112  1.00  0.00    -0.294 N 
HETATM   14  N5  UNL     1     -38.278  24.123  10.149  1.00  0.00    -0.016 NA
ATOM     15  H4  UNL     1     -38.416  25.579   8.660  1.00  0.00     0.183 HD
ENDBRANCH   5  10
BRANCH   1  16
HETATM   16  N1  UNL     1     -37.812  19.787  14.689  1.00  0.00    -0.234 N 
ATOM     17  H12 UNL     1     -37.245  18.970  14.461  1.00  0.00     0.174 HD
ATOM     18  H11 UNL     1     -38.121  19.954  15.646  1.00  0.00     0.174 HD
ENDBRANCH   1  16
TORSDOF 2
ENDMDL
MODEL 4
REMARK VINA RESULT: -5.369501716      1.816      4.889
REMARK  2 active torsions:
REMARK  status: ('A' for Active; 'I' for Inactive)
REMARK    1  A    between atoms: N1_1  and  C1_4 
REMARK    2  A    between atoms: C3_8  and  N3_9 
ROOT
HETATM    1  C1  UNL     1     -39.761  21.984   9.440  1.00  0.00     0.678 A 
HETATM    2  N2  UNL     1     -38.715  22.594  10.016  1.00  0.00    -0.200 N 
ATOM      3  H2  UNL     1     -38.181  23.294   9.502  1.00  0.00     0.183 HD
HETATM    4  C2  UNL     1     -38.376  22.276  11.268  1.00  0.00     0.143 A 
HETATM    5  C3  UNL     1     -39.069  21.327  12.013  1.00  0.00     0.138 A 
HETATM    6  C6  UNL     1     -40.138  20.726  11.376  1.00  0.00     0.289 A 
HETATM    7  O1  UNL     1     -40.784  19.857  12.042  1.00  0.00    -0.265 OA
HETATM    8  N6  UNL     1     -40.476  21.048  10.117  1.00  0.00    -0.154 N 
ATOM      9  H6  UNL     1     -41.269  20.590   9.669  1.00  0.00     0.187 HD
ENDROOT
BRANCH   5  10
HETATM   10  N3  UNL     1     -38.687  21.010  13.342  1.00  0.00    -0.243 N 
HETATM   11  C4  UNL     1     -38.973  21.600  14.498  1.00  0.00     0.133 A 
HETATM   12  C5  UNL     1     -38.367  20.924  15.537  1.00  0.00     0.123 A 
HETATM   13  N4  UNL     1     -37.706  19.905  14.945  1.00  0.00    -0.294 N 
HETATM   14  N5  UNL     1     -37.905  19.970  13.641  1.00  0.00    -0.016 NA
ATOM     15  H4  UNL     1     -37.146  19.202  15.426  1.00  0.00     0.183 HD
ENDBRANCH   5  10
BRANCH   1  16
HETATM   16  N1  UNL     1     -40.135  22.258   8.215  1.00  0.00    -0.234 N 
ATOM     17  H12 UNL     1     -39.980  21.542   7.505  1.00  0.00     0.174 HD
ATOM     18  H11 UNL     1     -40.565  23.149   7.968  1.00  0.00     0.174 HD
ENDBRANCH   1  16
TORSDOF 2
ENDMDL
MODEL 5
REMARK VINA RESULT: -5.350971229      2.889      4.110
REMARK  2 active torsions:
REMARK  status: ('A' for Active; 'I' for Inactive)
REMARK    1  A    between atoms: N1_1  and  C1_4 
REMARK    2  A    between atoms: C3_8  and  N3_9 
ROOT
HETATM    1  C1  UNL     1     -38.152  21.313  10.862  1.00  0.00     0.678 A 
HETATM    2  N2  UNL     1     -37.988  21.976  12.017  1.00  0.00    -0.200 N 
ATOM      3  H2  UNL     1     -37.133  22.506  12.187  1.00  0.00     0.183 HD
HETATM    4  C2  UNL     1     -38.950  21.937  12.941  1.00  0.00     0.143 A 
HETATM    5  C3  UNL     1     -40.134  21.228  12.759  1.00  0.00     0.138 A 
HETATM    6  C6  UNL     1     -40.256  20.562  11.555  1.00  0.00     0.289 A 
HETATM    7  O1  UNL     1     -41.332  19.909  11.370  1.00  0.00    -0.265 OA
HETATM    8  N6  UNL     1     -39.286  20.604  10.627  1.00  0.00    -0.154 N 
ATOM      9  H6  UNL     1     -39.401  20.103   9.746  1.00  0.00     0.187 HD
ENDROOT
BRANCH   5  10
HETATM   10  N3  UNL     1     -41.140  21.204  13.759  1.00  0.00    -0.243 N 
HETATM   11  C4  UNL     1     -41.356  20.357  14.761  1.00  0.00     0.133 A 
HETATM   12  C5  UNL     1     -42.469  20.746  15.477  1.00  0.00     0.123 A 
HETATM   13  N4  UNL     1     -42.906  21.863  14.855  1.00  0.00    -0.294 N 
HETATM   14  N5  UNL     1     -42.107  22.121  13.835  1.00  0.00    -0.016 NA
ATOM     15  H4  UNL     1     -43.719  22.415  15.127  1.00  0.00     0.183 HD
ENDBRANCH   5  10
BRANCH   1  16
HETATM   16  N1  UNL     1     -37.239  21.320   9.922  1.00  0.00    -0.234 N 
ATOM     17  H12 UNL     1     -36.734  22.192   9.765  1.00  0.00     0.174 HD
ATOM     18  H11 UNL     1     -37.034  20.492   9.364  1.00  0.00     0.174 HD
ENDBRANCH   1  16
TORSDOF 2
ENDMDL
