MODEL 1
REMARK VINA RESULT: -6.484845925      0.000      0.000
REMARK  3 active torsions:
REMARK  status: ('A' for Active; 'I' for Inactive)
REMARK    1  A    between atoms: N1_1  and  C1_4 
REMARK    2  A    between atoms: C2_9  and  N4_10 
REMARK    3  A    between atoms: C3_13  and  N5_14 
ROOT
HETATM    1  C1  UNL     1     -38.394  20.074  13.352  1.00  0.00     0.151 A 
HETATM    2  N2  UNL     1     -37.595  19.961  12.282  1.00  0.00    -0.282 N 
ATOM      3  H2  UNL     1     -36.596  19.764  12.324  1.00  0.00     0.188 HD
HETATM    4  N3  UNL     1     -38.280  20.141  11.161  1.00  0.00    -0.277 N 
ATOM      5  H3  UNL     1     -37.884  20.103  10.221  1.00  0.00     0.189 HD
HETATM    6  C2  UNL     1     -39.578  20.384  11.446  1.00  0.00     0.225 A 
HETATM    7  C3  UNL     1     -39.651  20.340  12.832  1.00  0.00     0.198 A 
ENDROOT
BRANCH   1   8
HETATM    8  N1  UNL     1     -38.094  19.964  14.607  1.00  0.00    -0.382 N 
ATOM      9  H12 UNL     1     -37.158  19.843  14.993  1.00  0.00     0.157 HD
ATOM     10  H11 UNL     1     -38.713  19.977  15.417  1.00  0.00     0.157 HD
ENDBRANCH   1   8
BRANCH   7  11
HETATM   11  N5  UNL     1     -40.851  20.533  13.600  1.00  0.00    -0.107 N 
HETATM   12  O3  UNL     1     -41.250  19.590  14.339  1.00  0.00    -0.531 OA
HETATM   13  O4  UNL     1     -41.537  21.698  13.505  1.00  0.00    -0.531 OA
ENDBRANCH   7  11
BRANCH   6  14
HETATM   14  N4  UNL     1     -40.652  20.622  10.578  1.00  0.00    -0.094 N 
HETATM   15  O1  UNL     1     -41.658  19.891  10.534  1.00  0.00    -0.530 OA
HETATM   16  O2  UNL     1     -40.648  21.692   9.723  1.00  0.00    -0.530 OA
ENDBRANCH   6  14
TORSDOF 3
ENDMDL
MODEL 2
REMARK VINA RESULT: -6.086050236      0.680      3.157
REMARK  3 active torsions:
REMARK  status: ('A' for Active; 'I' for Inactive)
REMARK    1  A    between atoms: N1_1  and  C1_4 
REMARK    2  A    between atoms: C2_9  and  N4_10 
REMARK    3  A    between atoms: C3_13  and  N5_14 
ROOT
HETATM    1  C1  UNL     1     -38.210  20.453  11.433  1.00  0.00     0.151 A 
HETATM    2  N2  UNL     1     -37.618  20.239  12.615  1.00  0.00    -0.282 N 
ATOM      3  H2  UNL     1     -36.616  20.094  12.743  1.00  0.00     0.188 HD
HETATM    4  N3  UNL     1     -38.508  20.242  13.597  1.00  0.00    -0.277 N 
ATOM      5  H3  UNL     1     -38.292  20.099  14.584  1.00  0.00     0.189 HD
HETATM    6  C2  UNL     1     -39.745  20.460  13.099  1.00  0.00     0.225 A 
HETATM    7  C3  UNL     1     -39.557  20.595  11.729  1.00  0.00     0.198 A 
ENDROOT
BRANCH   1   8
HETATM    8  N1  UNL     1     -37.677  20.519  10.255  1.00  0.00    -0.382 N 
ATOM      9  H12 UNL     1     -37.767  19.824   9.514  1.00  0.00     0.157 HD
ATOM     10  H11 UNL     1     -37.087  21.250   9.858  1.00  0.00     0.157 HD
ENDBRANCH   1   8
BRANCH   7  11
HETATM   11  N5  UNL     1     -40.602  20.851  10.776  1.00  0.00    -0.107 N 
HETATM   12  O3  UNL     1     -40.576  21.938  10.133  1.00  0.00    -0.531 OA
HETATM   13  O4  UNL     1     -41.595  19.946  10.599  1.00  0.00    -0.531 OA
ENDBRANCH   7  11
BRANCH   6  14
HETATM   14  N4  UNL     1     -40.973  20.551  13.768  1.00  0.00    -0.094 N 
HETATM   15  O1  UNL     1     -41.433  19.627  14.462  1.00  0.00    -0.530 OA
HETATM   16  O2  UNL     1     -41.739  21.684  13.689  1.00  0.00    -0.530 OA
ENDBRANCH   6  14
TORSDOF 3
ENDMDL
MODEL 3
REMARK VINA RESULT: -5.915552915      1.125      3.247
REMARK  3 active torsions:
REMARK  status: ('A' for Active; 'I' for Inactive)
REMARK    1  A    between atoms: N1_1  and  C1_4 
REMARK    2  A    between atoms: C2_9  and  N4_10 
REMARK    3  A    between atoms: C3_13  and  N5_14 
ROOT
HETATM    1  C1  UNL     1     -38.312  20.201  11.838  1.00  0.00     0.151 A 
HETATM    2  N2  UNL     1     -37.514  19.930  12.880  1.00  0.00    -0.282 N 
ATOM      3  H2  UNL     1     -36.524  19.700  12.806  1.00  0.00     0.188 HD
HETATM    4  N3  UNL     1     -38.187  19.999  14.021  1.00  0.00    -0.277 N 
ATOM      5  H3  UNL     1     -37.790  19.832  14.945  1.00  0.00     0.189 HD
HETATM    6  C2  UNL     1     -39.476  20.325  13.778  1.00  0.00     0.225 A 
HETATM    7  C3  UNL     1     -39.555  20.453  12.397  1.00  0.00     0.198 A 
ENDROOT
BRANCH   1   8
HETATM    8  N1  UNL     1     -38.021  20.231  10.577  1.00  0.00    -0.382 N 
ATOM      9  H12 UNL     1     -37.767  21.058  10.038  1.00  0.00     0.157 HD
ATOM     10  H11 UNL     1     -37.993  19.463   9.907  1.00  0.00     0.157 HD
ENDBRANCH   1   8
BRANCH   7  11
HETATM   11  N5  UNL     1     -40.744  20.805  11.670  1.00  0.00    -0.107 N 
HETATM   12  O3  UNL     1     -41.237  19.956  10.875  1.00  0.00    -0.531 OA
HETATM   13  O4  UNL     1     -41.300  22.030  11.831  1.00  0.00    -0.531 OA
ENDBRANCH   7  11
BRANCH   6  14
HETATM   14  N4  UNL     1     -40.533  20.513  14.678  1.00  0.00    -0.094 N 
HETATM   15  O1  UNL     1     -40.548  21.431  15.517  1.00  0.00    -0.530 OA
HETATM   16  O2  UNL     1     -41.622  19.681  14.675  1.00  0.00    -0.530 OA
ENDBRANCH   6  14
TORSDOF 3
ENDMDL
MODEL 4
REMARK VINA RESULT: -5.745094784      2.538      3.088
REMARK  3 active torsions:
REMARK  status: ('A' for Active; 'I' for Inactive)
REMARK    1  A    between atoms: N1_1  and  C1_4 
REMARK    2  A    between atoms: C2_9  and  N4_10 
REMARK    3  A    between atoms: C3_13  and  N5_14 
ROOT
HETATM    1  C1  UNL     1     -38.441  20.294  11.758  1.00  0.00     0.151 A 
HETATM    2  N2  UNL     1     -39.290  19.414  11.209  1.00  0.00    -0.282 N 
ATOM      3  H2  UNL     1     -39.316  18.419  11.432  1.00  0.00     0.188 HD
HETATM    4  N3  UNL     1     -40.090  20.010  10.336  1.00  0.00    -0.277 N 
ATOM      5  H3  UNL     1     -40.816  19.542   9.794  1.00  0.00     0.189 HD
HETATM    6  C2  UNL     1     -39.801  21.328  10.270  1.00  0.00     0.225 A 
HETATM    7  C3  UNL     1     -38.759  21.509  11.170  1.00  0.00     0.198 A 
ENDROOT
BRANCH   1   8
HETATM    8  N1  UNL     1     -37.519  20.093  12.643  1.00  0.00    -0.382 N 
ATOM      9  H12 UNL     1     -37.309  19.206  13.102  1.00  0.00     0.157 HD
ATOM     10  H11 UNL     1     -36.850  20.755  13.035  1.00  0.00     0.157 HD
ENDBRANCH   1   8
BRANCH   7  11
HETATM   11  N5  UNL     1     -38.121  22.766  11.450  1.00  0.00    -0.107 N 
HETATM   12  O3  UNL     1     -38.303  23.295  12.583  1.00  0.00    -0.531 OA
HETATM   13  O4  UNL     1     -37.362  23.367  10.501  1.00  0.00    -0.531 OA
ENDBRANCH   7  11
BRANCH   6  14
HETATM   14  N4  UNL     1     -40.394  22.334   9.495  1.00  0.00    -0.094 N 
HETATM   15  O1  UNL     1     -40.333  22.352   8.253  1.00  0.00    -0.530 OA
HETATM   16  O2  UNL     1     -41.085  23.363  10.079  1.00  0.00    -0.530 OA
ENDBRANCH   6  14
TORSDOF 3
ENDMDL
MODEL 5
REMARK VINA RESULT: -5.617132315      2.546      3.322
REMARK  3 active torsions:
REMARK  status: ('A' for Active; 'I' for Inactive)
REMARK    1  A    between atoms: N1_1  and  C1_4 
REMARK    2  A    between atoms: C2_9  and  N4_10 
REMARK    3  A    between atoms: C3_13  and  N5_14 
ROOT
HETATM    1  C1  UNL     1     -39.228  20.457  11.311  1.00  0.00     0.151 A 
HETATM    2  N2  UNL     1     -38.133  20.159  10.598  1.00  0.00    -0.282 N 
ATOM      3  H2  UNL     1     -37.804  19.212  10.412  1.00  0.00     0.188 HD
HETATM    4  N3  UNL     1     -37.537  21.261  10.165  1.00  0.00    -0.277 N 
ATOM      5  H3  UNL     1     -36.686  21.283   9.602  1.00  0.00     0.189 HD
HETATM    6  C2  UNL     1     -38.220  22.350  10.580  1.00  0.00     0.225 A 
HETATM    7  C3  UNL     1     -39.291  21.842  11.304  1.00  0.00     0.198 A 
ENDROOT
BRANCH   1   8
HETATM    8  N1  UNL     1     -40.063  19.657  11.892  1.00  0.00    -0.382 N 
ATOM      9  H12 UNL     1     -40.044  18.638  11.858  1.00  0.00     0.157 HD
ATOM     10  H11 UNL     1     -40.870  19.885  12.473  1.00  0.00     0.157 HD
ENDBRANCH   1   8
BRANCH   7  11
HETATM   11  N5  UNL     1     -40.308  22.636  11.937  1.00  0.00    -0.107 N 
HETATM   12  O3  UNL     1     -41.504  22.501  11.552  1.00  0.00    -0.531 OA
HETATM   13  O4  UNL     1     -39.972  23.520  12.908  1.00  0.00    -0.531 OA
ENDBRANCH   7  11
BRANCH   6  14
HETATM   14  N4  UNL     1     -37.960  23.708  10.351  1.00  0.00    -0.094 N 
HETATM   15  O1  UNL     1     -37.165  24.367  11.043  1.00  0.00    -0.530 OA
HETATM   16  O2  UNL     1     -38.579  24.385   9.333  1.00  0.00    -0.530 OA
ENDBRANCH   6  14
TORSDOF 3
ENDMDL
