MODEL 1
REMARK VINA RESULT: -5.433032349      0.000      0.000
REMARK  3 active torsions:
REMARK  status: ('A' for Active; 'I' for Inactive)
REMARK    1  A    between atoms: N1_1  and  C1_4 
REMARK    2  A    between atoms: C3_8  and  S1_9 
REMARK    3  A    between atoms: S1_9  and  N3_10 
ROOT
HETATM    1  C1  UNL     1     -38.150  20.380  14.505  1.00  0.00     0.675 A 
HETATM    2  N2  UNL     1     -38.775  19.366  13.882  1.00  0.00    -0.201 N 
ATOM      3  H2  UNL     1     -38.659  18.417  14.237  1.00  0.00     0.183 HD
HETATM    4  C2  UNL     1     -39.555  19.574  12.791  1.00  0.00     0.132 A 
HETATM    5  C3  UNL     1     -39.742  20.841  12.272  1.00  0.00     0.111 A 
HETATM    6  C4  UNL     1     -39.092  21.873  12.923  1.00  0.00     0.132 A 
HETATM    7  N4  UNL     1     -38.329  21.615  14.002  1.00  0.00    -0.201 N 
ATOM      8  H4  UNL     1     -37.862  22.396  14.461  1.00  0.00     0.183 HD
ENDROOT
BRANCH   5   9
HETATM    9  S1  UNL     1     -40.734  21.153  10.874  1.00  0.00     0.259 S 
HETATM   10  O1  UNL     1     -41.601  19.960  10.534  1.00  0.00    -0.201 OA
HETATM   11  O2  UNL     1     -41.660  22.309  11.086  1.00  0.00    -0.201 OA
BRANCH   9  12
HETATM   12  N3  UNL     1     -39.779  21.485   9.472  1.00  0.00    -0.324 N 
ATOM     13  H32 UNL     1     -39.085  22.231   9.431  1.00  0.00     0.169 HD
ATOM     14  H31 UNL     1     -39.996  20.846   8.707  1.00  0.00     0.169 HD
ENDBRANCH   9  12
ENDBRANCH   5   9
BRANCH   1  15
HETATM   15  N1  UNL     1     -37.400  20.185  15.552  1.00  0.00    -0.234 N 
ATOM     16  H12 UNL     1     -36.604  19.549  15.517  1.00  0.00     0.174 HD
ATOM     17  H11 UNL     1     -37.582  20.655  16.438  1.00  0.00     0.174 HD
ENDBRANCH   1  15
TORSDOF 3
ENDMDL
MODEL 2
REMARK VINA RESULT: -5.425764340      0.046      1.401
REMARK  3 active torsions:
REMARK  status: ('A' for Active; 'I' for Inactive)
REMARK    1  A    between atoms: N1_1  and  C1_4 
REMARK    2  A    between atoms: C3_8  and  S1_9 
REMARK    3  A    between atoms: S1_9  and  N3_10 
ROOT
HETATM    1  C1  UNL     1     -38.166  20.415  14.511  1.00  0.00     0.675 A 
HETATM    2  N2  UNL     1     -38.296  21.656  14.010  1.00  0.00    -0.201 N 
ATOM      3  H2  UNL     1     -37.807  22.429  14.462  1.00  0.00     0.183 HD
HETATM    4  C2  UNL     1     -39.063  21.906  12.918  1.00  0.00     0.132 A 
HETATM    5  C3  UNL     1     -39.746  20.893  12.272  1.00  0.00     0.111 A 
HETATM    6  C4  UNL     1     -39.603  19.623  12.800  1.00  0.00     0.132 A 
HETATM    7  N4  UNL     1     -38.830  19.427  13.885  1.00  0.00    -0.201 N 
ATOM      8  H4  UNL     1     -38.744  18.479  14.252  1.00  0.00     0.183 HD
ENDROOT
BRANCH   5   9
HETATM    9  S1  UNL     1     -40.742  21.168  10.870  1.00  0.00     0.259 S 
HETATM   10  O1  UNL     1     -41.597  19.960  10.554  1.00  0.00    -0.201 OA
HETATM   11  O2  UNL     1     -41.679  22.319  11.059  1.00  0.00    -0.201 OA
BRANCH   9  12
HETATM   12  N3  UNL     1     -39.790  21.482   9.461  1.00  0.00    -0.324 N 
ATOM     13  H32 UNL     1     -38.771  21.507   9.468  1.00  0.00     0.169 HD
ATOM     14  H31 UNL     1     -40.373  21.634   8.637  1.00  0.00     0.169 HD
ENDBRANCH   9  12
ENDBRANCH   5   9
BRANCH   1  15
HETATM   15  N1  UNL     1     -37.431  20.172  15.558  1.00  0.00    -0.234 N 
ATOM     16  H12 UNL     1     -37.446  20.793  16.367  1.00  0.00     0.174 HD
ATOM     17  H11 UNL     1     -36.818  19.358  15.607  1.00  0.00     0.174 HD
ENDBRANCH   1  15
TORSDOF 3
ENDMDL
MODEL 3
REMARK VINA RESULT: -5.347003739      1.431      1.674
REMARK  3 active torsions:
REMARK  status: ('A' for Active; 'I' for Inactive)
REMARK    1  A    between atoms: N1_1  and  C1_4 
REMARK    2  A    between atoms: C3_8  and  S1_9 
REMARK    3  A    between atoms: S1_9  and  N3_10 
ROOT
HETATM    1  C1  UNL     1     -38.048  20.201  14.306  1.00  0.00     0.675 A 
HETATM    2  N2  UNL     1     -39.344  20.495  14.515  1.00  0.00    -0.201 N 
ATOM      3  H2  UNL     1     -39.702  20.513  15.470  1.00  0.00     0.183 HD
HETATM    4  C2  UNL     1     -40.186  20.769  13.486  1.00  0.00     0.132 A 
HETATM    5  C3  UNL     1     -39.748  20.757  12.176  1.00  0.00     0.111 A 
HETATM    6  C4  UNL     1     -38.414  20.452  11.977  1.00  0.00     0.132 A 
HETATM    7  N4  UNL     1     -37.619  20.188  13.032  1.00  0.00    -0.201 N 
ATOM      8  H4  UNL     1     -36.639  19.966  12.854  1.00  0.00     0.183 HD
ENDROOT
BRANCH   5   9
HETATM    9  S1  UNL     1     -40.794  21.101  10.826  1.00  0.00     0.259 S 
HETATM   10  O1  UNL     1     -39.998  21.421   9.578  1.00  0.00    -0.201 OA
HETATM   11  O2  UNL     1     -41.677  19.943  10.486  1.00  0.00    -0.201 OA
BRANCH   9  12
HETATM   12  N3  UNL     1     -41.804  22.470  11.132  1.00  0.00    -0.324 N 
ATOM     13  H32 UNL     1     -41.559  23.213  11.787  1.00  0.00     0.169 HD
ATOM     14  H31 UNL     1     -42.662  22.437  10.580  1.00  0.00     0.169 HD
ENDBRANCH   9  12
ENDBRANCH   5   9
BRANCH   1  15
HETATM   15  N1  UNL     1     -37.237  19.938  15.290  1.00  0.00    -0.234 N 
ATOM     16  H12 UNL     1     -37.456  19.213  15.973  1.00  0.00     0.174 HD
ATOM     17  H11 UNL     1     -36.360  20.444  15.414  1.00  0.00     0.174 HD
ENDBRANCH   1  15
TORSDOF 3
ENDMDL
MODEL 4
REMARK VINA RESULT: -5.342548169      1.431      1.663
REMARK  3 active torsions:
REMARK  status: ('A' for Active; 'I' for Inactive)
REMARK    1  A    between atoms: N1_1  and  C1_4 
REMARK    2  A    between atoms: C3_8  and  S1_9 
REMARK    3  A    between atoms: S1_9  and  N3_10 
ROOT
HETATM    1  C1  UNL     1     -38.049  20.192  14.282  1.00  0.00     0.675 A 
HETATM    2  N2  UNL     1     -37.594  20.163  13.017  1.00  0.00    -0.201 N 
ATOM      3  H2  UNL     1     -36.615  19.934  12.846  1.00  0.00     0.183 HD
HETATM    4  C2  UNL     1     -38.406  20.431  11.963  1.00  0.00     0.132 A 
HETATM    5  C3  UNL     1     -39.739  20.746  12.144  1.00  0.00     0.111 A 
HETATM    6  C4  UNL     1     -40.192  20.773  13.451  1.00  0.00     0.132 A 
HETATM    7  N4  UNL     1     -39.346  20.500  14.462  1.00  0.00    -0.201 N 
ATOM      8  H4  UNL     1     -39.709  20.527  15.415  1.00  0.00     0.183 HD
ENDROOT
BRANCH   5   9
HETATM    9  S1  UNL     1     -40.816  21.097  10.820  1.00  0.00     0.259 S 
HETATM   10  O1  UNL     1     -40.049  21.426   9.557  1.00  0.00    -0.201 OA
HETATM   11  O2  UNL     1     -41.705  19.939  10.493  1.00  0.00    -0.201 OA
BRANCH   9  12
HETATM   12  N3  UNL     1     -41.821  22.463  11.157  1.00  0.00    -0.324 N 
ATOM     13  H32 UNL     1     -42.231  23.049  10.431  1.00  0.00     0.169 HD
ATOM     14  H31 UNL     1     -41.947  22.600  12.161  1.00  0.00     0.169 HD
ENDBRANCH   9  12
ENDBRANCH   5   9
BRANCH   1  15
HETATM   15  N1  UNL     1     -37.274  19.936  15.296  1.00  0.00    -0.234 N 
ATOM     16  H12 UNL     1     -36.298  19.674  15.159  1.00  0.00     0.174 HD
ATOM     17  H11 UNL     1     -37.611  19.987  16.258  1.00  0.00     0.174 HD
ENDBRANCH   1  15
TORSDOF 3
ENDMDL
MODEL 5
REMARK VINA RESULT: -5.191372831      1.115      1.929
REMARK  3 active torsions:
REMARK  status: ('A' for Active; 'I' for Inactive)
REMARK    1  A    between atoms: N1_1  and  C1_4 
REMARK    2  A    between atoms: C3_8  and  S1_9 
REMARK    3  A    between atoms: S1_9  and  N3_10 
ROOT
HETATM    1  C1  UNL     1     -38.179  20.425  14.495  1.00  0.00     0.675 A 
HETATM    2  N2  UNL     1     -38.300  21.658  13.972  1.00  0.00    -0.201 N 
ATOM      3  H2  UNL     1     -37.796  22.433  14.404  1.00  0.00     0.183 HD
HETATM    4  C2  UNL     1     -39.075  21.896  12.883  1.00  0.00     0.132 A 
HETATM    5  C3  UNL     1     -39.776  20.880  12.264  1.00  0.00     0.111 A 
HETATM    6  C4  UNL     1     -39.643  19.618  12.814  1.00  0.00     0.132 A 
HETATM    7  N4  UNL     1     -38.861  19.433  13.895  1.00  0.00    -0.201 N 
ATOM      8  H4  UNL     1     -38.782  18.492  14.278  1.00  0.00     0.183 HD
ENDROOT
BRANCH   5   9
HETATM    9  S1  UNL     1     -40.783  21.140  10.866  1.00  0.00     0.259 S 
HETATM   10  O1  UNL     1     -39.952  21.424   9.632  1.00  0.00    -0.201 OA
HETATM   11  O2  UNL     1     -41.628  19.948  10.549  1.00  0.00    -0.201 OA
BRANCH   9  12
HETATM   12  N3  UNL     1     -41.832  22.497  11.077  1.00  0.00    -0.324 N 
ATOM     13  H32 UNL     1     -41.495  23.447  11.237  1.00  0.00     0.169 HD
ATOM     14  H31 UNL     1     -42.815  22.227  11.021  1.00  0.00     0.169 HD
ENDBRANCH   9  12
ENDBRANCH   5   9
BRANCH   1  15
HETATM   15  N1  UNL     1     -37.436  20.193  15.539  1.00  0.00    -0.234 N 
ATOM     16  H12 UNL     1     -36.585  20.728  15.709  1.00  0.00     0.174 HD
ATOM     17  H11 UNL     1     -37.676  19.472  16.219  1.00  0.00     0.174 HD
ENDBRANCH   1  15
TORSDOF 3
ENDMDL
