MODEL 1
REMARK VINA RESULT: -6.389588528      0.000      0.000
REMARK  8 active torsions:
REMARK  status: ('A' for Active; 'I' for Inactive)
REMARK    1  A    between atoms: N1_2  and  C1_3 
REMARK    2  A    between atoms: C1_3  and  C2_4 
REMARK    3  A    between atoms: C2_4  and  C3_5 
REMARK    4  A    between atoms: C3_5  and  O2_6 
REMARK    5  A    between atoms: O2_6  and  C4_7 
REMARK    6  A    between atoms: C4_7  and  C5_8 
REMARK    7  A    between atoms: C5_8  and  O3_9 
REMARK    8  A    between atoms: O3_9  and  C6_10 
ROOT
HETATM    1  C4  UNL     1      80.382  20.028   2.717  1.00  0.00     0.193 C 
ENDROOT
BRANCH   1   2
HETATM    2  O2  UNL     1      79.204  20.529   2.198  1.00  0.00    -0.389 OA
BRANCH   2   3
HETATM    3  C3  UNL     1      79.352  21.497   1.248  1.00  0.00     0.170 C 
BRANCH   3   4
HETATM    4  C2  UNL     1      79.268  22.908   1.765  1.00  0.00     0.063 C 
BRANCH   4   5
HETATM    5  C1  UNL     1      80.679  23.438   1.937  1.00  0.00     0.314 C 
BRANCH   5   6
HETATM    6  N1  UNL     1      81.050  23.612   3.314  1.00  0.00     0.014 N 
HETATM    7  O1  UNL     1      80.167  23.079   4.187  1.00  0.00    -0.064 OA
HETATM    8  C10 UNL     1      81.212  25.050   3.582  1.00  0.00     0.314 C 
HETATM    9  C11 UNL     1      82.514  24.815   4.304  1.00  0.00     0.073 C 
HETATM   10  C12 UNL     1      82.437  23.454   3.638  1.00  0.00     0.314 C 
ENDBRANCH   5   6
ENDBRANCH   4   5
ENDBRANCH   3   4
ENDBRANCH   2   3
ENDBRANCH   1   2
BRANCH   1  11
HETATM   11  C5  UNL     1      81.152  19.405   1.583  1.00  0.00     0.194 C 
BRANCH  11  12
HETATM   12  O3  UNL     1      80.830  18.072   1.373  1.00  0.00    -0.382 OA
BRANCH  12  13
HETATM   13  C6  UNL     1      81.086  17.726   0.074  1.00  0.00     0.148 C 
HETATM   14  C7  UNL     1      80.442  18.705  -0.914  1.00  0.00     0.061 C 
HETATM   15  C8  UNL     1      80.292  17.849  -2.130  1.00  0.00     0.235 C 
HETATM   16  N2  UNL     1      80.314  16.477  -1.706  1.00  0.00    -0.073 N 
HETATM   17  C9  UNL     1      80.313  16.454  -0.276  1.00  0.00     0.264 C 
ATOM     18  H22 UNL     1      79.554  15.929  -2.109  1.00  0.00     0.277 HD
ATOM     19  H21 UNL     1      81.090  15.953  -2.108  1.00  0.00     0.277 HD
ENDBRANCH  12  13
ENDBRANCH  11  12
ENDBRANCH   1  11
TORSDOF 8
ENDMDL
MODEL 2
REMARK VINA RESULT: -6.073737332      1.560      6.841
REMARK  8 active torsions:
REMARK  status: ('A' for Active; 'I' for Inactive)
REMARK    1  A    between atoms: N1_2  and  C1_3 
REMARK    2  A    between atoms: C1_3  and  C2_4 
REMARK    3  A    between atoms: C2_4  and  C3_5 
REMARK    4  A    between atoms: C3_5  and  O2_6 
REMARK    5  A    between atoms: O2_6  and  C4_7 
REMARK    6  A    between atoms: C4_7  and  C5_8 
REMARK    7  A    between atoms: C5_8  and  O3_9 
REMARK    8  A    between atoms: O3_9  and  C6_10 
ROOT
HETATM    1  C4  UNL     1      81.597  20.926   3.020  1.00  0.00     0.193 C 
ENDROOT
BRANCH   1   2
HETATM    2  O2  UNL     1      81.535  19.794   2.230  1.00  0.00    -0.389 OA
BRANCH   2   3
HETATM    3  C3  UNL     1      82.320  19.818   1.116  1.00  0.00     0.170 C 
BRANCH   3   4
HETATM    4  C2  UNL     1      81.577  19.677  -0.186  1.00  0.00     0.063 C 
BRANCH   4   5
HETATM    5  C1  UNL     1      80.139  19.308   0.124  1.00  0.00     0.314 C 
BRANCH   5   6
HETATM    6  N1  UNL     1      79.726  18.082  -0.502  1.00  0.00     0.014 N 
HETATM    7  O1  UNL     1      78.385  17.941  -0.589  1.00  0.00    -0.064 OA
HETATM    8  C10 UNL     1      80.300  16.953   0.248  1.00  0.00     0.314 C 
HETATM    9  C11 UNL     1      80.748  16.278  -1.023  1.00  0.00     0.073 C 
HETATM   10  C12 UNL     1      80.487  17.643  -1.633  1.00  0.00     0.314 C 
ENDBRANCH   5   6
ENDBRANCH   4   5
ENDBRANCH   3   4
ENDBRANCH   2   3
ENDBRANCH   1   2
BRANCH   1  11
HETATM   11  C5  UNL     1      80.210  21.510   3.087  1.00  0.00     0.194 C 
BRANCH  11  12
HETATM   12  O3  UNL     1      80.169  22.745   3.718  1.00  0.00    -0.382 OA
BRANCH  12  13
HETATM   13  C6  UNL     1      80.942  23.646   3.036  1.00  0.00     0.148 C 
HETATM   14  C7  UNL     1      81.217  24.905   3.866  1.00  0.00     0.061 C 
HETATM   15  C8  UNL     1      81.471  25.919   2.797  1.00  0.00     0.235 C 
HETATM   16  N2  UNL     1      80.867  25.439   1.586  1.00  0.00    -0.073 N 
HETATM   17  C9  UNL     1      80.125  24.257   1.896  1.00  0.00     0.264 C 
ATOM     18  H22 UNL     1      80.301  26.149   1.120  1.00  0.00     0.277 HD
ATOM     19  H21 UNL     1      81.546  25.293   0.839  1.00  0.00     0.277 HD
ENDBRANCH  12  13
ENDBRANCH  11  12
ENDBRANCH   1  11
TORSDOF 8
ENDMDL
MODEL 3
REMARK VINA RESULT: -6.016634332      1.578      6.820
REMARK  8 active torsions:
REMARK  status: ('A' for Active; 'I' for Inactive)
REMARK    1  A    between atoms: N1_2  and  C1_3 
REMARK    2  A    between atoms: C1_3  and  C2_4 
REMARK    3  A    between atoms: C2_4  and  C3_5 
REMARK    4  A    between atoms: C3_5  and  O2_6 
REMARK    5  A    between atoms: O2_6  and  C4_7 
REMARK    6  A    between atoms: C4_7  and  C5_8 
REMARK    7  A    between atoms: C5_8  and  O3_9 
REMARK    8  A    between atoms: O3_9  and  C6_10 
ROOT
HETATM    1  C4  UNL     1      81.268  20.914   3.041  1.00  0.00     0.193 C 
ENDROOT
BRANCH   1   2
HETATM    2  O2  UNL     1      80.328  20.159   2.366  1.00  0.00    -0.389 OA
BRANCH   2   3
HETATM    3  C3  UNL     1      79.320  20.870   1.783  1.00  0.00     0.170 C 
BRANCH   3   4
HETATM    4  C2  UNL     1      78.875  20.353   0.441  1.00  0.00     0.063 C 
BRANCH   4   5
HETATM    5  C1  UNL     1      80.043  19.631  -0.203  1.00  0.00     0.314 C 
BRANCH   5   6
HETATM    6  N1  UNL     1      79.725  18.284  -0.594  1.00  0.00     0.014 N 
HETATM    7  O1  UNL     1      78.408  17.991  -0.508  1.00  0.00    -0.064 OA
HETATM    8  C10 UNL     1      80.500  17.354   0.242  1.00  0.00     0.314 C 
HETATM    9  C11 UNL     1      80.904  16.540  -0.960  1.00  0.00     0.073 C 
HETATM   10  C12 UNL     1      80.422  17.756  -1.728  1.00  0.00     0.314 C 
ENDBRANCH   5   6
ENDBRANCH   4   5
ENDBRANCH   3   4
ENDBRANCH   2   3
ENDBRANCH   1   2
BRANCH   1  11
HETATM   11  C5  UNL     1      80.673  22.277   3.277  1.00  0.00     0.194 C 
BRANCH  11  12
HETATM   12  O3  UNL     1      81.558  23.162   3.875  1.00  0.00    -0.382 OA
BRANCH  12  13
HETATM   13  C6  UNL     1      81.893  24.156   2.995  1.00  0.00     0.148 C 
HETATM   14  C7  UNL     1      81.983  25.522   3.685  1.00  0.00     0.061 C 
HETATM   15  C8  UNL     1      81.718  26.451   2.544  1.00  0.00     0.235 C 
HETATM   16  N2  UNL     1      81.026  25.710   1.527  1.00  0.00    -0.073 N 
HETATM   17  C9  UNL     1      80.718  24.416   2.050  1.00  0.00     0.264 C 
ATOM     18  H22 UNL     1      80.203  26.199   1.175  1.00  0.00     0.277 HD
ATOM     19  H21 UNL     1      81.545  25.667   0.650  1.00  0.00     0.277 HD
ENDBRANCH  12  13
ENDBRANCH  11  12
ENDBRANCH   1  11
TORSDOF 8
ENDMDL
MODEL 4
REMARK VINA RESULT: -5.943967841      1.509      1.919
REMARK  8 active torsions:
REMARK  status: ('A' for Active; 'I' for Inactive)
REMARK    1  A    between atoms: N1_2  and  C1_3 
REMARK    2  A    between atoms: C1_3  and  C2_4 
REMARK    3  A    between atoms: C2_4  and  C3_5 
REMARK    4  A    between atoms: C3_5  and  O2_6 
REMARK    5  A    between atoms: O2_6  and  C4_7 
REMARK    6  A    between atoms: C4_7  and  C5_8 
REMARK    7  A    between atoms: C5_8  and  O3_9 
REMARK    8  A    between atoms: O3_9  and  C6_10 
ROOT
HETATM    1  C4  UNL     1      80.562  20.078   2.788  1.00  0.00     0.193 C 
ENDROOT
BRANCH   1   2
HETATM    2  O2  UNL     1      81.587  20.498   3.614  1.00  0.00    -0.389 OA
BRANCH   2   3
HETATM    3  C3  UNL     1      82.529  21.284   3.018  1.00  0.00     0.170 C 
BRANCH   3   4
HETATM    4  C2  UNL     1      82.422  22.752   3.337  1.00  0.00     0.063 C 
BRANCH   4   5
HETATM    5  C1  UNL     1      82.186  23.505   2.042  1.00  0.00     0.314 C 
BRANCH   5   6
HETATM    6  N1  UNL     1      81.370  24.676   2.213  1.00  0.00     0.014 N 
HETATM    7  O1  UNL     1      80.141  24.567   1.663  1.00  0.00    -0.064 OA
HETATM    8  C10 UNL     1      82.076  25.832   1.637  1.00  0.00     0.314 C 
HETATM    9  C11 UNL     1      81.780  26.675   2.850  1.00  0.00     0.073 C 
HETATM   10  C12 UNL     1      81.443  25.338   3.482  1.00  0.00     0.314 C 
ENDBRANCH   5   6
ENDBRANCH   4   5
ENDBRANCH   3   4
ENDBRANCH   2   3
ENDBRANCH   1   2
BRANCH   1  11
HETATM   11  C5  UNL     1      81.186  19.487   1.552  1.00  0.00     0.194 C 
BRANCH  11  12
HETATM   12  O3  UNL     1      80.858  18.153   1.360  1.00  0.00    -0.382 OA
BRANCH  12  13
HETATM   13  C6  UNL     1      81.099  17.794   0.061  1.00  0.00     0.148 C 
HETATM   14  C7  UNL     1      80.406  18.736  -0.930  1.00  0.00     0.061 C 
HETATM   15  C8  UNL     1      80.259  17.855  -2.128  1.00  0.00     0.235 C 
HETATM   16  N2  UNL     1      80.330  16.492  -1.682  1.00  0.00    -0.073 N 
HETATM   17  C9  UNL     1      80.358  16.493  -0.253  1.00  0.00     0.264 C 
ATOM     18  H22 UNL     1      79.580  15.914  -2.061  1.00  0.00     0.277 HD
ATOM     19  H21 UNL     1      81.115  15.984  -2.091  1.00  0.00     0.277 HD
ENDBRANCH  12  13
ENDBRANCH  11  12
ENDBRANCH   1  11
TORSDOF 8
ENDMDL
MODEL 5
REMARK VINA RESULT: -5.923911509      1.533      1.980
REMARK  8 active torsions:
REMARK  status: ('A' for Active; 'I' for Inactive)
REMARK    1  A    between atoms: N1_2  and  C1_3 
REMARK    2  A    between atoms: C1_3  and  C2_4 
REMARK    3  A    between atoms: C2_4  and  C3_5 
REMARK    4  A    between atoms: C3_5  and  O2_6 
REMARK    5  A    between atoms: O2_6  and  C4_7 
REMARK    6  A    between atoms: C4_7  and  C5_8 
REMARK    7  A    between atoms: C5_8  and  O3_9 
REMARK    8  A    between atoms: O3_9  and  C6_10 
ROOT
HETATM    1  C4  UNL     1      79.006  20.772   1.007  1.00  0.00     0.193 C 
ENDROOT
BRANCH   1   2
HETATM    2  O2  UNL     1      79.089  21.632   2.085  1.00  0.00    -0.389 OA
BRANCH   2   3
HETATM    3  C3  UNL     1      80.153  22.484   2.070  1.00  0.00     0.170 C 
BRANCH   3   4
HETATM    4  C2  UNL     1      79.800  23.940   2.218  1.00  0.00     0.063 C 
BRANCH   4   5
HETATM    5  C1  UNL     1      81.004  24.767   1.808  1.00  0.00     0.314 C 
BRANCH   5   6
HETATM    6  N1  UNL     1      81.549  25.541   2.890  1.00  0.00     0.014 N 
HETATM    7  O1  UNL     1      81.411  26.875   2.726  1.00  0.00    -0.064 OA
HETATM    8  C10 UNL     1      82.972  25.200   3.045  1.00  0.00     0.314 C 
HETATM    9  C11 UNL     1      82.825  25.072   4.539  1.00  0.00     0.073 C 
HETATM   10  C12 UNL     1      81.343  25.038   4.215  1.00  0.00     0.314 C 
ENDBRANCH   5   6
ENDBRANCH   4   5
ENDBRANCH   3   4
ENDBRANCH   2   3
ENDBRANCH   1   2
BRANCH   1  11
HETATM   11  C5  UNL     1      80.385  20.222   0.757  1.00  0.00     0.194 C 
BRANCH  11  12
HETATM   12  O3  UNL     1      80.555  19.740  -0.533  1.00  0.00    -0.382 OA
BRANCH  12  13
HETATM   13  C6  UNL     1      80.080  18.460  -0.621  1.00  0.00     0.148 C 
HETATM   14  C7  UNL     1      80.834  17.506   0.313  1.00  0.00     0.061 C 
HETATM   15  C8  UNL     1      80.633  16.193  -0.373  1.00  0.00     0.235 C 
HETATM   16  N2  UNL     1      80.320  16.461  -1.748  1.00  0.00    -0.073 N 
HETATM   17  C9  UNL     1      80.472  17.864  -1.975  1.00  0.00     0.264 C 
ATOM     18  H22 UNL     1      80.872  15.896  -2.395  1.00  0.00     0.277 HD
ATOM     19  H21 UNL     1      79.399  16.116  -2.017  1.00  0.00     0.277 HD
ENDBRANCH  12  13
ENDBRANCH  11  12
ENDBRANCH   1  11
TORSDOF 8
ENDMDL
