MODEL 1
REMARK VINA RESULT: -5.825646536      0.000      0.000
REMARK  8 active torsions:
REMARK  status: ('A' for Active; 'I' for Inactive)
REMARK    1  A    between atoms: C3_3  and  S1_4 
REMARK    2  A    between atoms: S1_4  and  C4_6 
REMARK    3  A    between atoms: C4_6  and  C5_7 
REMARK    4  A    between atoms: C5_7  and  N1_8 
REMARK    5  A    between atoms: N1_8  and  C6_11 
REMARK    6  A    between atoms: C6_11  and  C7_12 
REMARK    7  A    between atoms: C7_12  and  N2_13 
REMARK    8  A    between atoms: N2_13  and  C8_15 
ROOT
HETATM    1  C1  UNL     1      80.385  16.128  -0.112  1.00  0.00     0.013 C 
HETATM    2  C2  UNL     1      80.151  17.200  -0.629  1.00  0.00    -0.105 C 
HETATM    3  C3  UNL     1      79.894  18.504  -1.247  1.00  0.00     0.201 C 
ENDROOT
BRANCH   3   4
HETATM    4  S1  UNL     1      79.933  19.747   0.014  1.00  0.00     0.027 S 
HETATM    5  O1  UNL     1      78.404  19.772   0.754  1.00  0.00    -0.257 OA
BRANCH   4   6
HETATM    6  C4  UNL     1      81.181  19.431   1.214  1.00  0.00     0.137 C 
BRANCH   6   7
HETATM    7  C5  UNL     1      81.419  20.725   2.008  1.00  0.00     0.245 C 
BRANCH   7   8
HETATM    8  N1  UNL     1      80.716  21.819   1.408  1.00  0.00    -0.073 N 
ATOM      9  H12 UNL     1      80.659  21.735   0.393  1.00  0.00     0.277 HD
ATOM     10  H11 UNL     1      79.717  21.796   1.609  1.00  0.00     0.277 HD
BRANCH   8  11
HETATM   11  C6  UNL     1      81.336  23.058   1.827  1.00  0.00     0.251 C 
BRANCH  11  12
HETATM   12  C7  UNL     1      80.251  24.158   1.892  1.00  0.00     0.141 C 
BRANCH  12  13
HETATM   13  N2  UNL     1      80.794  25.373   1.429  1.00  0.00    -0.415 N 
ATOM     14  H2  UNL     1      80.302  25.916   0.719  1.00  0.00     0.153 HD
BRANCH  13  15
HETATM   15  C8  UNL     1      82.011  25.833   1.945  1.00  0.00     0.076 C 
HETATM   16  C9  UNL     1      81.919  27.086   2.795  1.00  0.00     0.024 C 
HETATM   17  C10 UNL     1      83.405  27.303   3.087  1.00  0.00     0.002 C 
HETATM   18  C11 UNL     1      84.002  27.154   1.696  1.00  0.00     0.002 C 
HETATM   19  C12 UNL     1      83.018  26.277   0.912  1.00  0.00     0.024 C 
ENDBRANCH  13  15
ENDBRANCH  12  13
ENDBRANCH  11  12
ENDBRANCH   8  11
ENDBRANCH   7   8
ENDBRANCH   6   7
ENDBRANCH   4   6
ENDBRANCH   3   4
TORSDOF 8
ENDMDL
MODEL 2
REMARK VINA RESULT: -5.767992970      1.946      2.846
REMARK  8 active torsions:
REMARK  status: ('A' for Active; 'I' for Inactive)
REMARK    1  A    between atoms: C3_3  and  S1_4 
REMARK    2  A    between atoms: S1_4  and  C4_6 
REMARK    3  A    between atoms: C4_6  and  C5_7 
REMARK    4  A    between atoms: C5_7  and  N1_8 
REMARK    5  A    between atoms: N1_8  and  C6_11 
REMARK    6  A    between atoms: C6_11  and  C7_12 
REMARK    7  A    between atoms: C7_12  and  N2_13 
REMARK    8  A    between atoms: N2_13  and  C8_15 
ROOT
HETATM    1  C1  UNL     1      83.206  21.810  -0.480  1.00  0.00     0.013 C 
HETATM    2  C2  UNL     1      82.839  20.937   0.277  1.00  0.00    -0.105 C 
HETATM    3  C3  UNL     1      82.405  19.864   1.176  1.00  0.00     0.201 C 
ENDROOT
BRANCH   3   4
HETATM    4  S1  UNL     1      81.189  18.882   0.342  1.00  0.00     0.027 S 
HETATM    5  O1  UNL     1      80.766  17.605   1.380  1.00  0.00    -0.257 OA
BRANCH   4   6
HETATM    6  C4  UNL     1      79.760  19.818  -0.079  1.00  0.00     0.137 C 
BRANCH   6   7
HETATM    7  C5  UNL     1      79.234  20.487   1.202  1.00  0.00     0.245 C 
BRANCH   7   8
HETATM    8  N1  UNL     1      79.284  21.912   1.082  1.00  0.00    -0.073 N 
ATOM      9  H12 UNL     1      79.683  22.214   0.193  1.00  0.00     0.277 HD
ATOM     10  H11 UNL     1      78.359  22.326   0.971  1.00  0.00     0.277 HD
BRANCH   8  11
HETATM   11  C6  UNL     1      79.998  22.451   2.220  1.00  0.00     0.251 C 
BRANCH  11  12
HETATM   12  C7  UNL     1      80.073  23.990   2.074  1.00  0.00     0.141 C 
BRANCH  12  13
HETATM   13  N2  UNL     1      80.195  24.571   3.352  1.00  0.00    -0.415 N 
ATOM     14  H2  UNL     1      79.495  24.380   4.069  1.00  0.00     0.153 HD
BRANCH  13  15
HETATM   15  C8  UNL     1      81.278  25.410   3.635  1.00  0.00     0.076 C 
HETATM   16  C9  UNL     1      81.651  26.378   2.529  1.00  0.00     0.024 C 
HETATM   17  C10 UNL     1      82.879  27.030   3.166  1.00  0.00     0.002 C 
HETATM   18  C11 UNL     1      83.648  25.806   3.641  1.00  0.00     0.002 C 
HETATM   19  C12 UNL     1      82.598  24.706   3.838  1.00  0.00     0.024 C 
ENDBRANCH  13  15
ENDBRANCH  12  13
ENDBRANCH  11  12
ENDBRANCH   8  11
ENDBRANCH   7   8
ENDBRANCH   6   7
ENDBRANCH   4   6
ENDBRANCH   3   4
TORSDOF 8
ENDMDL
MODEL 3
REMARK VINA RESULT: -5.744691672      1.119      1.329
REMARK  8 active torsions:
REMARK  status: ('A' for Active; 'I' for Inactive)
REMARK    1  A    between atoms: C3_3  and  S1_4 
REMARK    2  A    between atoms: S1_4  and  C4_6 
REMARK    3  A    between atoms: C4_6  and  C5_7 
REMARK    4  A    between atoms: C5_7  and  N1_8 
REMARK    5  A    between atoms: N1_8  and  C6_11 
REMARK    6  A    between atoms: C6_11  and  C7_12 
REMARK    7  A    between atoms: C7_12  and  N2_13 
REMARK    8  A    between atoms: N2_13  and  C8_15 
ROOT
HETATM    1  C1  UNL     1      80.422  16.022  -0.097  1.00  0.00     0.013 C 
HETATM    2  C2  UNL     1      80.173  17.066  -0.661  1.00  0.00    -0.105 C 
HETATM    3  C3  UNL     1      79.897  18.336  -1.339  1.00  0.00     0.201 C 
ENDROOT
BRANCH   3   4
HETATM    4  S1  UNL     1      80.050  19.652  -0.163  1.00  0.00     0.027 S 
HETATM    5  O1  UNL     1      78.565  19.781   0.652  1.00  0.00    -0.257 OA
BRANCH   4   6
HETATM    6  C4  UNL     1      81.348  19.360   0.988  1.00  0.00     0.137 C 
BRANCH   6   7
HETATM    7  C5  UNL     1      81.757  20.711   1.598  1.00  0.00     0.245 C 
BRANCH   7   8
HETATM    8  N1  UNL     1      80.807  21.725   1.255  1.00  0.00    -0.073 N 
ATOM      9  H12 UNL     1      81.191  22.418   0.613  1.00  0.00     0.277 HD
ATOM     10  H11 UNL     1      80.061  21.373   0.656  1.00  0.00     0.277 HD
BRANCH   8  11
HETATM   11  C6  UNL     1      80.302  22.322   2.474  1.00  0.00     0.251 C 
BRANCH  11  12
HETATM   12  C7  UNL     1      79.686  23.699   2.133  1.00  0.00     0.141 C 
BRANCH  12  13
HETATM   13  N2  UNL     1      80.118  24.648   3.082  1.00  0.00    -0.415 N 
ATOM     14  H2  UNL     1      79.465  25.008   3.777  1.00  0.00     0.153 HD
BRANCH  13  15
HETATM   15  C8  UNL     1      81.444  25.093   3.067  1.00  0.00     0.076 C 
HETATM   16  C9  UNL     1      82.164  25.022   4.399  1.00  0.00     0.024 C 
HETATM   17  C10 UNL     1      83.500  25.649   3.999  1.00  0.00     0.002 C 
HETATM   18  C11 UNL     1      83.032  26.887   3.250  1.00  0.00     0.002 C 
HETATM   19  C12 UNL     1      81.626  26.554   2.736  1.00  0.00     0.024 C 
ENDBRANCH  13  15
ENDBRANCH  12  13
ENDBRANCH  11  12
ENDBRANCH   8  11
ENDBRANCH   7   8
ENDBRANCH   6   7
ENDBRANCH   4   6
ENDBRANCH   3   4
TORSDOF 8
ENDMDL
MODEL 4
REMARK VINA RESULT: -5.743481251      0.719      1.212
REMARK  8 active torsions:
REMARK  status: ('A' for Active; 'I' for Inactive)
REMARK    1  A    between atoms: C3_3  and  S1_4 
REMARK    2  A    between atoms: S1_4  and  C4_6 
REMARK    3  A    between atoms: C4_6  and  C5_7 
REMARK    4  A    between atoms: C5_7  and  N1_8 
REMARK    5  A    between atoms: N1_8  and  C6_11 
REMARK    6  A    between atoms: C6_11  and  C7_12 
REMARK    7  A    between atoms: C7_12  and  N2_13 
REMARK    8  A    between atoms: N2_13  and  C8_15 
ROOT
HETATM    1  C1  UNL     1      80.401  16.071  -0.146  1.00  0.00     0.013 C 
HETATM    2  C2  UNL     1      80.086  17.107  -0.690  1.00  0.00    -0.105 C 
HETATM    3  C3  UNL     1      79.731  18.369  -1.345  1.00  0.00     0.201 C 
ENDROOT
BRANCH   3   4
HETATM    4  S1  UNL     1      79.890  19.684  -0.168  1.00  0.00     0.027 S 
HETATM    5  O1  UNL     1      78.446  19.745   0.725  1.00  0.00    -0.257 OA
BRANCH   4   6
HETATM    6  C4  UNL     1      81.258  19.441   0.911  1.00  0.00     0.137 C 
BRANCH   6   7
HETATM    7  C5  UNL     1      81.381  20.681   1.811  1.00  0.00     0.245 C 
BRANCH   7   8
HETATM    8  N1  UNL     1      80.600  21.760   1.290  1.00  0.00    -0.073 N 
ATOM      9  H12 UNL     1      81.144  22.382   0.692  1.00  0.00     0.277 HD
ATOM     10  H11 UNL     1      79.923  21.450   0.593  1.00  0.00     0.277 HD
BRANCH   8  11
HETATM   11  C6  UNL     1      79.975  22.460   2.393  1.00  0.00     0.251 C 
BRANCH  11  12
HETATM   12  C7  UNL     1      79.695  23.918   1.960  1.00  0.00     0.141 C 
BRANCH  12  13
HETATM   13  N2  UNL     1      80.564  24.783   2.654  1.00  0.00    -0.415 N 
ATOM     14  H2  UNL     1      80.597  24.764   3.674  1.00  0.00     0.153 HD
BRANCH  13  15
HETATM   15  C8  UNL     1      81.383  25.667   1.942  1.00  0.00     0.076 C 
HETATM   16  C9  UNL     1      82.739  25.116   1.548  1.00  0.00     0.024 C 
HETATM   17  C10 UNL     1      83.337  26.360   0.891  1.00  0.00     0.002 C 
HETATM   18  C11 UNL     1      83.022  27.423   1.931  1.00  0.00     0.002 C 
HETATM   19  C12 UNL     1      81.800  26.904   2.699  1.00  0.00     0.024 C 
ENDBRANCH  13  15
ENDBRANCH  12  13
ENDBRANCH  11  12
ENDBRANCH   8  11
ENDBRANCH   7   8
ENDBRANCH   6   7
ENDBRANCH   4   6
ENDBRANCH   3   4
TORSDOF 8
ENDMDL
MODEL 5
REMARK VINA RESULT: -5.640446798      1.516      1.854
REMARK  8 active torsions:
REMARK  status: ('A' for Active; 'I' for Inactive)
REMARK    1  A    between atoms: C3_3  and  S1_4 
REMARK    2  A    between atoms: S1_4  and  C4_6 
REMARK    3  A    between atoms: C4_6  and  C5_7 
REMARK    4  A    between atoms: C5_7  and  N1_8 
REMARK    5  A    between atoms: N1_8  and  C6_11 
REMARK    6  A    between atoms: C6_11  and  C7_12 
REMARK    7  A    between atoms: C7_12  and  N2_13 
REMARK    8  A    between atoms: N2_13  and  C8_15 
ROOT
HETATM    1  C1  UNL     1      80.422  17.893  -1.980  1.00  0.00     0.013 C 
HETATM    2  C2  UNL     1      80.763  17.933  -0.817  1.00  0.00    -0.105 C 
HETATM    3  C3  UNL     1      81.150  17.983   0.596  1.00  0.00     0.201 C 
ENDROOT
BRANCH   3   4
HETATM    4  S1  UNL     1      80.753  19.586   1.236  1.00  0.00     0.027 S 
HETATM    5  O1  UNL     1      80.410  19.404   2.890  1.00  0.00    -0.257 OA
BRANCH   4   6
HETATM    6  C4  UNL     1      82.072  20.730   1.014  1.00  0.00     0.137 C 
BRANCH   6   7
HETATM    7  C5  UNL     1      81.548  22.134   1.358  1.00  0.00     0.245 C 
BRANCH   7   8
HETATM    8  N1  UNL     1      80.117  22.143   1.388  1.00  0.00    -0.073 N 
ATOM      9  H12 UNL     1      79.707  21.966   0.471  1.00  0.00     0.277 HD
ATOM     10  H11 UNL     1      79.733  21.333   1.874  1.00  0.00     0.277 HD
BRANCH   8  11
HETATM   11  C6  UNL     1      79.670  23.395   1.962  1.00  0.00     0.251 C 
BRANCH  11  12
HETATM   12  C7  UNL     1      80.447  23.643   3.276  1.00  0.00     0.141 C 
BRANCH  12  13
HETATM   13  N2  UNL     1      80.419  25.019   3.579  1.00  0.00    -0.415 N 
ATOM     14  H2  UNL     1      79.526  25.494   3.715  1.00  0.00     0.153 HD
BRANCH  13  15
HETATM   15  C8  UNL     1      81.618  25.732   3.692  1.00  0.00     0.076 C 
HETATM   16  C9  UNL     1      81.842  26.792   2.631  1.00  0.00     0.024 C 
HETATM   17  C10 UNL     1      83.238  27.265   3.036  1.00  0.00     0.002 C 
HETATM   18  C11 UNL     1      83.961  25.938   3.205  1.00  0.00     0.002 C 
HETATM   19  C12 UNL     1      82.871  24.908   3.524  1.00  0.00     0.024 C 
ENDBRANCH  13  15
ENDBRANCH  12  13
ENDBRANCH  11  12
ENDBRANCH   8  11
ENDBRANCH   7   8
ENDBRANCH   6   7
ENDBRANCH   4   6
ENDBRANCH   3   4
TORSDOF 8
ENDMDL
