MODEL 1
REMARK VINA RESULT: -5.494657441      0.000      0.000
REMARK  12 active torsions:
REMARK  status: ('A' for Active; 'I' for Inactive)
REMARK    1  A    between atoms: C2_2  and  C3_3 
REMARK    2  A    between atoms: C3_3  and  N1_4 
REMARK    3  A    between atoms: N1_4  and  C5_6 
REMARK    4  A    between atoms: C5_6  and  C6_7 
REMARK    5  A    between atoms: C8_9  and  C9_10 
REMARK    6  A    between atoms: C8_9  and  C10_13 
REMARK    7  A    between atoms: C9_10  and  O1_11 
REMARK    8  A    between atoms: C10_13  and  O2_14 
REMARK    9  A    between atoms: C10_13  and  C11_16 
REMARK   10  A    between atoms: C11_16  and  C12_17 
REMARK   11  A    between atoms: C12_17  and  N2_18 
REMARK   12  A    between atoms: N2_18  and  N3_19 
ROOT
HETATM    1  C6  UNL     1      82.229  21.900   2.766  1.00  0.00     0.016 C 
HETATM    2  C7  UNL     1      80.857  21.280   3.055  1.00  0.00     0.020 C 
HETATM    3  C8  UNL     1      80.826  20.926   1.588  1.00  0.00     0.008 C 
HETATM    4  C13 UNL     1      81.691  22.193   1.422  1.00  0.00     0.020 C 
ENDROOT
BRANCH   3   5
HETATM    5  C9  UNL     1      79.471  21.062   0.935  1.00  0.00     0.176 C 
BRANCH   5   6
HETATM    6  O1  UNL     1      78.598  20.090   1.432  1.00  0.00    -0.400 OA
ATOM      7  H1  UNL     1      78.210  19.602   0.714  1.00  0.00     0.209 HD
ENDBRANCH   5   6
ENDBRANCH   3   5
BRANCH   3   8
HETATM    8  C10 UNL     1      81.496  19.634   1.319  1.00  0.00     0.134 C 
BRANCH   8   9
HETATM    9  O2  UNL     1      80.770  18.619   1.993  1.00  0.00    -0.394 OA
ATOM     10  H2  UNL     1      81.106  17.779   1.702  1.00  0.00     0.210 HD
ENDBRANCH   8   9
BRANCH   8  11
HETATM   11  C11 UNL     1      81.433  19.231  -0.149  1.00  0.00     0.094 C 
BRANCH  11  12
HETATM   12  C12 UNL     1      80.893  17.851  -0.215  1.00  0.00     0.183 C 
BRANCH  12  13
HETATM   13  N2  UNL     1      79.675  17.683  -0.436  1.00  0.00    -0.350 NA
BRANCH  13  14
HETATM   14  N3  UNL     1      78.491  17.797  -0.812  1.00  0.00    -0.281 N 
ATOM     15  H32 UNL     1      78.669  18.682  -1.288  1.00  0.00     0.191 HD
ATOM     16  H31 UNL     1      77.497  17.661  -0.992  1.00  0.00     0.191 HD
ENDBRANCH  13  14
ENDBRANCH  12  13
ENDBRANCH  11  12
ENDBRANCH   8  11
ENDBRANCH   3   8
BRANCH   1  17
HETATM   17  C5  UNL     1      82.595  22.949   3.725  1.00  0.00     0.277 C 
BRANCH  17  18
HETATM   18  N1  UNL     1      83.072  24.204   3.264  1.00  0.00     0.087 N 
HETATM   19  C4  UNL     1      84.348  24.564   3.944  1.00  0.00     0.310 C 
BRANCH  18  20
HETATM   20  C3  UNL     1      82.155  25.212   3.880  1.00  0.00     0.298 C 
BRANCH  20  21
HETATM   21  C2  UNL     1      81.590  26.126   2.871  1.00  0.00    -0.007 C 
HETATM   22  C1  UNL     1      82.209  27.246   2.528  1.00  0.00     0.008 C 
ENDBRANCH  20  21
ENDBRANCH  18  20
ENDBRANCH  17  18
ENDBRANCH   1  17
TORSDOF 12
ENDMDL
MODEL 2
REMARK VINA RESULT: -5.430410957      1.022      1.219
REMARK  12 active torsions:
REMARK  status: ('A' for Active; 'I' for Inactive)
REMARK    1  A    between atoms: C2_2  and  C3_3 
REMARK    2  A    between atoms: C3_3  and  N1_4 
REMARK    3  A    between atoms: N1_4  and  C5_6 
REMARK    4  A    between atoms: C5_6  and  C6_7 
REMARK    5  A    between atoms: C8_9  and  C9_10 
REMARK    6  A    between atoms: C8_9  and  C10_13 
REMARK    7  A    between atoms: C9_10  and  O1_11 
REMARK    8  A    between atoms: C10_13  and  O2_14 
REMARK    9  A    between atoms: C10_13  and  C11_16 
REMARK   10  A    between atoms: C11_16  and  C12_17 
REMARK   11  A    between atoms: C12_17  and  N2_18 
REMARK   12  A    between atoms: N2_18  and  N3_19 
ROOT
HETATM    1  C6  UNL     1      82.478  21.243   2.419  1.00  0.00     0.016 C 
HETATM    2  C7  UNL     1      81.025  20.811   2.648  1.00  0.00     0.020 C 
HETATM    3  C8  UNL     1      81.042  20.360   1.208  1.00  0.00     0.008 C 
HETATM    4  C13 UNL     1      82.065  21.501   1.024  1.00  0.00     0.020 C 
ENDROOT
BRANCH   3   5
HETATM    5  C9  UNL     1      79.757  20.608   0.454  1.00  0.00     0.176 C 
BRANCH   5   6
HETATM    6  O1  UNL     1      78.718  19.862   1.015  1.00  0.00    -0.400 OA
ATOM      7  H1  UNL     1      78.053  19.684   0.360  1.00  0.00     0.209 HD
ENDBRANCH   5   6
ENDBRANCH   3   5
BRANCH   3   8
HETATM    8  C10 UNL     1      81.565  18.982   1.069  1.00  0.00     0.134 C 
BRANCH   8   9
HETATM    9  O2  UNL     1      80.729  18.122   1.826  1.00  0.00    -0.394 OA
ATOM     10  H2  UNL     1      79.836  18.437   1.742  1.00  0.00     0.210 HD
ENDBRANCH   8   9
BRANCH   8  11
HETATM   11  C11 UNL     1      81.458  18.452  -0.356  1.00  0.00     0.094 C 
BRANCH  11  12
HETATM   12  C12 UNL     1      80.726  17.163  -0.305  1.00  0.00     0.183 C 
BRANCH  12  13
HETATM   13  N2  UNL     1      79.492  17.155  -0.495  1.00  0.00    -0.350 NA
BRANCH  13  14
HETATM   14  N3  UNL     1      78.316  17.448  -0.788  1.00  0.00    -0.281 N 
ATOM     15  H32 UNL     1      78.261  18.176  -0.076  1.00  0.00     0.191 HD
ATOM     16  H31 UNL     1      77.387  17.496  -1.206  1.00  0.00     0.191 HD
ENDBRANCH  13  14
ENDBRANCH  12  13
ENDBRANCH  11  12
ENDBRANCH   8  11
ENDBRANCH   3   8
BRANCH   1  17
HETATM   17  C5  UNL     1      82.909  22.306   3.334  1.00  0.00     0.277 C 
BRANCH  17  18
HETATM   18  N1  UNL     1      83.007  23.646   2.876  1.00  0.00     0.087 N 
HETATM   19  C4  UNL     1      84.027  24.397   3.660  1.00  0.00     0.310 C 
BRANCH  18  20
HETATM   20  C3  UNL     1      81.760  24.310   3.366  1.00  0.00     0.298 C 
BRANCH  20  21
HETATM   21  C2  UNL     1      80.902  24.753   2.253  1.00  0.00    -0.007 C 
HETATM   22  C1  UNL     1      79.766  24.136   1.966  1.00  0.00     0.008 C 
ENDBRANCH  20  21
ENDBRANCH  18  20
ENDBRANCH  17  18
ENDBRANCH   1  17
TORSDOF 12
ENDMDL
MODEL 3
REMARK VINA RESULT: -5.100358036      1.263      1.424
REMARK  12 active torsions:
REMARK  status: ('A' for Active; 'I' for Inactive)
REMARK    1  A    between atoms: C2_2  and  C3_3 
REMARK    2  A    between atoms: C3_3  and  N1_4 
REMARK    3  A    between atoms: N1_4  and  C5_6 
REMARK    4  A    between atoms: C5_6  and  C6_7 
REMARK    5  A    between atoms: C8_9  and  C9_10 
REMARK    6  A    between atoms: C8_9  and  C10_13 
REMARK    7  A    between atoms: C9_10  and  O1_11 
REMARK    8  A    between atoms: C10_13  and  O2_14 
REMARK    9  A    between atoms: C10_13  and  C11_16 
REMARK   10  A    between atoms: C11_16  and  C12_17 
REMARK   11  A    between atoms: C12_17  and  N2_18 
REMARK   12  A    between atoms: N2_18  and  N3_19 
ROOT
HETATM    1  C6  UNL     1      83.024  21.424   2.206  1.00  0.00     0.016 C 
HETATM    2  C7  UNL     1      81.731  21.001   2.914  1.00  0.00     0.020 C 
HETATM    3  C8  UNL     1      81.158  20.818   1.530  1.00  0.00     0.008 C 
HETATM    4  C13 UNL     1      82.141  21.943   1.142  1.00  0.00     0.020 C 
ENDROOT
BRANCH   3   5
HETATM    5  C9  UNL     1      79.714  21.237   1.386  1.00  0.00     0.176 C 
BRANCH   5   6
HETATM    6  O1  UNL     1      78.894  20.413   2.160  1.00  0.00    -0.400 OA
ATOM      7  H1  UNL     1      78.423  20.931   2.803  1.00  0.00     0.209 HD
ENDBRANCH   5   6
ENDBRANCH   3   5
BRANCH   3   8
HETATM    8  C10 UNL     1      81.451  19.473   0.986  1.00  0.00     0.134 C 
BRANCH   8   9
HETATM    9  O2  UNL     1      80.787  18.521   1.800  1.00  0.00    -0.394 OA
ATOM     10  H2  UNL     1      81.443  18.085   2.332  1.00  0.00     0.210 HD
ENDBRANCH   8   9
BRANCH   8  11
HETATM   11  C11 UNL     1      80.863  19.258  -0.403  1.00  0.00     0.094 C 
BRANCH  11  12
HETATM   12  C12 UNL     1      81.082  17.838  -0.771  1.00  0.00     0.183 C 
BRANCH  12  13
HETATM   13  N2  UNL     1      80.746  17.444  -1.907  1.00  0.00    -0.350 NA
BRANCH  13  14
HETATM   14  N3  UNL     1      80.365  17.366  -3.092  1.00  0.00    -0.281 N 
ATOM     15  H32 UNL     1      80.520  16.359  -3.135  1.00  0.00     0.191 HD
ATOM     16  H31 UNL     1      80.020  17.564  -4.032  1.00  0.00     0.191 HD
ENDBRANCH  13  14
ENDBRANCH  12  13
ENDBRANCH  11  12
ENDBRANCH   8  11
ENDBRANCH   3   8
BRANCH   1  17
HETATM   17  C5  UNL     1      83.871  22.290   3.034  1.00  0.00     0.277 C 
BRANCH  17  18
HETATM   18  N1  UNL     1      83.744  23.702   2.952  1.00  0.00     0.087 N 
HETATM   19  C4  UNL     1      85.078  24.357   3.060  1.00  0.00     0.310 C 
BRANCH  18  20
HETATM   20  C3  UNL     1      83.146  24.109   4.261  1.00  0.00     0.298 C 
BRANCH  20  21
HETATM   21  C2  UNL     1      81.987  25.001   4.079  1.00  0.00    -0.007 C 
HETATM   22  C1  UNL     1      80.872  24.579   3.502  1.00  0.00     0.008 C 
ENDBRANCH  20  21
ENDBRANCH  18  20
ENDBRANCH  17  18
ENDBRANCH   1  17
TORSDOF 12
ENDMDL
MODEL 4
REMARK VINA RESULT: -5.095291275      1.757      2.342
REMARK  12 active torsions:
REMARK  status: ('A' for Active; 'I' for Inactive)
REMARK    1  A    between atoms: C2_2  and  C3_3 
REMARK    2  A    between atoms: C3_3  and  N1_4 
REMARK    3  A    between atoms: N1_4  and  C5_6 
REMARK    4  A    between atoms: C5_6  and  C6_7 
REMARK    5  A    between atoms: C8_9  and  C9_10 
REMARK    6  A    between atoms: C8_9  and  C10_13 
REMARK    7  A    between atoms: C9_10  and  O1_11 
REMARK    8  A    between atoms: C10_13  and  O2_14 
REMARK    9  A    between atoms: C10_13  and  C11_16 
REMARK   10  A    between atoms: C11_16  and  C12_17 
REMARK   11  A    between atoms: C12_17  and  N2_18 
REMARK   12  A    between atoms: N2_18  and  N3_19 
ROOT
HETATM    1  C6  UNL     1      79.859  22.465   1.572  1.00  0.00     0.016 C 
HETATM    2  C7  UNL     1      81.176  21.679   1.560  1.00  0.00     0.020 C 
HETATM    3  C8  UNL     1      80.323  20.457   1.327  1.00  0.00     0.008 C 
HETATM    4  C13 UNL     1      79.259  21.236   2.130  1.00  0.00     0.020 C 
ENDROOT
BRANCH   3   5
HETATM    5  C9  UNL     1      80.793  19.214   2.044  1.00  0.00     0.176 C 
BRANCH   5   6
HETATM    6  O1  UNL     1      82.002  18.773   1.501  1.00  0.00    -0.400 OA
ATOM      7  H1  UNL     1      82.551  18.403   2.183  1.00  0.00     0.209 HD
ENDBRANCH   5   6
ENDBRANCH   3   5
BRANCH   3   8
HETATM    8  C10 UNL     1      80.037  20.250  -0.111  1.00  0.00     0.134 C 
BRANCH   8   9
HETATM    9  O2  UNL     1      81.274  20.044  -0.774  1.00  0.00    -0.394 OA
ATOM     10  H2  UNL     1      81.347  19.117  -0.971  1.00  0.00     0.210 HD
ENDBRANCH   8   9
BRANCH   8  11
HETATM   11  C11 UNL     1      79.249  18.975  -0.378  1.00  0.00     0.094 C 
BRANCH  11  12
HETATM   12  C12 UNL     1      80.042  18.141  -1.315  1.00  0.00     0.183 C 
BRANCH  12  13
HETATM   13  N2  UNL     1      80.627  17.127  -0.881  1.00  0.00    -0.350 NA
BRANCH  13  14
HETATM   14  N3  UNL     1      81.029  16.171  -0.188  1.00  0.00    -0.281 N 
ATOM     15  H32 UNL     1      81.692  15.861  -0.899  1.00  0.00     0.191 HD
ATOM     16  H31 UNL     1      81.180  15.484   0.550  1.00  0.00     0.191 HD
ENDBRANCH  13  14
ENDBRANCH  12  13
ENDBRANCH  11  12
ENDBRANCH   8  11
ENDBRANCH   3   8
BRANCH   1  17
HETATM   17  C5  UNL     1      79.951  23.722   2.324  1.00  0.00     0.277 C 
BRANCH  17  18
HETATM   18  N1  UNL     1      81.219  24.240   2.697  1.00  0.00     0.087 N 
HETATM   19  C4  UNL     1      81.160  24.849   4.055  1.00  0.00     0.310 C 
BRANCH  18  20
HETATM   20  C3  UNL     1      81.389  25.472   1.866  1.00  0.00     0.298 C 
BRANCH  20  21
HETATM   21  C2  UNL     1      81.839  26.619   2.674  1.00  0.00    -0.007 C 
HETATM   22  C1  UNL     1      82.662  27.533   2.182  1.00  0.00     0.008 C 
ENDBRANCH  20  21
ENDBRANCH  18  20
ENDBRANCH  17  18
ENDBRANCH   1  17
TORSDOF 12
ENDMDL
MODEL 5
REMARK VINA RESULT: -5.078879828      3.342      4.030
REMARK  12 active torsions:
REMARK  status: ('A' for Active; 'I' for Inactive)
REMARK    1  A    between atoms: C2_2  and  C3_3 
REMARK    2  A    between atoms: C3_3  and  N1_4 
REMARK    3  A    between atoms: N1_4  and  C5_6 
REMARK    4  A    between atoms: C5_6  and  C6_7 
REMARK    5  A    between atoms: C8_9  and  C9_10 
REMARK    6  A    between atoms: C8_9  and  C10_13 
REMARK    7  A    between atoms: C9_10  and  O1_11 
REMARK    8  A    between atoms: C10_13  and  O2_14 
REMARK    9  A    between atoms: C10_13  and  C11_16 
REMARK   10  A    between atoms: C11_16  and  C12_17 
REMARK   11  A    between atoms: C12_17  and  N2_18 
REMARK   12  A    between atoms: N2_18  and  N3_19 
ROOT
HETATM    1  C6  UNL     1      83.603  20.221   0.668  1.00  0.00     0.016 C 
HETATM    2  C7  UNL     1      82.623  20.121   1.844  1.00  0.00     0.020 C 
HETATM    3  C8  UNL     1      81.535  20.102   0.799  1.00  0.00     0.008 C 
HETATM    4  C13 UNL     1      82.524  20.954  -0.025  1.00  0.00     0.020 C 
ENDROOT
BRANCH   3   5
HETATM    5  C9  UNL     1      80.287  20.866   1.174  1.00  0.00     0.176 C 
BRANCH   5   6
HETATM    6  O1  UNL     1      79.644  20.241   2.245  1.00  0.00    -0.400 OA
ATOM      7  H1  UNL     1      79.452  20.875   2.926  1.00  0.00     0.209 HD
ENDBRANCH   5   6
ENDBRANCH   3   5
BRANCH   3   8
HETATM    8  C10 UNL     1      81.275  18.733   0.299  1.00  0.00     0.134 C 
BRANCH   8   9
HETATM    9  O2  UNL     1      80.801  17.957   1.387  1.00  0.00    -0.394 OA
ATOM     10  H2  UNL     1      81.521  17.418   1.695  1.00  0.00     0.210 HD
ENDBRANCH   8   9
BRANCH   8  11
HETATM   11  C11 UNL     1      80.144  18.683  -0.721  1.00  0.00     0.094 C 
BRANCH  11  12
HETATM   12  C12 UNL     1      80.426  17.563  -1.652  1.00  0.00     0.183 C 
BRANCH  12  13
HETATM   13  N2  UNL     1      80.618  16.419  -1.190  1.00  0.00    -0.350 NA
BRANCH  13  14
HETATM   14  N3  UNL     1      80.565  15.360  -0.533  1.00  0.00    -0.281 N 
ATOM     15  H32 UNL     1      79.664  15.094  -0.929  1.00  0.00     0.191 HD
ATOM     16  H31 UNL     1      80.755  14.580   0.095  1.00  0.00     0.191 HD
ENDBRANCH  13  14
ENDBRANCH  12  13
ENDBRANCH  11  12
ENDBRANCH   8  11
ENDBRANCH   3   8
BRANCH   1  17
HETATM   17  C5  UNL     1      84.880  20.841   1.039  1.00  0.00     0.277 C 
BRANCH  17  18
HETATM   18  N1  UNL     1      86.083  20.091   0.977  1.00  0.00     0.087 N 
HETATM   19  C4  UNL     1      86.525  19.692   2.343  1.00  0.00     0.310 C 
BRANCH  18  20
HETATM   20  C3  UNL     1      87.142  21.092   0.642  1.00  0.00     0.298 C 
BRANCH  20  21
HETATM   21  C2  UNL     1      86.735  21.967  -0.472  1.00  0.00    -0.007 C 
HETATM   22  C1  UNL     1      87.590  22.800  -1.046  1.00  0.00     0.008 C 
ENDBRANCH  20  21
ENDBRANCH  18  20
ENDBRANCH  17  18
ENDBRANCH   1  17
TORSDOF 12
ENDMDL
