MODEL 1
REMARK VINA RESULT: -3.175455461      0.000      0.000
REMARK  3 active torsions:
REMARK  status: ('A' for Active; 'I' for Inactive)
REMARK       I    between atoms: C1_4  and  N3_6 
REMARK    1  A    between atoms: N3_6  and  N4_8 
REMARK    2  A    between atoms: C8_24  and  N8_25 
REMARK       I    between atoms: N8_25  and  C9_27 
REMARK       I    between atoms: C9_27  and  N9_28 
REMARK       I    between atoms: C9_27  and  N10_32 
REMARK    3  A    between atoms: C10_37  and  C11_38 
ROOT
HETATM    1  N4  UNL     1      29.188  51.675   7.947  1.00  0.00    -0.284 N 
ATOM      2  H4  UNL     1      28.206  51.566   7.695  1.00  0.00     0.188 HD
HETATM    3  C2  UNL     1      29.419  51.921   9.189  1.00  0.00     0.129 C 
HETATM    4  N5  UNL     1      28.347  52.029  10.118  1.00  0.00    -0.367 N 
ATOM      5  H5  UNL     1      27.649  51.285  10.091  1.00  0.00     0.161 HD
HETATM    6  C3  UNL     1      28.139  53.059  11.083  1.00  0.00     0.223 C 
HETATM    7  C4  UNL     1      28.521  52.701  12.464  1.00  0.00     0.235 C 
HETATM    8  O1  UNL     1      28.503  51.483  12.800  1.00  0.00    -0.272 OA
HETATM    9  N6  UNL     1      28.894  53.731  13.363  1.00  0.00    -0.358 N 
ATOM     10  H6  UNL     1      29.170  53.470  14.310  1.00  0.00     0.162 HD
HETATM   11  C5  UNL     1      28.903  55.132  13.006  1.00  0.00     0.142 C 
HETATM   12  C6  UNL     1      30.264  55.622  12.555  1.00  0.00     0.142 C 
HETATM   13  N7  UNL     1      31.285  54.779  13.115  1.00  0.00    -0.356 N 
ATOM     14  H7  UNL     1      31.571  54.972  14.075  1.00  0.00     0.162 HD
HETATM   15  C7  UNL     1      31.921  53.715  12.460  1.00  0.00     0.266 C 
HETATM   16  O2  UNL     1      32.439  52.773  13.160  1.00  0.00    -0.269 OA
HETATM   17  C8  UNL     1      31.996  53.672  10.979  1.00  0.00     0.314 C 
HETATM   18  O3  UNL     1      30.840  53.155  10.488  1.00  0.00    -0.338 OA
HETATM   19  C10 UNL     1      30.854  52.091   9.660  1.00  0.00     0.254 C 
ENDROOT
BRANCH  17  20
HETATM   20  N8  UNL     1      33.215  53.208  10.426  1.00  0.00    -0.341 N 
HETATM   21  C9  UNL     1      33.256  53.118   8.990  1.00  0.00     0.478 C 
HETATM   22  N9  UNL     1      34.545  52.611   8.530  1.00  0.00    -0.033 N 
HETATM   23  N10 UNL     1      33.039  54.366   8.307  1.00  0.00    -0.033 N 
ATOM     24  H93 UNL     1      35.318  53.169   8.893  1.00  0.00     0.278 HD
ATOM     25  H92 UNL     1      34.776  51.720   8.969  1.00  0.00     0.278 HD
ATOM     26  H91 UNL     1      34.574  52.548   7.513  1.00  0.00     0.278 HD
ATOM     27 3H10 UNL     1      32.163  54.790   8.612  1.00  0.00     0.278 HD
ATOM     28 2H10 UNL     1      33.699  55.070   8.637  1.00  0.00     0.278 HD
ATOM     29 1H10 UNL     1      33.068  54.302   7.289  1.00  0.00     0.278 HD
ATOM     30  H8  UNL     1      34.013  52.954  11.008  1.00  0.00     0.160 HD
ENDBRANCH  17  20
BRANCH  19  31
HETATM   31  C11 UNL     1      31.337  50.823  10.240  1.00  0.00     0.270 C 
HETATM   32  O4  UNL     1      32.166  50.172   9.645  1.00  0.00    -0.304 OA
ENDBRANCH  19  31
BRANCH   1  33
HETATM   33  N3  UNL     1      30.077  51.541   6.923  1.00  0.00    -0.272 N 
HETATM   34  C1  UNL     1      30.324  50.273   6.343  1.00  0.00     0.200 C 
HETATM   35  N1  UNL     1      29.680  49.857   5.320  1.00  0.00    -0.372 N 
HETATM   36  N2  UNL     1      31.317  49.449   6.921  1.00  0.00    -0.062 NA
ATOM     37  H12 UNL     1      29.857  48.944   4.902  1.00  0.00     0.158 HD
ATOM     38  H11 UNL     1      28.963  50.452   4.903  1.00  0.00     0.158 HD
ATOM     39  H3  UNL     1      30.571  52.362   6.572  1.00  0.00     0.189 HD
ENDBRANCH   1  33
TORSDOF 3
ENDMDL
MODEL 2
REMARK VINA RESULT: -0.705663777      1.698      6.053
REMARK  3 active torsions:
REMARK  status: ('A' for Active; 'I' for Inactive)
REMARK       I    between atoms: C1_4  and  N3_6 
REMARK    1  A    between atoms: N3_6  and  N4_8 
REMARK    2  A    between atoms: C8_24  and  N8_25 
REMARK       I    between atoms: N8_25  and  C9_27 
REMARK       I    between atoms: C9_27  and  N9_28 
REMARK       I    between atoms: C9_27  and  N10_32 
REMARK    3  A    between atoms: C10_37  and  C11_38 
ROOT
HETATM    1  N4  UNL     1      32.310  55.607  10.708  1.00  0.00    -0.284 N 
ATOM      2  H4  UNL     1      32.740  56.416  10.259  1.00  0.00     0.188 HD
HETATM    3  C2  UNL     1      32.457  54.487  10.093  1.00  0.00     0.129 C 
HETATM    4  N5  UNL     1      33.178  54.421   8.869  1.00  0.00    -0.367 N 
ATOM      5  H5  UNL     1      34.086  54.886   8.854  1.00  0.00     0.161 HD
HETATM    6  C3  UNL     1      32.775  53.778   7.661  1.00  0.00     0.223 C 
HETATM    7  C4  UNL     1      33.402  52.463   7.419  1.00  0.00     0.235 C 
HETATM    8  O1  UNL     1      34.533  52.229   7.933  1.00  0.00    -0.272 OA
HETATM    9  N6  UNL     1      32.719  51.512   6.622  1.00  0.00    -0.358 N 
ATOM     10  H6  UNL     1      33.156  50.602   6.474  1.00  0.00     0.162 HD
HETATM   11  C5  UNL     1      31.435  51.765   6.008  1.00  0.00     0.142 C 
HETATM   12  C6  UNL     1      30.270  51.268   6.838  1.00  0.00     0.142 C 
HETATM   13  N7  UNL     1      30.716  50.208   7.700  1.00  0.00    -0.356 N 
ATOM     14  H7  UNL     1      30.780  49.275   7.294  1.00  0.00     0.162 HD
HETATM   15  C7  UNL     1      31.072  50.342   9.050  1.00  0.00     0.266 C 
HETATM   16  O2  UNL     1      31.872  49.487   9.573  1.00  0.00    -0.269 OA
HETATM   17  C8  UNL     1      30.536  51.458   9.868  1.00  0.00     0.314 C 
HETATM   18  O3  UNL     1      31.291  52.569   9.659  1.00  0.00    -0.338 OA
HETATM   19  C10 UNL     1      31.857  53.225  10.692  1.00  0.00     0.254 C 
ENDROOT
BRANCH  17  20
HETATM   20  N8  UNL     1      30.180  51.143  11.203  1.00  0.00    -0.341 N 
HETATM   21  C9  UNL     1      29.368  52.120  11.881  1.00  0.00     0.478 C 
HETATM   22  N9  UNL     1      29.079  51.705  13.249  1.00  0.00    -0.033 N 
HETATM   23  N10 UNL     1      28.099  52.380  11.255  1.00  0.00    -0.033 N 
ATOM     24  H93 UNL     1      28.653  50.779  13.278  1.00  0.00     0.278 HD
ATOM     25  H92 UNL     1      29.933  51.501  13.768  1.00  0.00     0.278 HD
ATOM     26  H91 UNL     1      28.503  52.398  13.730  1.00  0.00     0.278 HD
ATOM     27 3H10 UNL     1      28.232  52.644  10.279  1.00  0.00     0.278 HD
ATOM     28 2H10 UNL     1      27.579  51.511  11.131  1.00  0.00     0.278 HD
ATOM     29 1H10 UNL     1      27.524  53.072  11.735  1.00  0.00     0.278 HD
ATOM     30  H8  UNL     1      30.479  50.279  11.654  1.00  0.00     0.160 HD
ENDBRANCH  17  20
BRANCH  19  31
HETATM   31  C11 UNL     1      32.897  52.489  11.437  1.00  0.00     0.270 C 
HETATM   32  O4  UNL     1      33.245  52.886  12.527  1.00  0.00    -0.304 OA
ENDBRANCH  19  31
BRANCH   1  33
HETATM   33  N3  UNL     1      31.657  55.861  11.877  1.00  0.00    -0.272 N 
HETATM   34  C1  UNL     1      30.578  55.043  12.294  1.00  0.00     0.200 C 
HETATM   35  N1  UNL     1      30.748  54.033  13.060  1.00  0.00    -0.372 N 
HETATM   36  N2  UNL     1      29.277  55.361  11.842  1.00  0.00    -0.062 NA
ATOM     37  H12 UNL     1      29.971  53.444  13.360  1.00  0.00     0.158 HD
ATOM     38  H11 UNL     1      31.687  53.803  13.386  1.00  0.00     0.158 HD
ATOM     39  H3  UNL     1      31.947  56.647  12.458  1.00  0.00     0.189 HD
ENDBRANCH   1  33
TORSDOF 3
ENDMDL
MODEL 3
REMARK VINA RESULT: 0.197085741      1.884      4.015
REMARK  3 active torsions:
REMARK  status: ('A' for Active; 'I' for Inactive)
REMARK       I    between atoms: C1_4  and  N3_6 
REMARK    1  A    between atoms: N3_6  and  N4_8 
REMARK    2  A    between atoms: C8_24  and  N8_25 
REMARK       I    between atoms: N8_25  and  C9_27 
REMARK       I    between atoms: C9_27  and  N9_28 
REMARK       I    between atoms: C9_27  and  N10_32 
REMARK    3  A    between atoms: C10_37  and  C11_38 
ROOT
HETATM    1  N4  UNL     1      33.748  51.987  10.475  1.00  0.00    -0.284 N 
ATOM      2  H4  UNL     1      34.531  51.769  11.091  1.00  0.00     0.188 HD
HETATM    3  C2  UNL     1      32.731  52.534  11.041  1.00  0.00     0.129 C 
HETATM    4  N5  UNL     1      32.734  52.799  12.438  1.00  0.00    -0.367 N 
ATOM      5  H5  UNL     1      33.562  53.266  12.808  1.00  0.00     0.161 HD
HETATM    6  C3  UNL     1      31.711  52.484  13.382  1.00  0.00     0.223 C 
HETATM    7  C4  UNL     1      30.850  53.622  13.766  1.00  0.00     0.235 C 
HETATM    8  O1  UNL     1      31.324  54.791  13.687  1.00  0.00    -0.272 OA
HETATM    9  N6  UNL     1      29.530  53.367  14.209  1.00  0.00    -0.358 N 
ATOM     10  H6  UNL     1      28.941  54.161  14.457  1.00  0.00     0.162 HD
HETATM   11  C5  UNL     1      28.975  52.037  14.326  1.00  0.00     0.142 C 
HETATM   12  C6  UNL     1      28.188  51.611  13.103  1.00  0.00     0.142 C 
HETATM   13  N7  UNL     1      27.717  52.778  12.408  1.00  0.00    -0.356 N 
ATOM     14  H7  UNL     1      26.866  53.216  12.761  1.00  0.00     0.162 HD
HETATM   15  C7  UNL     1      28.323  53.367  11.289  1.00  0.00     0.266 C 
HETATM   16  O2  UNL     1      28.114  54.609  11.050  1.00  0.00    -0.269 OA
HETATM   17  C8  UNL     1      29.196  52.570  10.393  1.00  0.00     0.314 C 
HETATM   18  O3  UNL     1      30.447  52.515  10.920  1.00  0.00    -0.338 OA
HETATM   19  C10 UNL     1      31.519  52.903  10.200  1.00  0.00     0.254 C 
ENDROOT
BRANCH  17  20
HETATM   20  N8  UNL     1      29.075  52.831   9.005  1.00  0.00    -0.341 N 
HETATM   21  C9  UNL     1      29.644  51.840   8.131  1.00  0.00     0.478 C 
HETATM   22  N9  UNL     1      29.481  52.217   6.730  1.00  0.00    -0.033 N 
HETATM   23  N10 UNL     1      29.076  50.525   8.269  1.00  0.00    -0.033 N 
ATOM     24  H93 UNL     1      28.505  52.401   6.503  1.00  0.00     0.278 HD
ATOM     25  H92 UNL     1      29.863  53.145   6.545  1.00  0.00     0.278 HD
ATOM     26  H91 UNL     1      29.885  51.514   6.110  1.00  0.00     0.278 HD
ATOM     27 3H10 UNL     1      29.129  50.216   9.239  1.00  0.00     0.278 HD
ATOM     28 2H10 UNL     1      28.063  50.561   8.152  1.00  0.00     0.278 HD
ATOM     29 1H10 UNL     1      29.480  49.822   7.649  1.00  0.00     0.278 HD
ATOM     30  H8  UNL     1      28.613  53.668   8.649  1.00  0.00     0.160 HD
ENDBRANCH  17  20
BRANCH  19  31
HETATM   31  C11 UNL     1      31.581  54.335   9.847  1.00  0.00     0.270 C 
HETATM   32  O4  UNL     1      32.452  55.029  10.322  1.00  0.00    -0.304 OA
ENDBRANCH  19  31
BRANCH   1  33
HETATM   33  N3  UNL     1      33.922  51.659   9.163  1.00  0.00    -0.272 N 
HETATM   34  C1  UNL     1      32.823  51.649   8.270  1.00  0.00     0.200 C 
HETATM   35  N1  UNL     1      32.508  52.672   7.569  1.00  0.00    -0.372 N 
HETATM   36  N2  UNL     1      32.057  50.467   8.157  1.00  0.00    -0.062 NA
ATOM     37  H12 UNL     1      31.717  52.664   6.925  1.00  0.00     0.158 HD
ATOM     38  H11 UNL     1      33.061  53.525   7.651  1.00  0.00     0.158 HD
ATOM     39  H3  UNL     1      34.852  51.419   8.822  1.00  0.00     0.189 HD
ENDBRANCH   1  33
TORSDOF 3
ENDMDL
MODEL 4
REMARK VINA RESULT: 0.552157597      2.259      6.218
REMARK  3 active torsions:
REMARK  status: ('A' for Active; 'I' for Inactive)
REMARK       I    between atoms: C1_4  and  N3_6 
REMARK    1  A    between atoms: N3_6  and  N4_8 
REMARK    2  A    between atoms: C8_24  and  N8_25 
REMARK       I    between atoms: N8_25  and  C9_27 
REMARK       I    between atoms: C9_27  and  N9_28 
REMARK       I    between atoms: C9_27  and  N10_32 
REMARK    3  A    between atoms: C10_37  and  C11_38 
ROOT
HETATM    1  N4  UNL     1      30.524  54.275  11.204  1.00  0.00    -0.284 N 
ATOM      2  H4  UNL     1      31.280  54.488  11.855  1.00  0.00     0.188 HD
HETATM    3  C2  UNL     1      30.733  53.280  10.416  1.00  0.00     0.129 C 
HETATM    4  N5  UNL     1      31.953  52.551  10.478  1.00  0.00    -0.367 N 
ATOM      5  H5  UNL     1      32.259  52.260  11.406  1.00  0.00     0.161 HD
HETATM    6  C3  UNL     1      32.796  52.181   9.388  1.00  0.00     0.223 C 
HETATM    7  C4  UNL     1      32.663  50.776   8.950  1.00  0.00     0.235 C 
HETATM    8  O1  UNL     1      32.271  49.916   9.789  1.00  0.00    -0.272 OA
HETATM    9  N6  UNL     1      32.978  50.441   7.610  1.00  0.00    -0.358 N 
ATOM     10  H6  UNL     1      32.868  49.470   7.316  1.00  0.00     0.162 HD
HETATM   11  C5  UNL     1      33.446  51.404   6.640  1.00  0.00     0.142 C 
HETATM   12  C6  UNL     1      32.334  51.974   5.783  1.00  0.00     0.142 C 
HETATM   13  N7  UNL     1      31.237  51.046   5.745  1.00  0.00    -0.356 N 
ATOM     14  H7  UNL     1      31.305  50.274   5.082  1.00  0.00     0.162 HD
HETATM   15  C7  UNL     1      30.082  51.108   6.537  1.00  0.00     0.266 C 
HETATM   16  O2  UNL     1      29.422  50.032   6.763  1.00  0.00    -0.269 OA
HETATM   17  C8  UNL     1      29.626  52.397   7.113  1.00  0.00     0.314 C 
HETATM   18  O3  UNL     1      30.310  52.642   8.262  1.00  0.00    -0.338 OA
HETATM   19  C10 UNL     1      29.658  52.882   9.417  1.00  0.00     0.254 C 
ENDROOT
BRANCH  17  20
HETATM   20  N8  UNL     1      28.227  52.622   7.117  1.00  0.00    -0.341 N 
HETATM   21  C9  UNL     1      27.793  53.871   6.548  1.00  0.00     0.478 C 
HETATM   22  N9  UNL     1      26.342  54.008   6.621  1.00  0.00    -0.033 N 
HETATM   23  N10 UNL     1      28.152  54.054   5.166  1.00  0.00    -0.033 N 
ATOM     24  H93 UNL     1      25.869  53.215   6.190  1.00  0.00     0.278 HD
ATOM     25  H92 UNL     1      26.003  53.893   7.576  1.00  0.00     0.278 HD
ATOM     26  H91 UNL     1      26.035  54.893   6.218  1.00  0.00     0.278 HD
ATOM     27 3H10 UNL     1      29.157  53.937   5.042  1.00  0.00     0.278 HD
ATOM     28 2H10 UNL     1      27.814  53.272   4.605  1.00  0.00     0.278 HD
ATOM     29 1H10 UNL     1      27.845  54.940   4.763  1.00  0.00     0.278 HD
ATOM     30  H8  UNL     1      27.570  51.942   7.498  1.00  0.00     0.160 HD
ENDBRANCH  17  20
BRANCH  19  31
HETATM   31  C11 UNL     1      28.868  51.762   9.963  1.00  0.00     0.270 C 
HETATM   32  O4  UNL     1      28.962  51.481  11.137  1.00  0.00    -0.304 OA
ENDBRANCH  19  31
BRANCH   1  33
HETATM   33  N3  UNL     1      29.430  55.083  11.287  1.00  0.00    -0.272 N 
HETATM   34  C1  UNL     1      28.365  54.770  12.166  1.00  0.00     0.200 C 
HETATM   35  N1  UNL     1      28.311  55.229  13.359  1.00  0.00    -0.372 N 
HETATM   36  N2  UNL     1      27.335  53.920  11.702  1.00  0.00    -0.062 NA
ATOM     37  H12 UNL     1      27.544  55.003  13.992  1.00  0.00     0.158 HD
ATOM     38  H11 UNL     1      29.054  55.842  13.694  1.00  0.00     0.158 HD
ATOM     39  H3  UNL     1      29.377  55.922  10.709  1.00  0.00     0.189 HD
ENDBRANCH   1  33
TORSDOF 3
ENDMDL
MODEL 5
REMARK VINA RESULT: 0.600754980      2.502      3.643
REMARK  3 active torsions:
REMARK  status: ('A' for Active; 'I' for Inactive)
REMARK       I    between atoms: C1_4  and  N3_6 
REMARK    1  A    between atoms: N3_6  and  N4_8 
REMARK    2  A    between atoms: C8_24  and  N8_25 
REMARK       I    between atoms: N8_25  and  C9_27 
REMARK       I    between atoms: C9_27  and  N9_28 
REMARK       I    between atoms: C9_27  and  N10_32 
REMARK    3  A    between atoms: C10_37  and  C11_38 
ROOT
HETATM    1  N4  UNL     1      27.570  53.631   7.900  1.00  0.00    -0.284 N 
ATOM      2  H4  UNL     1      26.875  54.239   8.333  1.00  0.00     0.188 HD
HETATM    3  C2  UNL     1      28.451  53.138   8.698  1.00  0.00     0.129 C 
HETATM    4  N5  UNL     1      28.424  53.446  10.086  1.00  0.00    -0.367 N 
ATOM      5  H5  UNL     1      27.522  53.354  10.552  1.00  0.00     0.161 HD
HETATM    6  C3  UNL     1      29.517  53.869  10.900  1.00  0.00     0.223 C 
HETATM    7  C4  UNL     1      30.105  52.811  11.747  1.00  0.00     0.235 C 
HETATM    8  O1  UNL     1      29.375  51.839  12.093  1.00  0.00    -0.272 OA
HETATM    9  N6  UNL     1      31.460  52.920  12.142  1.00  0.00    -0.358 N 
ATOM     10  H6  UNL     1      31.859  52.176  12.715  1.00  0.00     0.162 HD
HETATM   11  C5  UNL     1      32.308  54.032  11.775  1.00  0.00     0.142 C 
HETATM   12  C6  UNL     1      33.138  53.764  10.536  1.00  0.00     0.142 C 
HETATM   13  N7  UNL     1      33.311  52.346  10.376  1.00  0.00    -0.356 N 
ATOM     14  H7  UNL     1      34.048  51.903  10.924  1.00  0.00     0.162 HD
HETATM   15  C7  UNL     1      32.557  51.517   9.533  1.00  0.00     0.266 C 
HETATM   16  O2  UNL     1      32.469  50.267   9.804  1.00  0.00    -0.269 OA
HETATM   17  C8  UNL     1      31.865  52.073   8.344  1.00  0.00     0.314 C 
HETATM   18  O3  UNL     1      30.674  52.604   8.727  1.00  0.00    -0.338 OA
HETATM   19  C10 UNL     1      29.523  52.213   8.144  1.00  0.00     0.254 C 
ENDROOT
BRANCH  17  20
HETATM   20  N8  UNL     1      31.886  51.273   7.175  1.00  0.00    -0.341 N 
HETATM   21  C9  UNL     1      32.266  51.948   5.962  1.00  0.00     0.478 C 
HETATM   22  N9  UNL     1      32.235  51.038   4.821  1.00  0.00    -0.033 N 
HETATM   23  N10 UNL     1      33.583  52.526   5.988  1.00  0.00    -0.033 N 
ATOM     24  H93 UNL     1      32.808  50.211   4.985  1.00  0.00     0.278 HD
ATOM     25  H92 UNL     1      31.326  50.584   4.728  1.00  0.00     0.278 HD
ATOM     26  H91 UNL     1      32.504  51.517   3.961  1.00  0.00     0.278 HD
ATOM     27 3H10 UNL     1      33.681  53.151   6.788  1.00  0.00     0.278 HD
ATOM     28 2H10 UNL     1      34.277  51.819   6.233  1.00  0.00     0.278 HD
ATOM     29 1H10 UNL     1      33.853  53.004   5.128  1.00  0.00     0.278 HD
ATOM     30  H8  UNL     1      31.647  50.281   7.192  1.00  0.00     0.160 HD
ENDBRANCH  17  20
BRANCH  19  31
HETATM   31  C11 UNL     1      29.126  50.809   8.366  1.00  0.00     0.270 C 
HETATM   32  O4  UNL     1      29.502  49.954   7.595  1.00  0.00    -0.304 OA
ENDBRANCH  19  31
BRANCH   1  33
HETATM   33  N3  UNL     1      27.441  53.452   6.555  1.00  0.00    -0.272 N 
HETATM   34  C1  UNL     1      26.270  53.874   5.880  1.00  0.00     0.200 C 
HETATM   35  N1  UNL     1      26.176  55.030   5.340  1.00  0.00    -0.372 N 
HETATM   36  N2  UNL     1      25.176  52.982   5.805  1.00  0.00    -0.062 NA
ATOM     37  H12 UNL     1      25.333  55.334   4.854  1.00  0.00     0.158 HD
ATOM     38  H11 UNL     1      26.965  55.674   5.395  1.00  0.00     0.158 HD
ATOM     39  H3  UNL     1      28.194  53.009   6.030  1.00  0.00     0.189 HD
ENDBRANCH   1  33
TORSDOF 3
ENDMDL
