MODEL 1
REMARK VINA RESULT: -8.254758385      0.000      0.000
REMARK  11 active torsions:
REMARK  status: ('A' for Active; 'I' for Inactive)
REMARK    1  A    between atoms: N1_1  and  C1_4 
REMARK    2  A    between atoms: C3_9  and  S1_10 
REMARK    3  A    between atoms: S1_10  and  N4_11 
REMARK    4  A    between atoms: S1_10  and  N5_15 
REMARK    5  A    between atoms: N5_15  and  N6_17 
REMARK    6  A    between atoms: N6_17  and  N7_18 
REMARK    7  A    between atoms: N6_17  and  N8_21 
REMARK    8  A    between atoms: C4_24  and  N9_25 
REMARK    9  A    between atoms: N9_25  and  C5_27 
REMARK   10  A    between atoms: C5_27  and  C6_28 
REMARK   11  A    between atoms: C6_28  and  N10_29 
ROOT
HETATM    1  C1  UNL     1      32.518  54.603  10.171  1.00  0.00     0.678 A 
HETATM    2  N2  UNL     1      33.126  54.214   9.038  1.00  0.00    -0.177 N 
ATOM      3  H2  UNL     1      33.793  54.847   8.596  1.00  0.00     0.185 HD
HETATM    4  C2  UNL     1      32.886  53.010   8.462  1.00  0.00     0.157 A 
HETATM    5  N3  UNL     1      33.567  52.659   7.258  1.00  0.00    -0.080 NA
HETATM    6  C3  UNL     1      31.995  52.162   9.055  1.00  0.00     0.145 A 
HETATM    7  C4  UNL     1      31.375  52.585  10.230  1.00  0.00     0.142 A 
HETATM    8  N13 UNL     1      31.635  53.781  10.771  1.00  0.00    -0.176 N 
ATOM      9  H13 UNL     1      31.168  54.068  11.631  1.00  0.00     0.186 HD
ENDROOT
BRANCH   6  10
HETATM   10  S1  UNL     1      31.661  50.605   8.341  1.00  0.00     0.160 S 
HETATM   11  O1  UNL     1      31.820  49.489   9.329  1.00  0.00    -0.222 OA
BRANCH  10  12
HETATM   12  N4  UNL     1      32.756  50.420   7.004  1.00  0.00    -0.340 N 
ATOM     13  H42 UNL     1      33.531  51.043   6.777  1.00  0.00     0.167 HD
ATOM     14  H41 UNL     1      32.471  49.578   6.503  1.00  0.00     0.167 HD
ENDBRANCH  10  12
BRANCH  10  15
HETATM   15  N5  UNL     1      30.178  50.631   7.830  1.00  0.00    -0.204 N 
ATOM     16  H5  UNL     1      29.428  50.402   8.482  1.00  0.00     0.202 HD
BRANCH  15  17
HETATM   17  N6  UNL     1      29.855  50.956   6.520  1.00  0.00    -0.136 N 
BRANCH  17  18
HETATM   18  N7  UNL     1      29.949  49.976   5.532  1.00  0.00    -0.309 N 
ATOM     19  H72 UNL     1      29.369  49.137   5.544  1.00  0.00     0.180 HD
ATOM     20  H71 UNL     1      30.617  50.099   4.770  1.00  0.00     0.180 HD
ENDBRANCH  17  18
BRANCH  17  21
HETATM   21  N8  UNL     1      29.445  52.261   6.233  1.00  0.00    -0.309 N 
ATOM     22  H82 UNL     1      30.112  53.000   6.007  1.00  0.00     0.180 HD
ATOM     23  H81 UNL     1      28.449  52.477   6.252  1.00  0.00     0.180 HD
ENDBRANCH  17  21
ENDBRANCH  15  17
ENDBRANCH  10  15
ENDBRANCH   6  10
BRANCH   7  24
HETATM   24  N9  UNL     1      30.554  51.761  10.742  1.00  0.00    -0.373 N 
ATOM     25  H9  UNL     1      29.786  51.389  10.182  1.00  0.00     0.161 HD
BRANCH  24  26
HETATM   26  C5  UNL     1      30.711  51.352  12.121  1.00  0.00     0.141 C 
BRANCH  26  27
HETATM   27  C6  UNL     1      29.462  51.736  12.878  1.00  0.00     0.141 C 
BRANCH  27  28
HETATM   28  N10 UNL     1      28.520  52.450  12.053  1.00  0.00    -0.365 N 
HETATM   29  C7  UNL     1      28.444  53.728  12.190  1.00  0.00     0.197 C 
HETATM   30  N11 UNL     1      27.536  54.512  11.411  1.00  0.00    -0.067 NA
HETATM   31  N12 UNL     1      29.251  54.438  13.118  1.00  0.00    -0.067 NA
ATOM     32  H10 UNL     1      27.932  51.958  11.380  1.00  0.00     0.161 HD
ENDBRANCH  27  28
ENDBRANCH  26  27
ENDBRANCH  24  26
ENDBRANCH   7  24
BRANCH   1  33
HETATM   33  N1  UNL     1      32.758  55.764  10.715  1.00  0.00    -0.234 N 
ATOM     34  H12 UNL     1      32.090  56.519  10.564  1.00  0.00     0.174 HD
ATOM     35  H11 UNL     1      33.590  55.929  11.281  1.00  0.00     0.174 HD
ENDBRANCH   1  33
TORSDOF 11
ENDMDL
MODEL 2
REMARK VINA RESULT: -7.653011576      1.154      1.689
REMARK  11 active torsions:
REMARK  status: ('A' for Active; 'I' for Inactive)
REMARK    1  A    between atoms: N1_1  and  C1_4 
REMARK    2  A    between atoms: C3_9  and  S1_10 
REMARK    3  A    between atoms: S1_10  and  N4_11 
REMARK    4  A    between atoms: S1_10  and  N5_15 
REMARK    5  A    between atoms: N5_15  and  N6_17 
REMARK    6  A    between atoms: N6_17  and  N7_18 
REMARK    7  A    between atoms: N6_17  and  N8_21 
REMARK    8  A    between atoms: C4_24  and  N9_25 
REMARK    9  A    between atoms: N9_25  and  C5_27 
REMARK   10  A    between atoms: C5_27  and  C6_28 
REMARK   11  A    between atoms: C6_28  and  N10_29 
ROOT
HETATM    1  C1  UNL     1      32.520  54.650  10.180  1.00  0.00     0.678 A 
HETATM    2  N2  UNL     1      33.276  54.182   9.172  1.00  0.00    -0.177 N 
ATOM      3  H2  UNL     1      34.051  54.752   8.834  1.00  0.00     0.185 HD
HETATM    4  C2  UNL     1      33.044  52.980   8.589  1.00  0.00     0.157 A 
HETATM    5  N3  UNL     1      33.885  52.543   7.522  1.00  0.00    -0.080 NA
HETATM    6  C3  UNL     1      32.005  52.218   9.042  1.00  0.00     0.145 A 
HETATM    7  C4  UNL     1      31.235  52.721  10.089  1.00  0.00     0.142 A 
HETATM    8  N13 UNL     1      31.492  53.913  10.641  1.00  0.00    -0.176 N 
ATOM      9  H13 UNL     1      30.913  54.260  11.406  1.00  0.00     0.186 HD
ENDROOT
BRANCH   6  10
HETATM   10  S1  UNL     1      31.678  50.665   8.315  1.00  0.00     0.160 S 
HETATM   11  O1  UNL     1      31.844  49.541   9.292  1.00  0.00    -0.222 OA
BRANCH  10  12
HETATM   12  N4  UNL     1      32.770  50.498   6.974  1.00  0.00    -0.340 N 
ATOM     13  H42 UNL     1      33.724  50.855   6.933  1.00  0.00     0.167 HD
ATOM     14  H41 UNL     1      32.271  49.980   6.250  1.00  0.00     0.167 HD
ENDBRANCH  10  12
BRANCH  10  15
HETATM   15  N5  UNL     1      30.193  50.689   7.809  1.00  0.00    -0.204 N 
ATOM     16  H5  UNL     1      29.445  50.465   8.464  1.00  0.00     0.202 HD
BRANCH  15  17
HETATM   17  N6  UNL     1      29.866  51.005   6.497  1.00  0.00    -0.136 N 
BRANCH  17  18
HETATM   18  N7  UNL     1      30.023  50.039   5.503  1.00  0.00    -0.309 N 
ATOM     19  H72 UNL     1      30.196  49.058   5.725  1.00  0.00     0.180 HD
ATOM     20  H71 UNL     1      29.962  50.316   4.524  1.00  0.00     0.180 HD
ENDBRANCH  17  18
BRANCH  17  21
HETATM   21  N8  UNL     1      29.390  52.288   6.214  1.00  0.00    -0.309 N 
ATOM     22  H82 UNL     1      29.452  53.049   6.890  1.00  0.00     0.180 HD
ATOM     23  H81 UNL     1      28.966  52.464   5.303  1.00  0.00     0.180 HD
ENDBRANCH  17  21
ENDBRANCH  15  17
ENDBRANCH  10  15
ENDBRANCH   6  10
BRANCH   7  24
HETATM   24  N9  UNL     1      30.281  51.974  10.474  1.00  0.00    -0.373 N 
ATOM     25  H9  UNL     1      30.442  50.979  10.631  1.00  0.00     0.161 HD
BRANCH  24  26
HETATM   26  C5  UNL     1      28.967  52.539  10.690  1.00  0.00     0.141 C 
BRANCH  26  27
HETATM   27  C6  UNL     1      28.792  52.791  12.170  1.00  0.00     0.141 C 
BRANCH  27  28
HETATM   28  N10 UNL     1      28.993  51.598  12.954  1.00  0.00    -0.365 N 
HETATM   29  C7  UNL     1      30.099  51.481  13.602  1.00  0.00     0.197 C 
HETATM   30  N11 UNL     1      30.379  50.330  14.404  1.00  0.00    -0.067 NA
HETATM   31  N12 UNL     1      31.108  52.480  13.563  1.00  0.00    -0.067 NA
ATOM     32  H10 UNL     1      28.280  50.869  12.996  1.00  0.00     0.161 HD
ENDBRANCH  27  28
ENDBRANCH  26  27
ENDBRANCH  24  26
ENDBRANCH   7  24
BRANCH   1  33
HETATM   33  N1  UNL     1      32.754  55.808  10.732  1.00  0.00    -0.234 N 
ATOM     34  H12 UNL     1      31.988  56.285  11.206  1.00  0.00     0.174 HD
ATOM     35  H11 UNL     1      33.678  56.241  10.700  1.00  0.00     0.174 HD
ENDBRANCH   1  33
TORSDOF 11
ENDMDL
MODEL 3
REMARK VINA RESULT: -7.536020422      2.615      5.924
REMARK  11 active torsions:
REMARK  status: ('A' for Active; 'I' for Inactive)
REMARK    1  A    between atoms: N1_1  and  C1_4 
REMARK    2  A    between atoms: C3_9  and  S1_10 
REMARK    3  A    between atoms: S1_10  and  N4_11 
REMARK    4  A    between atoms: S1_10  and  N5_15 
REMARK    5  A    between atoms: N5_15  and  N6_17 
REMARK    6  A    between atoms: N6_17  and  N7_18 
REMARK    7  A    between atoms: N6_17  and  N8_21 
REMARK    8  A    between atoms: C4_24  and  N9_25 
REMARK    9  A    between atoms: N9_25  and  C5_27 
REMARK   10  A    between atoms: C5_27  and  C6_28 
REMARK   11  A    between atoms: C6_28  and  N10_29 
ROOT
HETATM    1  C1  UNL     1      32.849  52.222   9.751  1.00  0.00     0.678 A 
HETATM    2  N2  UNL     1      32.801  52.709  11.001  1.00  0.00    -0.177 N 
ATOM      3  H2  UNL     1      33.669  52.788  11.531  1.00  0.00     0.185 HD
HETATM    4  C2  UNL     1      31.641  53.101  11.584  1.00  0.00     0.157 A 
HETATM    5  N3  UNL     1      31.661  53.610  12.917  1.00  0.00    -0.080 NA
HETATM    6  C3  UNL     1      30.479  52.996  10.874  1.00  0.00     0.145 A 
HETATM    7  C4  UNL     1      30.551  52.489   9.578  1.00  0.00     0.142 A 
HETATM    8  N13 UNL     1      31.714  52.111   9.033  1.00  0.00    -0.176 N 
ATOM      9  H13 UNL     1      31.740  51.741   8.083  1.00  0.00     0.186 HD
ENDROOT
BRANCH   6  10
HETATM   10  S1  UNL     1      28.968  53.491  11.592  1.00  0.00     0.160 S 
HETATM   11  O1  UNL     1      27.989  53.974  10.565  1.00  0.00    -0.222 OA
BRANCH  10  12
HETATM   12  N4  UNL     1      29.342  54.741  12.740  1.00  0.00    -0.340 N 
ATOM     13  H42 UNL     1      29.807  55.624  12.530  1.00  0.00     0.167 HD
ATOM     14  H41 UNL     1      29.007  54.418  13.648  1.00  0.00     0.167 HD
ENDBRANCH  10  12
BRANCH  10  15
HETATM   15  N5  UNL     1      28.366  52.241  12.325  1.00  0.00    -0.204 N 
ATOM     16  H5  UNL     1      27.907  51.518  11.772  1.00  0.00     0.202 HD
BRANCH  15  17
HETATM   17  N6  UNL     1      28.439  52.089  13.703  1.00  0.00    -0.136 N 
BRANCH  17  18
HETATM   18  N7  UNL     1      27.373  52.519  14.494  1.00  0.00    -0.309 N 
ATOM     19  H72 UNL     1      27.306  53.478  14.835  1.00  0.00     0.180 HD
ATOM     20  H71 UNL     1      26.635  51.859  14.739  1.00  0.00     0.180 HD
ENDBRANCH  17  18
BRANCH  17  21
HETATM   21  N8  UNL     1      29.584  51.508  14.255  1.00  0.00    -0.309 N 
ATOM     22  H82 UNL     1      29.742  50.500  14.234  1.00  0.00     0.180 HD
ATOM     23  H81 UNL     1      30.278  52.113  14.693  1.00  0.00     0.180 HD
ENDBRANCH  17  21
ENDBRANCH  15  17
ENDBRANCH  10  15
ENDBRANCH   6  10
BRANCH   7  24
HETATM   24  N9  UNL     1      29.443  52.411   8.959  1.00  0.00    -0.373 N 
ATOM     25  H9  UNL     1      28.752  53.155   9.053  1.00  0.00     0.161 HD
BRANCH  24  26
HETATM   26  C5  UNL     1      29.166  51.266   8.120  1.00  0.00     0.141 C 
BRANCH  26  27
HETATM   27  C6  UNL     1      29.948  51.413   6.836  1.00  0.00     0.141 C 
BRANCH  27  28
HETATM   28  N10 UNL     1      29.905  50.218   6.030  1.00  0.00    -0.365 N 
HETATM   29  C7  UNL     1      30.752  49.285   6.290  1.00  0.00     0.197 C 
HETATM   30  N11 UNL     1      30.778  48.067   5.539  1.00  0.00    -0.067 NA
HETATM   31  N12 UNL     1      31.710  49.400   7.333  1.00  0.00    -0.067 NA
ATOM     32  H10 UNL     1      29.224  50.116   5.277  1.00  0.00     0.161 HD
ENDBRANCH  27  28
ENDBRANCH  26  27
ENDBRANCH  24  26
ENDBRANCH   7  24
BRANCH   1  33
HETATM   33  N1  UNL     1      33.971  51.849   9.202  1.00  0.00    -0.234 N 
ATOM     34  H12 UNL     1      34.829  52.331   9.471  1.00  0.00     0.174 HD
ATOM     35  H11 UNL     1      34.009  51.093   8.518  1.00  0.00     0.174 HD
ENDBRANCH   1  33
TORSDOF 11
ENDMDL
MODEL 4
REMARK VINA RESULT: -7.336809733      2.492      5.846
REMARK  11 active torsions:
REMARK  status: ('A' for Active; 'I' for Inactive)
REMARK    1  A    between atoms: N1_1  and  C1_4 
REMARK    2  A    between atoms: C3_9  and  S1_10 
REMARK    3  A    between atoms: S1_10  and  N4_11 
REMARK    4  A    between atoms: S1_10  and  N5_15 
REMARK    5  A    between atoms: N5_15  and  N6_17 
REMARK    6  A    between atoms: N6_17  and  N7_18 
REMARK    7  A    between atoms: N6_17  and  N8_21 
REMARK    8  A    between atoms: C4_24  and  N9_25 
REMARK    9  A    between atoms: N9_25  and  C5_27 
REMARK   10  A    between atoms: C5_27  and  C6_28 
REMARK   11  A    between atoms: C6_28  and  N10_29 
ROOT
HETATM    1  C1  UNL     1      32.574  54.163  10.000  1.00  0.00     0.678 A 
HETATM    2  N2  UNL     1      32.203  54.874  11.078  1.00  0.00    -0.177 N 
ATOM      3  H2  UNL     1      32.791  55.652  11.380  1.00  0.00     0.185 HD
HETATM    4  C2  UNL     1      31.076  54.596  11.778  1.00  0.00     0.157 A 
HETATM    5  N3  UNL     1      30.740  55.392  12.914  1.00  0.00    -0.080 NA
HETATM    6  C3  UNL     1      30.289  53.556  11.373  1.00  0.00     0.145 A 
HETATM    7  C4  UNL     1      30.691  52.832  10.252  1.00  0.00     0.142 A 
HETATM    8  N13 UNL     1      31.811  53.134   9.585  1.00  0.00    -0.176 N 
ATOM      9  H13 UNL     1      32.086  52.588   8.768  1.00  0.00     0.186 HD
ENDROOT
BRANCH   6  10
HETATM   10  S1  UNL     1      28.830  53.170  12.250  1.00  0.00     0.160 S 
HETATM   11  O1  UNL     1      28.173  51.928  11.727  1.00  0.00    -0.222 OA
BRANCH  10  12
HETATM   12  N4  UNL     1      27.779  54.545  12.108  1.00  0.00    -0.340 N 
ATOM     13  H42 UNL     1      26.848  54.545  11.690  1.00  0.00     0.167 HD
ATOM     14  H41 UNL     1      28.271  55.338  12.520  1.00  0.00     0.167 HD
ENDBRANCH  10  12
BRANCH  10  15
HETATM   15  N5  UNL     1      29.232  52.944  13.750  1.00  0.00    -0.204 N 
ATOM     16  H5  UNL     1      28.830  53.551  14.465  1.00  0.00     0.202 HD
BRANCH  15  17
HETATM   17  N6  UNL     1      30.118  51.947  14.135  1.00  0.00    -0.136 N 
BRANCH  17  18
HETATM   18  N7  UNL     1      29.621  50.686  14.467  1.00  0.00    -0.309 N 
ATOM     19  H72 UNL     1      30.216  49.957  14.859  1.00  0.00     0.180 HD
ATOM     20  H71 UNL     1      28.633  50.483  14.315  1.00  0.00     0.180 HD
ENDBRANCH  17  18
BRANCH  17  21
HETATM   21  N8  UNL     1      31.483  52.241  14.178  1.00  0.00    -0.309 N 
ATOM     22  H82 UNL     1      31.834  53.194  14.084  1.00  0.00     0.180 HD
ATOM     23  H81 UNL     1      32.145  51.475  14.305  1.00  0.00     0.180 HD
ENDBRANCH  17  21
ENDBRANCH  15  17
ENDBRANCH  10  15
ENDBRANCH   6  10
BRANCH   7  24
HETATM   24  N9  UNL     1      29.926  51.874   9.916  1.00  0.00    -0.373 N 
ATOM     25  H9  UNL     1      29.437  51.335  10.631  1.00  0.00     0.161 HD
BRANCH  24  26
HETATM   26  C5  UNL     1      29.749  51.551   8.517  1.00  0.00     0.141 C 
BRANCH  26  27
HETATM   27  C6  UNL     1      30.865  50.625   8.096  1.00  0.00     0.141 C 
BRANCH  27  28
HETATM   28  N10 UNL     1      30.409  49.592   7.198  1.00  0.00    -0.365 N 
HETATM   29  C7  UNL     1      30.648  49.736   5.942  1.00  0.00     0.197 C 
HETATM   30  N11 UNL     1      30.231  48.760   4.983  1.00  0.00    -0.067 NA
HETATM   31  N12 UNL     1      31.338  50.867   5.427  1.00  0.00    -0.067 NA
ATOM     32  H10 UNL     1      29.913  48.773   7.549  1.00  0.00     0.161 HD
ENDBRANCH  27  28
ENDBRANCH  26  27
ENDBRANCH  24  26
ENDBRANCH   7  24
BRANCH   1  33
HETATM   33  N1  UNL     1      33.661  54.441   9.336  1.00  0.00    -0.234 N 
ATOM     34  H12 UNL     1      33.668  55.267   8.737  1.00  0.00     0.174 HD
ATOM     35  H11 UNL     1      34.494  53.856   9.402  1.00  0.00     0.174 HD
ENDBRANCH   1  33
TORSDOF 11
ENDMDL
MODEL 5
REMARK VINA RESULT: -7.253249291      2.386      5.662
REMARK  11 active torsions:
REMARK  status: ('A' for Active; 'I' for Inactive)
REMARK    1  A    between atoms: N1_1  and  C1_4 
REMARK    2  A    between atoms: C3_9  and  S1_10 
REMARK    3  A    between atoms: S1_10  and  N4_11 
REMARK    4  A    between atoms: S1_10  and  N5_15 
REMARK    5  A    between atoms: N5_15  and  N6_17 
REMARK    6  A    between atoms: N6_17  and  N7_18 
REMARK    7  A    between atoms: N6_17  and  N8_21 
REMARK    8  A    between atoms: C4_24  and  N9_25 
REMARK    9  A    between atoms: N9_25  and  C5_27 
REMARK   10  A    between atoms: C5_27  and  C6_28 
REMARK   11  A    between atoms: C6_28  and  N10_29 
ROOT
HETATM    1  C1  UNL     1      32.451  54.319  10.146  1.00  0.00     0.678 A 
HETATM    2  N2  UNL     1      31.987  54.984  11.216  1.00  0.00    -0.177 N 
ATOM      3  H2  UNL     1      32.499  55.802  11.548  1.00  0.00     0.185 HD
HETATM    4  C2  UNL     1      30.860  54.609  11.872  1.00  0.00     0.157 A 
HETATM    5  N3  UNL     1      30.422  55.360  13.003  1.00  0.00    -0.080 NA
HETATM    6  C3  UNL     1      30.174  53.515  11.428  1.00  0.00     0.145 A 
HETATM    7  C4  UNL     1      30.672  52.839  10.316  1.00  0.00     0.142 A 
HETATM    8  N13 UNL     1      31.788  53.238   9.693  1.00  0.00    -0.176 N 
ATOM      9  H13 UNL     1      32.134  52.726   8.881  1.00  0.00     0.186 HD
ENDROOT
BRANCH   6  10
HETATM   10  S1  UNL     1      28.720  53.003  12.248  1.00  0.00     0.160 S 
HETATM   11  O1  UNL     1      28.204  51.701  11.714  1.00  0.00    -0.222 OA
BRANCH  10  12
HETATM   12  N4  UNL     1      27.553  54.273  12.042  1.00  0.00    -0.340 N 
ATOM     13  H42 UNL     1      27.191  54.877  12.781  1.00  0.00     0.167 HD
ATOM     14  H41 UNL     1      27.309  54.293  11.052  1.00  0.00     0.167 HD
ENDBRANCH  10  12
BRANCH  10  15
HETATM   15  N5  UNL     1      29.075  52.830  13.766  1.00  0.00    -0.204 N 
ATOM     16  H5  UNL     1      28.616  53.429  14.452  1.00  0.00     0.202 HD
BRANCH  15  17
HETATM   17  N6  UNL     1      29.995  51.887  14.205  1.00  0.00    -0.136 N 
BRANCH  17  18
HETATM   18  N7  UNL     1      31.352  52.210  14.211  1.00  0.00    -0.309 N 
ATOM     19  H72 UNL     1      31.765  52.824  13.509  1.00  0.00     0.180 HD
ATOM     20  H71 UNL     1      31.953  51.825  14.940  1.00  0.00     0.180 HD
ENDBRANCH  17  18
BRANCH  17  21
HETATM   21  N8  UNL     1      29.529  50.640  14.628  1.00  0.00    -0.309 N 
ATOM     22  H82 UNL     1      28.558  50.353  14.499  1.00  0.00     0.180 HD
ATOM     23  H81 UNL     1      30.181  50.000  15.081  1.00  0.00     0.180 HD
ENDBRANCH  17  21
ENDBRANCH  15  17
ENDBRANCH  10  15
ENDBRANCH   6  10
BRANCH   7  24
HETATM   24  N9  UNL     1      29.998  51.829   9.942  1.00  0.00    -0.373 N 
ATOM     25  H9  UNL     1      29.904  51.021  10.558  1.00  0.00     0.161 HD
BRANCH  24  26
HETATM   26  C5  UNL     1      29.365  51.827   8.641  1.00  0.00     0.141 C 
BRANCH  26  27
HETATM   27  C6  UNL     1      30.172  50.944   7.718  1.00  0.00     0.141 C 
BRANCH  27  28
HETATM   28  N10 UNL     1      30.945  51.707   6.770  1.00  0.00    -0.365 N 
HETATM   29  C7  UNL     1      32.220  51.761   6.935  1.00  0.00     0.197 C 
HETATM   30  N11 UNL     1      33.061  52.496   6.041  1.00  0.00    -0.067 NA
HETATM   31  N12 UNL     1      32.873  51.099   8.009  1.00  0.00    -0.067 NA
ATOM     32  H10 UNL     1      30.495  52.189   5.992  1.00  0.00     0.161 HD
ENDBRANCH  27  28
ENDBRANCH  26  27
ENDBRANCH  24  26
ENDBRANCH   7  24
BRANCH   1  33
HETATM   33  N1  UNL     1      33.535  54.691   9.525  1.00  0.00    -0.234 N 
ATOM     34  H12 UNL     1      33.918  54.079   8.804  1.00  0.00     0.174 HD
ATOM     35  H11 UNL     1      34.004  55.571   9.743  1.00  0.00     0.174 HD
ENDBRANCH   1  33
TORSDOF 11
ENDMDL
