MODEL 1
REMARK VINA RESULT: -8.189561059      0.000      0.000
REMARK  9 active torsions:
REMARK  status: ('A' for Active; 'I' for Inactive)
REMARK       I    between atoms: C1_4  and  N3_6 
REMARK    1  A    between atoms: N3_6  and  N4_8 
REMARK    2  A    between atoms: C2_10  and  O1_11 
REMARK    3  A    between atoms: C2_10  and  C3_13 
REMARK    4  A    between atoms: C3_13  and  N5_14 
REMARK    5  A    between atoms: C3_13  and  C4_18 
REMARK    6  A    between atoms: C5_20  and  N6_21 
REMARK    7  A    between atoms: N6_21  and  C6_23 
REMARK    8  A    between atoms: C7_26  and  N8_27 
REMARK    9  A    between atoms: C8_32  and  N10_33 
ROOT
HETATM    1  C4  UNL     1      31.422  52.751  12.325  1.00  0.00     0.262 C 
HETATM    2  O2  UNL     1      30.958  51.685  11.523  1.00  0.00    -0.304 OA
HETATM    3  C5  UNL     1      31.649  51.686  10.311  1.00  0.00     0.241 C 
HETATM    4  N12 UNL     1      32.172  52.881  10.151  1.00  0.00    -0.290 N 
ATOM      5  H12 UNL     1      32.731  53.169   9.347  1.00  0.00     0.172 HD
HETATM    6  C9  UNL     1      31.851  53.714  11.250  1.00  0.00     0.257 C 
HETATM    7  O3  UNL     1      31.890  54.964  11.363  1.00  0.00    -0.270 OA
ENDROOT
BRANCH   1   8
HETATM    8  C3  UNL     1      30.316  53.361  13.159  1.00  0.00     0.297 C 
BRANCH   8   9
HETATM    9  C2  UNL     1      29.263  52.412  13.491  1.00  0.00     0.164 C 
HETATM   10  N4  UNL     1      28.375  52.049  12.674  1.00  0.00    -0.279 N 
ATOM     11  H4  UNL     1      27.699  51.379  13.041  1.00  0.00     0.189 HD
BRANCH  10  12
HETATM   12  N3  UNL     1      28.177  52.417  11.362  1.00  0.00    -0.272 N 
HETATM   13  C1  UNL     1      28.111  53.774  10.937  1.00  0.00     0.200 C 
HETATM   14  N1  UNL     1      28.498  54.057   9.722  1.00  0.00    -0.372 N 
HETATM   15  N2  UNL     1      27.655  54.826  11.748  1.00  0.00    -0.062 NA
ATOM     16  H12 UNL     1      28.452  55.029   9.418  1.00  0.00     0.158 HD
ATOM     17  H11 UNL     1      28.830  53.293   9.134  1.00  0.00     0.158 HD
ATOM     18  H3  UNL     1      28.072  51.683  10.662  1.00  0.00     0.189 HD
ENDBRANCH  10  12
BRANCH   9  19
HETATM   19  O1  UNL     1      29.226  51.870  14.778  1.00  0.00    -0.347 OA
ATOM     20  H1  UNL     1      29.983  52.002  15.336  1.00  0.00     0.219 HD
ENDBRANCH   9  19
ENDBRANCH   8   9
BRANCH   8  21
HETATM   21  N5  UNL     1      30.924  53.954  14.315  1.00  0.00    -0.065 N 
ATOM     22  H53 UNL     1      30.371  54.743  14.652  1.00  0.00     0.275 HD
ATOM     23  H52 UNL     1      30.846  53.338  15.124  1.00  0.00     0.275 HD
ATOM     24  H51 UNL     1      31.894  54.230  14.160  1.00  0.00     0.275 HD
ENDBRANCH   8  21
ENDBRANCH   1   8
BRANCH   3  25
HETATM   25  N6  UNL     1      31.833  50.679   9.343  1.00  0.00    -0.153 N 
ATOM     26  H6  UNL     1      32.520  49.960   9.567  1.00  0.00     0.188 HD
BRANCH  25  27
HETATM   27  C6  UNL     1      31.241  50.562   8.216  1.00  0.00     0.714 A 
HETATM   28  N7  UNL     1      31.400  49.490   7.425  1.00  0.00    -0.021 N 
HETATM   29  C7  UNL     1      30.781  49.365   6.251  1.00  0.00     0.705 A 
ATOM     30  H7  UNL     1      32.019  48.741   7.734  1.00  0.00     0.203 HD
HETATM   31  N9  UNL     1      29.961  50.338   5.829  1.00  0.00    -0.022 N 
HETATM   32  C8  UNL     1      29.779  51.423   6.596  1.00  0.00     0.705 A 
ATOM     33  H9  UNL     1      29.481  50.254   4.933  1.00  0.00     0.203 HD
HETATM   34  N11 UNL     1      30.421  51.536   7.794  1.00  0.00    -0.021 N 
ATOM     35  H11 UNL     1      30.276  52.365   8.371  1.00  0.00     0.203 HD
BRANCH  29  36
HETATM   36  N8  UNL     1      30.961  48.301   5.500  1.00  0.00    -0.234 N 
ATOM     37  H82 UNL     1      31.712  47.650   5.726  1.00  0.00     0.174 HD
ATOM     38  H81 UNL     1      30.360  48.117   4.697  1.00  0.00     0.174 HD
ENDBRANCH  29  36
BRANCH  32  39
HETATM   39  N10 UNL     1      29.013  52.381   6.251  1.00  0.00    -0.234 N 
ATOM     40 2H10 UNL     1      28.786  52.464   5.260  1.00  0.00     0.174 HD
ATOM     41 1H10 UNL     1      28.634  53.046   6.925  1.00  0.00     0.174 HD
ENDBRANCH  32  39
ENDBRANCH  25  27
ENDBRANCH   3  25
TORSDOF 9
ENDMDL
MODEL 2
REMARK VINA RESULT: -8.100711395      0.168      1.631
REMARK  9 active torsions:
REMARK  status: ('A' for Active; 'I' for Inactive)
REMARK       I    between atoms: C1_4  and  N3_6 
REMARK    1  A    between atoms: N3_6  and  N4_8 
REMARK    2  A    between atoms: C2_10  and  O1_11 
REMARK    3  A    between atoms: C2_10  and  C3_13 
REMARK    4  A    between atoms: C3_13  and  N5_14 
REMARK    5  A    between atoms: C3_13  and  C4_18 
REMARK    6  A    between atoms: C5_20  and  N6_21 
REMARK    7  A    between atoms: N6_21  and  C6_23 
REMARK    8  A    between atoms: C7_26  and  N8_27 
REMARK    9  A    between atoms: C8_32  and  N10_33 
ROOT
HETATM    1  C4  UNL     1      31.354  52.790  12.479  1.00  0.00     0.262 C 
HETATM    2  O2  UNL     1      30.938  51.722  11.654  1.00  0.00    -0.304 OA
HETATM    3  C5  UNL     1      31.639  51.771  10.448  1.00  0.00     0.241 C 
HETATM    4  N12 UNL     1      32.118  52.988  10.315  1.00  0.00    -0.290 N 
ATOM      5  H12 UNL     1      32.673  53.311   9.522  1.00  0.00     0.172 HD
HETATM    6  C9  UNL     1      31.755  53.788  11.425  1.00  0.00     0.257 C 
HETATM    7  O3  UNL     1      31.747  55.037  11.561  1.00  0.00    -0.270 OA
ENDROOT
BRANCH   1   8
HETATM    8  C3  UNL     1      30.217  53.343  13.313  1.00  0.00     0.297 C 
BRANCH   8   9
HETATM    9  C2  UNL     1      29.169  52.366  13.566  1.00  0.00     0.164 C 
HETATM   10  N4  UNL     1      28.324  52.015  12.700  1.00  0.00    -0.279 N 
ATOM     11  H4  UNL     1      27.645  51.322  13.014  1.00  0.00     0.189 HD
BRANCH  10  12
HETATM   12  N3  UNL     1      28.176  52.424  11.394  1.00  0.00    -0.272 N 
HETATM   13  C1  UNL     1      28.086  53.793  11.013  1.00  0.00     0.200 C 
HETATM   14  N1  UNL     1      28.520  54.132   9.829  1.00  0.00    -0.372 N 
HETATM   15  N2  UNL     1      27.559  54.801  11.837  1.00  0.00    -0.062 NA
ATOM     16  H12 UNL     1      28.457  55.113   9.556  1.00  0.00     0.158 HD
ATOM     17  H11 UNL     1      28.904  53.400   9.231  1.00  0.00     0.158 HD
ATOM     18  H3  UNL     1      28.127  51.714  10.664  1.00  0.00     0.189 HD
ENDBRANCH  10  12
BRANCH   9  19
HETATM   19  O1  UNL     1      29.086  51.780  14.832  1.00  0.00    -0.347 OA
ATOM     20  H1  UNL     1      29.544  50.959  14.971  1.00  0.00     0.219 HD
ENDBRANCH   9  19
ENDBRANCH   8   9
BRANCH   8  21
HETATM   21  N5  UNL     1      30.786  53.883  14.514  1.00  0.00    -0.065 N 
ATOM     22  H53 UNL     1      30.694  53.224  15.287  1.00  0.00     0.275 HD
ATOM     23  H52 UNL     1      31.804  53.924  14.449  1.00  0.00     0.275 HD
ATOM     24  H51 UNL     1      30.401  54.794  14.765  1.00  0.00     0.275 HD
ENDBRANCH   8  21
ENDBRANCH   1   8
BRANCH   3  25
HETATM   25  N6  UNL     1      31.870  50.790   9.465  1.00  0.00    -0.153 N 
ATOM     26  H6  UNL     1      32.601  50.109   9.671  1.00  0.00     0.188 HD
BRANCH  25  27
HETATM   27  C6  UNL     1      31.272  50.653   8.343  1.00  0.00     0.714 A 
HETATM   28  N7  UNL     1      30.452  51.589   7.843  1.00  0.00    -0.021 N 
HETATM   29  C7  UNL     1      29.829  51.449   6.672  1.00  0.00     0.705 A 
ATOM     30  H7  UNL     1      30.299  52.443   8.379  1.00  0.00     0.203 HD
HETATM   31  N9  UNL     1      30.020  50.335   5.952  1.00  0.00    -0.022 N 
HETATM   32  C8  UNL     1      30.834  49.379   6.423  1.00  0.00     0.705 A 
ATOM     33  H9  UNL     1      29.550  50.215   5.055  1.00  0.00     0.203 HD
HETATM   34  N11 UNL     1      31.463  49.538   7.623  1.00  0.00    -0.021 N 
ATOM     35  H11 UNL     1      32.080  48.805   7.973  1.00  0.00     0.203 HD
BRANCH  29  36
HETATM   36  N8  UNL     1      29.032  52.387   6.213  1.00  0.00    -0.234 N 
ATOM     37  H82 UNL     1      28.854  53.216   6.779  1.00  0.00     0.174 HD
ATOM     38  H81 UNL     1      28.588  52.299   5.299  1.00  0.00     0.174 HD
ENDBRANCH  29  36
BRANCH  32  39
HETATM   39  N10 UNL     1      31.056  48.298   5.786  1.00  0.00    -0.234 N 
ATOM     40 2H10 UNL     1      30.481  48.113   4.964  1.00  0.00     0.174 HD
ATOM     41 1H10 UNL     1      31.775  47.634   6.072  1.00  0.00     0.174 HD
ENDBRANCH  32  39
ENDBRANCH  25  27
ENDBRANCH   3  25
TORSDOF 9
ENDMDL
MODEL 3
REMARK VINA RESULT: -8.016858023      1.907      2.848
REMARK  9 active torsions:
REMARK  status: ('A' for Active; 'I' for Inactive)
REMARK       I    between atoms: C1_4  and  N3_6 
REMARK    1  A    between atoms: N3_6  and  N4_8 
REMARK    2  A    between atoms: C2_10  and  O1_11 
REMARK    3  A    between atoms: C2_10  and  C3_13 
REMARK    4  A    between atoms: C3_13  and  N5_14 
REMARK    5  A    between atoms: C3_13  and  C4_18 
REMARK    6  A    between atoms: C5_20  and  N6_21 
REMARK    7  A    between atoms: N6_21  and  C6_23 
REMARK    8  A    between atoms: C7_26  and  N8_27 
REMARK    9  A    between atoms: C8_32  and  N10_33 
ROOT
HETATM    1  C4  UNL     1      30.168  53.988  11.364  1.00  0.00     0.262 C 
HETATM    2  O2  UNL     1      30.614  52.658  11.193  1.00  0.00    -0.304 OA
HETATM    3  C5  UNL     1      29.991  52.105  10.073  1.00  0.00     0.241 C 
HETATM    4  N12 UNL     1      28.923  52.826   9.813  1.00  0.00    -0.290 N 
ATOM      5  H12 UNL     1      28.274  52.648   9.046  1.00  0.00     0.172 HD
HETATM    6  C9  UNL     1      28.798  53.882  10.748  1.00  0.00     0.257 C 
HETATM    7  O3  UNL     1      27.808  54.597  11.041  1.00  0.00    -0.270 OA
ENDROOT
BRANCH   1   8
HETATM    8  C3  UNL     1      30.052  54.366  12.825  1.00  0.00     0.297 C 
BRANCH   8   9
HETATM    9  C2  UNL     1      30.963  53.620  13.681  1.00  0.00     0.164 C 
HETATM   10  N4  UNL     1      30.789  52.411  13.991  1.00  0.00    -0.279 N 
ATOM     11  H4  UNL     1      31.505  52.014  14.598  1.00  0.00     0.189 HD
BRANCH  10  12
HETATM   12  N3  UNL     1      29.780  51.544  13.635  1.00  0.00    -0.272 N 
HETATM   13  C1  UNL     1      28.400  51.833  13.833  1.00  0.00     0.200 C 
HETATM   14  N1  UNL     1      27.537  51.308  13.007  1.00  0.00    -0.372 N 
HETATM   15  N2  UNL     1      27.914  52.652  14.865  1.00  0.00    -0.062 NA
ATOM     16  H12 UNL     1      26.549  51.515  13.149  1.00  0.00     0.158 HD
ATOM     17  H11 UNL     1      27.891  50.713  12.258  1.00  0.00     0.158 HD
ATOM     18  H3  UNL     1      30.033  50.652  13.210  1.00  0.00     0.189 HD
ENDBRANCH  10  12
BRANCH   9  19
HETATM   19  O1  UNL     1      32.091  54.267  14.191  1.00  0.00    -0.347 OA
ATOM     20  H1  UNL     1      32.637  53.790  14.805  1.00  0.00     0.219 HD
ENDBRANCH   9  19
ENDBRANCH   8   9
BRANCH   8  21
HETATM   21  N5  UNL     1      30.230  55.787  12.919  1.00  0.00    -0.065 N 
ATOM     22  H53 UNL     1      30.100  56.107  13.879  1.00  0.00     0.275 HD
ATOM     23  H52 UNL     1      31.209  56.041  12.788  1.00  0.00     0.275 HD
ATOM     24  H51 UNL     1      29.630  56.308  12.278  1.00  0.00     0.275 HD
ENDBRANCH   8  21
ENDBRANCH   1   8
BRANCH   3  25
HETATM   25  N6  UNL     1      30.327  50.994   9.275  1.00  0.00    -0.153 N 
ATOM     26  H6  UNL     1      30.160  50.077   9.687  1.00  0.00     0.188 HD
BRANCH  25  27
HETATM   27  C6  UNL     1      30.817  51.001   8.094  1.00  0.00     0.714 A 
HETATM   28  N7  UNL     1      31.877  51.751   7.757  1.00  0.00    -0.021 N 
HETATM   29  C7  UNL     1      32.392  51.757   6.526  1.00  0.00     0.705 A 
ATOM     30  H7  UNL     1      32.307  52.340   8.470  1.00  0.00     0.203 HD
HETATM   31  N9  UNL     1      31.841  50.988   5.577  1.00  0.00    -0.022 N 
HETATM   32  C8  UNL     1      30.781  50.226   5.881  1.00  0.00     0.705 A 
ATOM     33  H9  UNL     1      32.226  50.983   4.632  1.00  0.00     0.203 HD
HETATM   34  N11 UNL     1      30.267  50.231   7.143  1.00  0.00    -0.021 N 
ATOM     35  H11 UNL     1      29.460  49.648   7.365  1.00  0.00     0.203 HD
BRANCH  29  36
HETATM   36  N8  UNL     1      33.431  52.506   6.231  1.00  0.00    -0.234 N 
ATOM     37  H82 UNL     1      33.336  53.240   5.529  1.00  0.00     0.174 HD
ATOM     38  H81 UNL     1      34.329  52.363   6.691  1.00  0.00     0.174 HD
ENDBRANCH  29  36
BRANCH  32  39
HETATM   39  N10 UNL     1      30.215  49.473   5.022  1.00  0.00    -0.234 N 
ATOM     40 2H10 UNL     1      30.213  49.789   4.052  1.00  0.00     0.174 HD
ATOM     41 1H10 UNL     1      29.775  48.589   5.278  1.00  0.00     0.174 HD
ENDBRANCH  32  39
ENDBRANCH  25  27
ENDBRANCH   3  25
TORSDOF 9
ENDMDL
MODEL 4
REMARK VINA RESULT: -7.984611904      1.892      2.654
REMARK  9 active torsions:
REMARK  status: ('A' for Active; 'I' for Inactive)
REMARK       I    between atoms: C1_4  and  N3_6 
REMARK    1  A    between atoms: N3_6  and  N4_8 
REMARK    2  A    between atoms: C2_10  and  O1_11 
REMARK    3  A    between atoms: C2_10  and  C3_13 
REMARK    4  A    between atoms: C3_13  and  N5_14 
REMARK    5  A    between atoms: C3_13  and  C4_18 
REMARK    6  A    between atoms: C5_20  and  N6_21 
REMARK    7  A    between atoms: N6_21  and  C6_23 
REMARK    8  A    between atoms: C7_26  and  N8_27 
REMARK    9  A    between atoms: C8_32  and  N10_33 
ROOT
HETATM    1  C4  UNL     1      30.211  53.962  11.379  1.00  0.00     0.262 C 
HETATM    2  O2  UNL     1      30.687  52.639  11.232  1.00  0.00    -0.304 OA
HETATM    3  C5  UNL     1      30.097  52.060  10.107  1.00  0.00     0.241 C 
HETATM    4  N12 UNL     1      29.019  52.755   9.819  1.00  0.00    -0.290 N 
ATOM      5  H12 UNL     1      28.389  52.555   9.042  1.00  0.00     0.172 HD
HETATM    6  C9  UNL     1      28.855  53.819  10.738  1.00  0.00     0.257 C 
HETATM    7  O3  UNL     1      27.846  54.518  11.004  1.00  0.00    -0.270 OA
ENDROOT
BRANCH   1   8
HETATM    8  C3  UNL     1      30.060  54.355  12.833  1.00  0.00     0.297 C 
BRANCH   8   9
HETATM    9  C2  UNL     1      30.940  53.608  13.720  1.00  0.00     0.164 C 
HETATM   10  N4  UNL     1      30.747  52.403  14.033  1.00  0.00    -0.279 N 
ATOM     11  H4  UNL     1      31.443  52.005  14.664  1.00  0.00     0.189 HD
BRANCH  10  12
HETATM   12  N3  UNL     1      29.742  51.541  13.656  1.00  0.00    -0.272 N 
HETATM   13  C1  UNL     1      28.360  51.835  13.827  1.00  0.00     0.200 C 
HETATM   14  N1  UNL     1      27.511  51.315  12.983  1.00  0.00    -0.372 N 
HETATM   15  N2  UNL     1      27.857  52.654  14.851  1.00  0.00    -0.062 NA
ATOM     16  H12 UNL     1      26.521  51.527  13.105  1.00  0.00     0.158 HD
ATOM     17  H11 UNL     1      27.877  50.721  12.239  1.00  0.00     0.158 HD
ATOM     18  H3  UNL     1      30.000  50.649  13.233  1.00  0.00     0.189 HD
ENDBRANCH  10  12
BRANCH   9  19
HETATM   19  O1  UNL     1      32.058  54.250  14.257  1.00  0.00    -0.347 OA
ATOM     20  H1  UNL     1      31.920  54.854  14.977  1.00  0.00     0.219 HD
ENDBRANCH   9  19
ENDBRANCH   8   9
BRANCH   8  21
HETATM   21  N5  UNL     1      30.248  55.774  12.918  1.00  0.00    -0.065 N 
ATOM     22  H53 UNL     1      29.673  56.174  13.659  1.00  0.00     0.275 HD
ATOM     23  H52 UNL     1      31.173  55.998  13.285  1.00  0.00     0.275 HD
ATOM     24  H51 UNL     1      30.083  56.253  12.032  1.00  0.00     0.275 HD
ENDBRANCH   8  21
ENDBRANCH   1   8
BRANCH   3  25
HETATM   25  N6  UNL     1      30.471  50.947   9.330  1.00  0.00    -0.153 N 
ATOM     26  H6  UNL     1      30.403  50.037   9.784  1.00  0.00     0.188 HD
BRANCH  25  27
HETATM   27  C6  UNL     1      30.886  50.943   8.120  1.00  0.00     0.714 A 
HETATM   28  N7  UNL     1      30.321  50.188   7.166  1.00  0.00    -0.021 N 
HETATM   29  C7  UNL     1      30.751  50.186   5.903  1.00  0.00     0.705 A 
ATOM     30  H7  UNL     1      29.532  49.593   7.415  1.00  0.00     0.203 HD
HETATM   31  N9  UNL     1      31.786  50.963   5.556  1.00  0.00    -0.022 N 
HETATM   32  C8  UNL     1      32.372  51.731   6.486  1.00  0.00     0.705 A 
ATOM     33  H9  UNL     1      32.123  50.971   4.594  1.00  0.00     0.203 HD
HETATM   34  N11 UNL     1      31.921  51.722   7.773  1.00  0.00    -0.021 N 
ATOM     35  H11 UNL     1      32.374  52.309   8.473  1.00  0.00     0.203 HD
BRANCH  29  36
HETATM   36  N8  UNL     1      30.175  49.432   4.994  1.00  0.00    -0.234 N 
ATOM     37  H82 UNL     1      29.551  48.681   5.287  1.00  0.00     0.174 HD
ATOM     38  H81 UNL     1      30.342  49.588   4.000  1.00  0.00     0.174 HD
ENDBRANCH  29  36
BRANCH  32  39
HETATM   39  N10 UNL     1      33.359  52.492   6.218  1.00  0.00    -0.234 N 
ATOM     40 2H10 UNL     1      33.251  53.486   6.419  1.00  0.00     0.174 HD
ATOM     41 1H10 UNL     1      34.228  52.138   5.819  1.00  0.00     0.174 HD
ENDBRANCH  32  39
ENDBRANCH  25  27
ENDBRANCH   3  25
TORSDOF 9
ENDMDL
MODEL 5
REMARK VINA RESULT: -7.975347077      1.794      2.278
REMARK  9 active torsions:
REMARK  status: ('A' for Active; 'I' for Inactive)
REMARK       I    between atoms: C1_4  and  N3_6 
REMARK    1  A    between atoms: N3_6  and  N4_8 
REMARK    2  A    between atoms: C2_10  and  O1_11 
REMARK    3  A    between atoms: C2_10  and  C3_13 
REMARK    4  A    between atoms: C3_13  and  N5_14 
REMARK    5  A    between atoms: C3_13  and  C4_18 
REMARK    6  A    between atoms: C5_20  and  N6_21 
REMARK    7  A    between atoms: N6_21  and  C6_23 
REMARK    8  A    between atoms: C7_26  and  N8_27 
REMARK    9  A    between atoms: C8_32  and  N10_33 
ROOT
HETATM    1  C4  UNL     1      29.980  51.668  12.285  1.00  0.00     0.262 C 
HETATM    2  O2  UNL     1      29.122  51.943  11.196  1.00  0.00    -0.304 OA
HETATM    3  C5  UNL     1      29.876  52.022  10.024  1.00  0.00     0.241 C 
HETATM    4  N12 UNL     1      31.127  52.233  10.368  1.00  0.00    -0.290 N 
ATOM      5  H12 UNL     1      31.901  52.335   9.711  1.00  0.00     0.172 HD
HETATM    6  C9  UNL     1      31.250  52.299  11.777  1.00  0.00     0.257 C 
HETATM    7  O3  UNL     1      32.172  52.763  12.493  1.00  0.00    -0.270 OA
ENDROOT
BRANCH   1   8
HETATM    8  C3  UNL     1      29.529  52.357  13.554  1.00  0.00     0.297 C 
BRANCH   8   9
HETATM    9  C2  UNL     1      28.210  52.961  13.438  1.00  0.00     0.164 C 
HETATM   10  N4  UNL     1      27.968  53.964  12.715  1.00  0.00    -0.279 N 
ATOM     11  H4  UNL     1      27.000  54.282  12.728  1.00  0.00     0.189 HD
BRANCH  10  12
HETATM   12  N3  UNL     1      28.811  54.698  11.911  1.00  0.00    -0.272 N 
HETATM   13  C1  UNL     1      29.992  55.329  12.394  1.00  0.00     0.200 C 
HETATM   14  N1  UNL     1      30.989  55.484  11.565  1.00  0.00    -0.372 N 
HETATM   15  N2  UNL     1      30.148  55.794  13.709  1.00  0.00    -0.062 NA
ATOM     16  H12 UNL     1      31.836  55.936  11.911  1.00  0.00     0.158 HD
ATOM     17  H11 UNL     1      30.876  55.146  10.609  1.00  0.00     0.158 HD
ATOM     18  H3  UNL     1      28.579  54.794  10.923  1.00  0.00     0.189 HD
ENDBRANCH  10  12
BRANCH   9  19
HETATM   19  O1  UNL     1      27.149  52.407  14.159  1.00  0.00    -0.347 OA
ATOM     20  H1  UNL     1      26.983  51.477  14.059  1.00  0.00     0.219 HD
ENDBRANCH   9  19
ENDBRANCH   8   9
BRANCH   8  21
HETATM   21  N5  UNL     1      29.618  51.400  14.620  1.00  0.00    -0.065 N 
ATOM     22  H53 UNL     1      30.019  51.824  15.456  1.00  0.00     0.275 HD
ATOM     23  H52 UNL     1      28.692  51.167  14.978  1.00  0.00     0.275 HD
ATOM     24  H51 UNL     1      30.130  50.557  14.358  1.00  0.00     0.275 HD
ENDBRANCH   8  21
ENDBRANCH   1   8
BRANCH   3  25
HETATM   25  N6  UNL     1      29.504  51.917   8.670  1.00  0.00    -0.153 N 
ATOM     26  H6  UNL     1      28.552  52.201   8.441  1.00  0.00     0.188 HD
BRANCH  25  27
HETATM   27  C6  UNL     1      30.221  51.506   7.694  1.00  0.00     0.714 A 
HETATM   28  N7  UNL     1      29.782  50.600   6.807  1.00  0.00    -0.021 N 
HETATM   29  C7  UNL     1      30.527  50.172   5.787  1.00  0.00     0.705 A 
ATOM     30  H7  UNL     1      28.841  50.223   6.918  1.00  0.00     0.203 HD
HETATM   31  N9  UNL     1      31.765  50.658   5.625  1.00  0.00    -0.022 N 
HETATM   32  C8  UNL     1      32.234  51.566   6.493  1.00  0.00     0.705 A 
ATOM     33  H9  UNL     1      32.345  50.340   4.848  1.00  0.00     0.203 HD
HETATM   34  N11 UNL     1      31.460  51.992   7.531  1.00  0.00    -0.021 N 
ATOM     35  H11 UNL     1      31.826  52.683   8.187  1.00  0.00     0.203 HD
BRANCH  29  36
HETATM   36  N8  UNL     1      30.065  49.282   4.938  1.00  0.00    -0.234 N 
ATOM     37  H82 UNL     1      29.707  48.394   5.288  1.00  0.00     0.174 HD
ATOM     38  H81 UNL     1      30.059  49.466   3.935  1.00  0.00     0.174 HD
ENDBRANCH  29  36
BRANCH  32  39
HETATM   39  N10 UNL     1      33.402  52.066   6.392  1.00  0.00    -0.234 N 
ATOM     40 2H10 UNL     1      33.592  52.650   5.577  1.00  0.00     0.174 HD
ATOM     41 1H10 UNL     1      34.130  51.898   7.087  1.00  0.00     0.174 HD
ENDBRANCH  32  39
ENDBRANCH  25  27
ENDBRANCH   3  25
TORSDOF 9
ENDMDL
