MODEL 1
REMARK VINA RESULT: -9.766219333      0.000      0.000
REMARK  8 active torsions:
REMARK  status: ('A' for Active; 'I' for Inactive)
REMARK    1  A    between atoms: C3_3  and  O1_4 
REMARK       I    between atoms: N3_13  and  C6_15 
REMARK       I    between atoms: C6_15  and  N5_19 
REMARK       I    between atoms: N5_19  and  C7_21 
REMARK    2  A    between atoms: C7_21  and  C8_23 
REMARK    3  A    between atoms: C8_23  and  N6_24 
REMARK    4  A    between atoms: C8_23  and  C9_28 
REMARK    5  A    between atoms: C9_28  and  O4_29 
REMARK    6  A    between atoms: C9_28  and  C10_31 
REMARK    7  A    between atoms: C10_31  and  O5_32 
REMARK    8  A    between atoms: C10_31  and  C11_34 
ROOT
HETATM    1  C1  UNL     1      29.367  53.972  10.737  1.00  0.00     0.057 C 
HETATM    2  C2  UNL     1      29.607  52.965  11.795  1.00  0.00     0.034 A 
HETATM    3  C3  UNL     1      28.497  52.637  12.591  1.00  0.00     0.153 A 
HETATM    4  N1  UNL     1      28.692  51.725  13.551  1.00  0.00    -0.288 N 
ATOM      5  H1  UNL     1      27.914  51.458  14.154  1.00  0.00     0.172 HD
HETATM    6  C4  UNL     1      29.901  51.155  13.735  1.00  0.00     0.327 A 
HETATM    7  O2  UNL     1      30.038  50.289  14.666  1.00  0.00    -0.247 OA
HETATM    8  N2  UNL     1      30.948  51.463  12.988  1.00  0.00    -0.293 N 
ATOM      9  H2  UNL     1      31.843  51.006  13.166  1.00  0.00     0.172 HD
HETATM   10  C5  UNL     1      30.850  52.402  11.959  1.00  0.00     0.135 A 
HETATM   11  N3  UNL     1      31.890  52.632  11.312  1.00  0.00    -0.176 N 
ATOM     12  H3  UNL     1      32.665  52.065  11.657  1.00  0.00     0.186 HD
HETATM   13  C6  UNL     1      32.289  53.416  10.284  1.00  0.00     0.680 C 
HETATM   14  N4  UNL     1      32.559  54.707  10.388  1.00  0.00    -0.234 N 
ATOM     15  H41 UNL     1      32.860  55.298   9.613  1.00  0.00     0.174 HD
ATOM     16  H42 UNL     1      32.423  55.086  11.325  1.00  0.00     0.174 HD
HETATM   17  N5  UNL     1      32.484  52.875   8.948  1.00  0.00    -0.158 N 
ATOM     18  H5  UNL     1      32.799  53.494   8.201  1.00  0.00     0.187 HD
HETATM   19  C7  UNL     1      32.246  51.512   8.661  1.00  0.00     0.269 C 
HETATM   20  O3  UNL     1      31.857  50.757   9.578  1.00  0.00    -0.270 OA
ENDROOT
BRANCH  19  21
HETATM   21  C8  UNL     1      32.448  50.978   7.306  1.00  0.00     0.306 C 
BRANCH  21  22
HETATM   22  N6  UNL     1      33.635  51.687   6.756  1.00  0.00    -0.064 N 
ATOM     23  H63 UNL     1      33.903  52.510   7.295  1.00  0.00     0.275 HD
ATOM     24  H62 UNL     1      34.507  51.171   6.874  1.00  0.00     0.275 HD
ATOM     25  H61 UNL     1      33.414  51.894   5.782  1.00  0.00     0.275 HD
ENDBRANCH  21  22
BRANCH  21  26
HETATM   26  C9  UNL     1      31.340  51.354   6.339  1.00  0.00     0.195 C 
BRANCH  26  27
HETATM   27  O4  UNL     1      31.842  51.023   5.054  1.00  0.00    -0.390 OA
ATOM     28  H4  UNL     1      31.716  50.085   4.973  1.00  0.00     0.210 HD
ENDBRANCH  26  27
BRANCH  26  29
HETATM   29  C10 UNL     1      30.079  50.575   6.500  1.00  0.00     0.238 C 
BRANCH  29  30
HETATM   30  O5  UNL     1      29.740  50.332   7.837  1.00  0.00    -0.384 OA
ATOM     31  H5  UNL     1      29.719  49.408   8.060  1.00  0.00     0.210 HD
ENDBRANCH  29  30
BRANCH  29  32
HETATM   32  C11 UNL     1      30.338  49.240   5.838  1.00  0.00     0.262 C 
HETATM   33  N7  UNL     1      31.029  48.210   6.530  1.00  0.00    -0.060 NA
HETATM   34  O6  UNL     1      29.955  49.001   4.670  1.00  0.00    -0.274 OA
ENDBRANCH  29  32
ENDBRANCH  26  29
ENDBRANCH  21  26
ENDBRANCH  19  21
BRANCH   3  35
HETATM   35  O1  UNL     1      27.269  53.247  12.368  1.00  0.00    -0.345 OA
ATOM     36  H1  UNL     1      26.792  53.644  13.088  1.00  0.00     0.219 HD
ENDBRANCH   3  35
TORSDOF 8
ENDMDL
MODEL 2
REMARK VINA RESULT: -9.439427501      0.958      1.145
REMARK  8 active torsions:
REMARK  status: ('A' for Active; 'I' for Inactive)
REMARK    1  A    between atoms: C3_3  and  O1_4 
REMARK       I    between atoms: N3_13  and  C6_15 
REMARK       I    between atoms: C6_15  and  N5_19 
REMARK       I    between atoms: N5_19  and  C7_21 
REMARK    2  A    between atoms: C7_21  and  C8_23 
REMARK    3  A    between atoms: C8_23  and  N6_24 
REMARK    4  A    between atoms: C8_23  and  C9_28 
REMARK    5  A    between atoms: C9_28  and  O4_29 
REMARK    6  A    between atoms: C9_28  and  C10_31 
REMARK    7  A    between atoms: C10_31  and  O5_32 
REMARK    8  A    between atoms: C10_31  and  C11_34 
ROOT
HETATM    1  C1  UNL     1      29.183  54.209  11.222  1.00  0.00     0.057 C 
HETATM    2  C2  UNL     1      29.463  53.107  12.170  1.00  0.00     0.034 A 
HETATM    3  C3  UNL     1      28.380  52.690  12.960  1.00  0.00     0.153 A 
HETATM    4  N1  UNL     1      28.611  51.692  13.822  1.00  0.00    -0.288 N 
ATOM      5  H1  UNL     1      27.853  51.358  14.417  1.00  0.00     0.172 HD
HETATM    6  C4  UNL     1      29.829  51.120  13.915  1.00  0.00     0.327 A 
HETATM    7  O2  UNL     1      30.002  50.169  14.752  1.00  0.00    -0.247 OA
HETATM    8  N2  UNL     1      30.851  51.511  13.172  1.00  0.00    -0.293 N 
ATOM      9  H2  UNL     1      31.755  51.049  13.279  1.00  0.00     0.172 HD
HETATM   10  C5  UNL     1      30.716  52.545  12.243  1.00  0.00     0.135 A 
HETATM   11  N3  UNL     1      31.734  52.848  11.592  1.00  0.00    -0.176 N 
ATOM     12  H3  UNL     1      32.523  52.259  11.858  1.00  0.00     0.186 HD
HETATM   13  C6  UNL     1      32.096  53.733  10.634  1.00  0.00     0.680 C 
HETATM   14  N4  UNL     1      32.357  55.011  10.855  1.00  0.00    -0.234 N 
ATOM     15  H41 UNL     1      32.630  55.678  10.134  1.00  0.00     0.174 HD
ATOM     16  H42 UNL     1      32.245  55.295  11.828  1.00  0.00     0.174 HD
HETATM   17  N5  UNL     1      32.256  53.327   9.246  1.00  0.00    -0.158 N 
ATOM     18  H5  UNL     1      32.543  54.019   8.555  1.00  0.00     0.187 HD
HETATM   19  C7  UNL     1      32.022  51.996   8.835  1.00  0.00     0.269 C 
HETATM   20  O3  UNL     1      31.667  51.150   9.684  1.00  0.00    -0.270 OA
ENDROOT
BRANCH  19  21
HETATM   21  C8  UNL     1      32.188  51.598   7.429  1.00  0.00     0.306 C 
BRANCH  21  22
HETATM   22  N6  UNL     1      32.355  52.861   6.660  1.00  0.00    -0.064 N 
ATOM     23  H63 UNL     1      31.521  53.449   6.658  1.00  0.00     0.275 HD
ATOM     24  H62 UNL     1      32.977  53.531   7.110  1.00  0.00     0.275 HD
ATOM     25  H61 UNL     1      32.660  52.586   5.727  1.00  0.00     0.275 HD
ENDBRANCH  21  22
BRANCH  21  26
HETATM   26  C9  UNL     1      30.939  50.986   6.825  1.00  0.00     0.195 C 
BRANCH  26  27
HETATM   27  O4  UNL     1      30.280  52.058   6.170  1.00  0.00    -0.390 OA
ATOM     28  H4  UNL     1      29.956  51.691   5.356  1.00  0.00     0.210 HD
ENDBRANCH  26  27
BRANCH  26  29
HETATM   29  C10 UNL     1      31.191  49.958   5.774  1.00  0.00     0.238 C 
BRANCH  29  30
HETATM   30  O5  UNL     1      30.226  49.951   4.758  1.00  0.00    -0.384 OA
ATOM     31  H5  UNL     1      30.584  50.129   3.896  1.00  0.00     0.210 HD
ENDBRANCH  29  30
BRANCH  29  32
HETATM   32  C11 UNL     1      31.124  48.624   6.484  1.00  0.00     0.262 C 
HETATM   33  N7  UNL     1      31.323  48.540   7.888  1.00  0.00    -0.060 NA
HETATM   34  O6  UNL     1      30.895  47.560   5.864  1.00  0.00    -0.274 OA
ENDBRANCH  29  32
ENDBRANCH  26  29
ENDBRANCH  21  26
ENDBRANCH  19  21
BRANCH   3  35
HETATM   35  O1  UNL     1      27.140  53.305  12.833  1.00  0.00    -0.345 OA
ATOM     36  H1  UNL     1      26.890  54.007  13.422  1.00  0.00     0.219 HD
ENDBRANCH   3  35
TORSDOF 8
ENDMDL
MODEL 3
REMARK VINA RESULT: -9.356038608      1.117      1.145
REMARK  8 active torsions:
REMARK  status: ('A' for Active; 'I' for Inactive)
REMARK    1  A    between atoms: C3_3  and  O1_4 
REMARK       I    between atoms: N3_13  and  C6_15 
REMARK       I    between atoms: C6_15  and  N5_19 
REMARK       I    between atoms: N5_19  and  C7_21 
REMARK    2  A    between atoms: C7_21  and  C8_23 
REMARK    3  A    between atoms: C8_23  and  N6_24 
REMARK    4  A    between atoms: C8_23  and  C9_28 
REMARK    5  A    between atoms: C9_28  and  O4_29 
REMARK    6  A    between atoms: C9_28  and  C10_31 
REMARK    7  A    between atoms: C10_31  and  O5_32 
REMARK    8  A    between atoms: C10_31  and  C11_34 
ROOT
HETATM    1  C1  UNL     1      29.338  54.235  10.958  1.00  0.00     0.057 C 
HETATM    2  C2  UNL     1      29.603  53.145  11.924  1.00  0.00     0.034 A 
HETATM    3  C3  UNL     1      28.493  52.691  12.654  1.00  0.00     0.153 A 
HETATM    4  N1  UNL     1      28.711  51.703  13.531  1.00  0.00    -0.288 N 
ATOM      5  H1  UNL     1      27.933  51.343  14.084  1.00  0.00     0.172 HD
HETATM    6  C4  UNL     1      29.942  51.175  13.694  1.00  0.00     0.327 A 
HETATM    7  O2  UNL     1      30.101  50.233  14.543  1.00  0.00    -0.247 OA
HETATM    8  N2  UNL     1      30.989  51.602  13.007  1.00  0.00    -0.293 N 
ATOM      9  H2  UNL     1      31.901  51.173  13.166  1.00  0.00     0.172 HD
HETATM   10  C5  UNL     1      30.869  52.628  12.068  1.00  0.00     0.135 A 
HETATM   11  N3  UNL     1      31.910  52.967  11.474  1.00  0.00    -0.176 N 
ATOM     12  H3  UNL     1      32.704  52.407  11.786  1.00  0.00     0.186 HD
HETATM   13  C6  UNL     1      32.293  53.863  10.535  1.00  0.00     0.680 C 
HETATM   14  N4  UNL     1      32.496  55.150  10.766  1.00  0.00    -0.234 N 
ATOM     15  H41 UNL     1      32.785  55.825  10.059  1.00  0.00     0.174 HD
ATOM     16  H42 UNL     1      32.320  55.432  11.730  1.00  0.00     0.174 HD
HETATM   17  N5  UNL     1      32.545  53.461   9.160  1.00  0.00    -0.158 N 
ATOM     18  H5  UNL     1      32.846  54.162   8.483  1.00  0.00     0.187 HD
HETATM   19  C7  UNL     1      32.382  52.121   8.741  1.00  0.00     0.269 C 
HETATM   20  O3  UNL     1      32.010  51.265   9.572  1.00  0.00    -0.270 OA
ENDROOT
BRANCH  19  21
HETATM   21  C8  UNL     1      32.641  51.728   7.348  1.00  0.00     0.306 C 
BRANCH  21  22
HETATM   22  N6  UNL     1      31.893  52.695   6.500  1.00  0.00    -0.064 N 
ATOM     23  H63 UNL     1      31.193  53.230   7.014  1.00  0.00     0.275 HD
ATOM     24  H62 UNL     1      32.457  53.489   6.197  1.00  0.00     0.275 HD
ATOM     25  H61 UNL     1      31.505  52.154   5.728  1.00  0.00     0.275 HD
ENDBRANCH  21  22
BRANCH  21  26
HETATM   26  C9  UNL     1      32.026  50.392   6.976  1.00  0.00     0.195 C 
BRANCH  26  27
HETATM   27  O4  UNL     1      31.949  49.667   8.193  1.00  0.00    -0.390 OA
ATOM     28  H4  UNL     1      31.074  49.298   8.207  1.00  0.00     0.210 HD
ENDBRANCH  26  27
BRANCH  26  29
HETATM   29  C10 UNL     1      30.630  50.469   6.456  1.00  0.00     0.238 C 
BRANCH  29  30
HETATM   30  O5  UNL     1      29.668  50.624   7.463  1.00  0.00    -0.384 OA
ATOM     31  H5  UNL     1      29.937  50.265   8.301  1.00  0.00     0.210 HD
ENDBRANCH  29  30
BRANCH  29  32
HETATM   32  C11 UNL     1      30.375  49.144   5.774  1.00  0.00     0.262 C 
HETATM   33  N7  UNL     1      29.509  49.061   4.651  1.00  0.00    -0.060 NA
HETATM   34  O6  UNL     1      30.914  48.085   6.173  1.00  0.00    -0.274 OA
ENDBRANCH  29  32
ENDBRANCH  26  29
ENDBRANCH  21  26
ENDBRANCH  19  21
BRANCH   3  35
HETATM   35  O1  UNL     1      27.241  53.261  12.456  1.00  0.00    -0.345 OA
ATOM     36  H1  UNL     1      27.016  53.644  11.617  1.00  0.00     0.219 HD
ENDBRANCH   3  35
TORSDOF 8
ENDMDL
MODEL 4
REMARK VINA RESULT: -7.911744812      1.126      1.583
REMARK  8 active torsions:
REMARK  status: ('A' for Active; 'I' for Inactive)
REMARK    1  A    between atoms: C3_3  and  O1_4 
REMARK       I    between atoms: N3_13  and  C6_15 
REMARK       I    between atoms: C6_15  and  N5_19 
REMARK       I    between atoms: N5_19  and  C7_21 
REMARK    2  A    between atoms: C7_21  and  C8_23 
REMARK    3  A    between atoms: C8_23  and  N6_24 
REMARK    4  A    between atoms: C8_23  and  C9_28 
REMARK    5  A    between atoms: C9_28  and  O4_29 
REMARK    6  A    between atoms: C9_28  and  C10_31 
REMARK    7  A    between atoms: C10_31  and  O5_32 
REMARK    8  A    between atoms: C10_31  and  C11_34 
ROOT
HETATM    1  C1  UNL     1      29.450  53.992  10.726  1.00  0.00     0.057 C 
HETATM    2  C2  UNL     1      29.721  52.972  11.764  1.00  0.00     0.034 A 
HETATM    3  C3  UNL     1      28.617  52.577  12.537  1.00  0.00     0.153 A 
HETATM    4  N1  UNL     1      28.840  51.653  13.479  1.00  0.00    -0.288 N 
ATOM      5  H1  UNL     1      28.066  51.337  14.065  1.00  0.00     0.172 HD
HETATM    6  C4  UNL     1      30.070  51.132  13.666  1.00  0.00     0.327 A 
HETATM    7  O2  UNL     1      30.234  50.251  14.578  1.00  0.00    -0.247 OA
HETATM    8  N2  UNL     1      31.112  51.503  12.940  1.00  0.00    -0.293 N 
ATOM      9  H2  UNL     1      32.024  51.081  13.119  1.00  0.00     0.172 HD
HETATM   10  C5  UNL     1      30.986  52.460  11.932  1.00  0.00     0.135 A 
HETATM   11  N3  UNL     1      32.022  52.750  11.304  1.00  0.00    -0.176 N 
ATOM     12  H3  UNL     1      32.817  52.210  11.646  1.00  0.00     0.186 HD
HETATM   13  C6  UNL     1      32.399  53.574  10.299  1.00  0.00     0.680 C 
HETATM   14  N4  UNL     1      32.610  54.874  10.436  1.00  0.00    -0.234 N 
ATOM     15  H41 UNL     1      32.894  55.495   9.679  1.00  0.00     0.174 HD
ATOM     16  H42 UNL     1      32.446  55.224  11.379  1.00  0.00     0.174 HD
HETATM   17  N5  UNL     1      32.634  53.074   8.953  1.00  0.00    -0.158 N 
ATOM     18  H5  UNL     1      32.930  53.723   8.225  1.00  0.00     0.187 HD
HETATM   19  C7  UNL     1      32.460  51.709   8.633  1.00  0.00     0.269 C 
HETATM   20  O3  UNL     1      32.094  50.916   9.527  1.00  0.00    -0.270 OA
ENDROOT
BRANCH  19  21
HETATM   21  C8  UNL     1      32.702  51.216   7.269  1.00  0.00     0.306 C 
BRANCH  21  22
HETATM   22  N6  UNL     1      33.680  52.156   6.658  1.00  0.00    -0.064 N 
ATOM     23  H63 UNL     1      33.840  51.987   5.665  1.00  0.00     0.275 HD
ATOM     24  H62 UNL     1      33.325  53.108   6.566  1.00  0.00     0.275 HD
ATOM     25  H61 UNL     1      34.526  52.090   7.223  1.00  0.00     0.275 HD
ENDBRANCH  21  22
BRANCH  21  26
HETATM   26  C9  UNL     1      31.492  51.335   6.362  1.00  0.00     0.195 C 
BRANCH  26  27
HETATM   27  O4  UNL     1      31.915  50.820   5.110  1.00  0.00    -0.390 OA
ATOM     28  H4  UNL     1      32.807  50.528   5.250  1.00  0.00     0.210 HD
ENDBRANCH  26  27
BRANCH  26  29
HETATM   29  C10 UNL     1      30.320  50.508   6.770  1.00  0.00     0.238 C 
BRANCH  29  30
HETATM   30  O5  UNL     1      29.684  49.873   5.695  1.00  0.00    -0.384 OA
ATOM     31  H5  UNL     1      29.435  48.976   5.881  1.00  0.00     0.210 HD
ENDBRANCH  29  30
BRANCH  29  32
HETATM   32  C11 UNL     1      29.333  51.475   7.385  1.00  0.00     0.262 C 
HETATM   33  N7  UNL     1      28.665  52.438   6.583  1.00  0.00    -0.060 NA
HETATM   34  O6  UNL     1      29.075  51.460   8.611  1.00  0.00    -0.274 OA
ENDBRANCH  29  32
ENDBRANCH  26  29
ENDBRANCH  21  26
ENDBRANCH  19  21
BRANCH   3  35
HETATM   35  O1  UNL     1      27.365  53.138  12.311  1.00  0.00    -0.345 OA
ATOM     36  H1  UNL     1      26.699  52.652  11.840  1.00  0.00     0.219 HD
ENDBRANCH   3  35
TORSDOF 8
ENDMDL
MODEL 5
REMARK VINA RESULT: -7.436691681      1.926      2.179
REMARK  8 active torsions:
REMARK  status: ('A' for Active; 'I' for Inactive)
REMARK    1  A    between atoms: C3_3  and  O1_4 
REMARK       I    between atoms: N3_13  and  C6_15 
REMARK       I    between atoms: C6_15  and  N5_19 
REMARK       I    between atoms: N5_19  and  C7_21 
REMARK    2  A    between atoms: C7_21  and  C8_23 
REMARK    3  A    between atoms: C8_23  and  N6_24 
REMARK    4  A    between atoms: C8_23  and  C9_28 
REMARK    5  A    between atoms: C9_28  and  O4_29 
REMARK    6  A    between atoms: C9_28  and  C10_31 
REMARK    7  A    between atoms: C10_31  and  O5_32 
REMARK    8  A    between atoms: C10_31  and  C11_34 
ROOT
HETATM    1  C1  UNL     1      31.491  54.777  11.331  1.00  0.00     0.057 C 
HETATM    2  C2  UNL     1      30.526  53.900  12.032  1.00  0.00     0.034 A 
HETATM    3  C3  UNL     1      29.686  54.534  12.961  1.00  0.00     0.153 A 
HETATM    4  N1  UNL     1      28.804  53.759  13.604  1.00  0.00    -0.288 N 
ATOM      5  H1  UNL     1      28.174  54.177  14.289  1.00  0.00     0.172 HD
HETATM    6  C4  UNL     1      28.733  52.434  13.360  1.00  0.00     0.327 A 
HETATM    7  O2  UNL     1      27.874  51.734  13.997  1.00  0.00    -0.247 OA
HETATM    8  N2  UNL     1      29.524  51.834  12.485  1.00  0.00    -0.293 N 
ATOM      9  H2  UNL     1      29.435  50.829  12.335  1.00  0.00     0.172 HD
HETATM   10  C5  UNL     1      30.479  52.553  11.762  1.00  0.00     0.135 A 
HETATM   11  N3  UNL     1      31.182  51.903  10.965  1.00  0.00    -0.176 N 
ATOM     12  H3  UNL     1      30.923  50.916  10.975  1.00  0.00     0.186 HD
HETATM   13  C6  UNL     1      32.190  52.126  10.091  1.00  0.00     0.680 C 
HETATM   14  N4  UNL     1      33.457  52.292  10.434  1.00  0.00    -0.234 N 
ATOM     15  H41 UNL     1      34.217  52.460   9.775  1.00  0.00     0.174 HD
ATOM     16  H42 UNL     1      33.623  52.255  11.440  1.00  0.00     0.174 HD
HETATM   17  N5  UNL     1      31.953  52.179   8.656  1.00  0.00    -0.158 N 
ATOM     18  H5  UNL     1      32.740  52.336   8.027  1.00  0.00     0.187 HD
HETATM   19  C7  UNL     1      30.658  52.017   8.116  1.00  0.00     0.269 C 
HETATM   20  O3  UNL     1      29.695  51.827   8.889  1.00  0.00    -0.270 OA
ENDROOT
BRANCH  19  21
HETATM   21  C8  UNL     1      30.433  52.071   6.663  1.00  0.00     0.306 C 
BRANCH  21  22
HETATM   22  N6  UNL     1      28.977  51.836   6.463  1.00  0.00    -0.064 N 
ATOM     23  H63 UNL     1      28.765  50.930   6.047  1.00  0.00     0.275 HD
ATOM     24  H62 UNL     1      28.465  51.697   7.333  1.00  0.00     0.275 HD
ATOM     25  H61 UNL     1      28.637  52.625   5.913  1.00  0.00     0.275 HD
ENDBRANCH  21  22
BRANCH  21  26
HETATM   26  C9  UNL     1      31.076  50.921   5.911  1.00  0.00     0.195 C 
BRANCH  26  27
HETATM   27  O4  UNL     1      32.438  51.290   5.766  1.00  0.00    -0.390 OA
ATOM     28  H4  UNL     1      32.879  50.915   6.518  1.00  0.00     0.210 HD
ENDBRANCH  26  27
BRANCH  26  29
HETATM   29  C10 UNL     1      31.080  49.620   6.641  1.00  0.00     0.238 C 
BRANCH  29  30
HETATM   30  O5  UNL     1      32.359  49.208   7.037  1.00  0.00    -0.384 OA
ATOM     31  H5  UNL     1      32.691  48.472   6.536  1.00  0.00     0.210 HD
ENDBRANCH  29  30
BRANCH  29  32
HETATM   32  C11 UNL     1      30.549  48.601   5.658  1.00  0.00     0.262 C 
HETATM   33  N7  UNL     1      29.579  48.966   4.687  1.00  0.00    -0.060 NA
HETATM   34  O6  UNL     1      30.942  47.411   5.669  1.00  0.00    -0.274 OA
ENDBRANCH  29  32
ENDBRANCH  26  29
ENDBRANCH  21  26
ENDBRANCH  19  21
BRANCH   3  35
HETATM   35  O1  UNL     1      29.790  55.902  13.183  1.00  0.00    -0.345 OA
ATOM     36  H1  UNL     1      30.631  56.292  13.390  1.00  0.00     0.219 HD
ENDBRANCH   3  35
TORSDOF 8
ENDMDL
