MODEL 1
REMARK VINA RESULT: -8.745216224      0.000      0.000
REMARK  7 active torsions:
REMARK  status: ('A' for Active; 'I' for Inactive)
REMARK    1  A    between atoms: C2_2  and  C3_3 
REMARK    2  A    between atoms: C15_19  and  O5_20 
REMARK    3  A    between atoms: O5_20  and  C16_21 
REMARK    4  A    between atoms: C16_21  and  C17_23 
REMARK    5  A    between atoms: C18_24  and  C19_25 
REMARK    6  A    between atoms: C20_26  and  C21_27 
REMARK    7  A    between atoms: C21_27  and  C23_29 
ROOT
HETATM    1  C23 UNL     1      19.511  56.712  38.213  1.00  0.00    -0.099 C 
HETATM    2  C24 UNL     1      20.307  56.416  37.348  1.00  0.00    -0.110 C 
HETATM    3  C25 UNL     1      21.284  56.052  36.314  1.00  0.00     0.112 C 
ENDROOT
BRANCH   1   4
HETATM    4  C21 UNL     1      18.566  57.050  39.262  1.00  0.00     0.083 C 
HETATM    5  C22 UNL     1      18.240  55.798  40.041  1.00  0.00     0.027 C 
BRANCH   4   6
HETATM    6  C20 UNL     1      17.301  57.609  38.728  1.00  0.00    -0.010 C 
HETATM    7  C19 UNL     1      16.603  57.038  37.772  1.00  0.00    -0.003 C 
BRANCH   7   8
HETATM    8  C18 UNL     1      15.370  57.626  37.285  1.00  0.00     0.006 C 
HETATM    9  C17 UNL     1      14.598  58.400  38.020  1.00  0.00     0.082 C 
BRANCH   9  10
HETATM   10  C16 UNL     1      13.394  58.949  37.478  1.00  0.00     0.283 C 
HETATM   11  O6  UNL     1      13.160  58.880  36.245  1.00  0.00    -0.260 OA
BRANCH  10  12
HETATM   12  O5  UNL     1      12.410  59.584  38.242  1.00  0.00    -0.311 OA
BRANCH  12  13
HETATM   13  C15 UNL     1      12.455  60.997  38.503  1.00  0.00     0.151 C 
HETATM   14  C6  UNL     1      11.184  61.587  37.982  1.00  0.00     0.031 C 
HETATM   15  C5  UNL     1       9.958  61.134  38.766  1.00  0.00     0.186 C 
HETATM   16  C7  UNL     1      10.987  61.031  36.565  1.00  0.00     0.023 C 
HETATM   17  C8  UNL     1      11.151  63.072  37.938  1.00  0.00     0.140 C 
HETATM   18  O1  UNL     1       8.857  61.705  38.085  1.00  0.00    -0.351 OA
HETATM   19  C3  UNL     1       8.874  63.083  38.379  1.00  0.00     0.179 C 
HETATM   20  C4  UNL     1       8.299  63.889  37.215  1.00  0.00     0.084 C 
HETATM   21  O7  UNL     1      10.108  63.543  38.749  1.00  0.00    -0.346 OA
HETATM   22  C9  UNL     1      12.403  63.737  38.434  1.00  0.00     0.068 C 
HETATM   23  C10 UNL     1      12.570  63.668  39.925  1.00  0.00     0.166 C 
HETATM   24  O2  UNL     1      13.547  64.668  40.264  1.00  0.00    -0.290 OA
HETATM   25  C12 UNL     1      13.247  62.434  40.406  1.00  0.00     0.170 C 
HETATM   26  C11 UNL     1      14.770  64.021  40.053  1.00  0.00     0.407 C 
HETATM   27  O3  UNL     1      15.911  64.555  39.926  1.00  0.00    -0.229 OA
HETATM   28  O4  UNL     1      14.583  62.643  39.996  1.00  0.00    -0.290 OA
HETATM   29  C13 UNL     1      12.660  61.152  39.974  1.00  0.00     0.044 C 
HETATM   30  C14 UNL     1      13.618  60.035  40.411  1.00  0.00     0.015 C 
BRANCH  19  31
HETATM   31  C2  UNL     1       7.943  63.305  39.531  1.00  0.00     0.030 C 
HETATM   32  C1  UNL     1       7.446  64.473  39.842  1.00  0.00     0.012 C 
ENDBRANCH  19  31
ENDBRANCH  12  13
ENDBRANCH  10  12
ENDBRANCH   9  10
ENDBRANCH   7   8
ENDBRANCH   4   6
ENDBRANCH   1   4
TORSDOF 7
ENDMDL
MODEL 2
REMARK VINA RESULT: -8.430727143      3.257      5.186
REMARK  7 active torsions:
REMARK  status: ('A' for Active; 'I' for Inactive)
REMARK    1  A    between atoms: C2_2  and  C3_3 
REMARK    2  A    between atoms: C15_19  and  O5_20 
REMARK    3  A    between atoms: O5_20  and  C16_21 
REMARK    4  A    between atoms: C16_21  and  C17_23 
REMARK    5  A    between atoms: C18_24  and  C19_25 
REMARK    6  A    between atoms: C20_26  and  C21_27 
REMARK    7  A    between atoms: C21_27  and  C23_29 
ROOT
HETATM    1  C23 UNL     1      15.365  58.035  40.114  1.00  0.00    -0.099 C 
HETATM    2  C24 UNL     1      15.992  57.004  39.983  1.00  0.00    -0.110 C 
HETATM    3  C25 UNL     1      16.754  55.757  39.845  1.00  0.00     0.112 C 
ENDROOT
BRANCH   1   4
HETATM    4  C21 UNL     1      14.610  59.261  40.292  1.00  0.00     0.083 C 
HETATM    5  C22 UNL     1      13.747  59.124  41.522  1.00  0.00     0.027 C 
BRANCH   4   6
HETATM    6  C20 UNL     1      13.730  59.559  39.136  1.00  0.00    -0.010 C 
HETATM    7  C19 UNL     1      13.861  58.988  37.959  1.00  0.00    -0.003 C 
BRANCH   7   8
HETATM    8  C18 UNL     1      12.973  59.315  36.860  1.00  0.00     0.006 C 
HETATM    9  C17 UNL     1      11.972  60.163  36.968  1.00  0.00     0.082 C 
BRANCH   9  10
HETATM   10  C16 UNL     1      11.133  60.441  35.844  1.00  0.00     0.283 C 
HETATM   11  O6  UNL     1      11.494  60.124  34.683  1.00  0.00    -0.260 OA
BRANCH  10  12
HETATM   12  O5  UNL     1       9.884  61.065  35.935  1.00  0.00    -0.311 OA
BRANCH  12  13
HETATM   13  C15 UNL     1       9.106  61.021  37.143  1.00  0.00     0.151 C 
HETATM   14  C6  UNL     1       8.874  62.433  37.576  1.00  0.00     0.031 C 
HETATM   15  C5  UNL     1       7.974  63.204  36.618  1.00  0.00     0.186 C 
HETATM   16  C7  UNL     1      10.234  63.142  37.514  1.00  0.00     0.023 C 
HETATM   17  C8  UNL     1       8.299  62.587  38.937  1.00  0.00     0.140 C 
HETATM   18  O1  UNL     1       7.944  64.524  37.128  1.00  0.00    -0.351 OA
HETATM   19  C3  UNL     1       7.143  64.489  38.286  1.00  0.00     0.179 C 
HETATM   20  C4  UNL     1       7.607  65.539  39.294  1.00  0.00     0.084 C 
HETATM   21  O7  UNL     1       7.065  63.247  38.854  1.00  0.00    -0.346 OA
HETATM   22  C9  UNL     1       8.037  61.292  39.653  1.00  0.00     0.068 C 
HETATM   23  C10 UNL     1       6.858  60.535  39.113  1.00  0.00     0.166 C 
HETATM   24  O2  UNL     1       6.500  59.579  40.126  1.00  0.00    -0.290 OA
HETATM   25  C12 UNL     1       7.181  59.635  37.973  1.00  0.00     0.170 C 
HETATM   26  C11 UNL     1       7.358  58.501  39.882  1.00  0.00     0.407 C 
HETATM   27  O3  UNL     1       7.640  57.548  40.668  1.00  0.00    -0.229 OA
HETATM   28  O4  UNL     1       7.901  58.596  38.604  1.00  0.00    -0.290 OA
HETATM   29  C13 UNL     1       7.866  60.253  36.822  1.00  0.00     0.044 C 
HETATM   30  C14 UNL     1       8.275  59.123  35.868  1.00  0.00     0.015 C 
BRANCH  19  31
HETATM   31  C2  UNL     1       5.757  64.891  37.883  1.00  0.00     0.030 C 
HETATM   32  C1  UNL     1       4.688  64.209  38.197  1.00  0.00     0.012 C 
ENDBRANCH  19  31
ENDBRANCH  12  13
ENDBRANCH  10  12
ENDBRANCH   9  10
ENDBRANCH   7   8
ENDBRANCH   4   6
ENDBRANCH   1   4
TORSDOF 7
ENDMDL
MODEL 3
REMARK VINA RESULT: -8.380741202      3.476      5.179
REMARK  7 active torsions:
REMARK  status: ('A' for Active; 'I' for Inactive)
REMARK    1  A    between atoms: C2_2  and  C3_3 
REMARK    2  A    between atoms: C15_19  and  O5_20 
REMARK    3  A    between atoms: O5_20  and  C16_21 
REMARK    4  A    between atoms: C16_21  and  C17_23 
REMARK    5  A    between atoms: C18_24  and  C19_25 
REMARK    6  A    between atoms: C20_26  and  C21_27 
REMARK    7  A    between atoms: C21_27  and  C23_29 
ROOT
HETATM    1  C23 UNL     1      15.919  59.969  39.902  1.00  0.00    -0.099 C 
HETATM    2  C24 UNL     1      16.821  60.771  39.779  1.00  0.00    -0.110 C 
HETATM    3  C25 UNL     1      17.922  61.728  39.618  1.00  0.00     0.112 C 
ENDROOT
BRANCH   1   4
HETATM    4  C21 UNL     1      14.845  59.001  40.030  1.00  0.00     0.083 C 
HETATM    5  C22 UNL     1      15.426  57.614  39.892  1.00  0.00     0.027 C 
BRANCH   4   6
HETATM    6  C20 UNL     1      13.798  59.173  38.995  1.00  0.00    -0.010 C 
HETATM    7  C19 UNL     1      14.017  59.011  37.709  1.00  0.00    -0.003 C 
BRANCH   7   8
HETATM    8  C18 UNL     1      12.958  59.192  36.735  1.00  0.00     0.006 C 
HETATM    9  C17 UNL     1      12.114  60.202  36.765  1.00  0.00     0.082 C 
BRANCH   9  10
HETATM   10  C16 UNL     1      11.090  60.322  35.774  1.00  0.00     0.283 C 
HETATM   11  O6  UNL     1      11.196  59.728  34.671  1.00  0.00    -0.260 OA
BRANCH  10  12
HETATM   12  O5  UNL     1       9.926  61.080  35.938  1.00  0.00    -0.311 OA
BRANCH  12  13
HETATM   13  C15 UNL     1       9.162  61.032  37.156  1.00  0.00     0.151 C 
HETATM   14  C6  UNL     1       8.969  62.442  37.616  1.00  0.00     0.031 C 
HETATM   15  C5  UNL     1       8.076  63.250  36.683  1.00  0.00     0.186 C 
HETATM   16  C7  UNL     1      10.344  63.120  37.548  1.00  0.00     0.023 C 
HETATM   17  C8  UNL     1       8.415  62.586  38.987  1.00  0.00     0.140 C 
HETATM   18  O1  UNL     1       8.083  64.561  37.215  1.00  0.00    -0.351 OA
HETATM   19  C3  UNL     1       7.296  64.525  38.383  1.00  0.00     0.179 C 
HETATM   20  C4  UNL     1       7.797  65.547  39.402  1.00  0.00     0.084 C 
HETATM   21  O7  UNL     1       7.196  63.276  38.931  1.00  0.00    -0.346 OA
HETATM   22  C9  UNL     1       8.132  61.285  39.683  1.00  0.00     0.068 C 
HETATM   23  C10 UNL     1       6.928  60.566  39.146  1.00  0.00     0.166 C 
HETATM   24  O2  UNL     1       6.560  59.601  40.147  1.00  0.00    -0.290 OA
HETATM   25  C12 UNL     1       7.216  59.678  37.987  1.00  0.00     0.170 C 
HETATM   26  C11 UNL     1       7.390  58.508  39.874  1.00  0.00     0.407 C 
HETATM   27  O3  UNL     1       7.660  57.535  40.640  1.00  0.00    -0.229 OA
HETATM   28  O4  UNL     1       7.919  58.611  38.591  1.00  0.00    -0.290 OA
HETATM   29  C13 UNL     1       7.901  60.300  36.838  1.00  0.00     0.044 C 
HETATM   30  C14 UNL     1       8.271  59.177  35.859  1.00  0.00     0.015 C 
BRANCH  19  31
HETATM   31  C2  UNL     1       5.915  64.967  38.005  1.00  0.00     0.030 C 
HETATM   32  C1  UNL     1       4.844  64.251  38.224  1.00  0.00     0.012 C 
ENDBRANCH  19  31
ENDBRANCH  12  13
ENDBRANCH  10  12
ENDBRANCH   9  10
ENDBRANCH   7   8
ENDBRANCH   4   6
ENDBRANCH   1   4
TORSDOF 7
ENDMDL
MODEL 4
REMARK VINA RESULT: -8.293123240      3.049      4.121
REMARK  7 active torsions:
REMARK  status: ('A' for Active; 'I' for Inactive)
REMARK    1  A    between atoms: C2_2  and  C3_3 
REMARK    2  A    between atoms: C15_19  and  O5_20 
REMARK    3  A    between atoms: O5_20  and  C16_21 
REMARK    4  A    between atoms: C16_21  and  C17_23 
REMARK    5  A    between atoms: C18_24  and  C19_25 
REMARK    6  A    between atoms: C20_26  and  C21_27 
REMARK    7  A    between atoms: C21_27  and  C23_29 
ROOT
HETATM    1  C23 UNL     1      15.039  57.910  31.444  1.00  0.00    -0.099 C 
HETATM    2  C24 UNL     1      14.241  57.663  30.564  1.00  0.00    -0.110 C 
HETATM    3  C25 UNL     1      13.281  57.380  29.489  1.00  0.00     0.112 C 
ENDROOT
BRANCH   1   4
HETATM    4  C21 UNL     1      16.008  58.214  32.481  1.00  0.00     0.083 C 
HETATM    5  C22 UNL     1      17.160  57.245  32.364  1.00  0.00     0.027 C 
BRANCH   4   6
HETATM    6  C20 UNL     1      15.437  58.097  33.843  1.00  0.00    -0.010 C 
HETATM    7  C19 UNL     1      15.850  57.220  34.730  1.00  0.00    -0.003 C 
BRANCH   7   8
HETATM    8  C18 UNL     1      15.257  57.146  36.052  1.00  0.00     0.006 C 
HETATM    9  C17 UNL     1      15.649  57.894  37.062  1.00  0.00     0.082 C 
BRANCH   9  10
HETATM   10  C16 UNL     1      15.021  57.772  38.341  1.00  0.00     0.283 C 
HETATM   11  O6  UNL     1      15.310  56.817  39.105  1.00  0.00    -0.260 OA
BRANCH  10  12
HETATM   12  O5  UNL     1      14.070  58.670  38.835  1.00  0.00    -0.311 OA
BRANCH  12  13
HETATM   13  C15 UNL     1      14.279  60.092  38.785  1.00  0.00     0.151 C 
HETATM   14  C6  UNL     1      13.050  60.703  38.191  1.00  0.00     0.031 C 
HETATM   15  C5  UNL     1      11.829  60.568  39.093  1.00  0.00     0.186 C 
HETATM   16  C7  UNL     1      12.717  59.889  36.933  1.00  0.00     0.023 C 
HETATM   17  C8  UNL     1      13.173  62.139  37.832  1.00  0.00     0.140 C 
HETATM   18  O1  UNL     1      10.758  61.108  38.341  1.00  0.00    -0.351 OA
HETATM   19  C3  UNL     1      10.938  62.505  38.332  1.00  0.00     0.179 C 
HETATM   20  C4  UNL     1      10.388  63.111  37.042  1.00  0.00     0.084 C 
HETATM   21  O7  UNL     1      12.233  62.887  38.555  1.00  0.00    -0.346 OA
HETATM   22  C9  UNL     1      14.515  62.744  38.133  1.00  0.00     0.068 C 
HETATM   23  C10 UNL     1      14.756  62.969  39.598  1.00  0.00     0.166 C 
HETATM   24  O2  UNL     1      15.851  63.898  39.683  1.00  0.00    -0.290 OA
HETATM   25  C12 UNL     1      15.324  61.793  40.310  1.00  0.00     0.170 C 
HETATM   26  C11 UNL     1      16.984  63.084  39.577  1.00  0.00     0.407 C 
HETATM   27  O3  UNL     1      18.168  63.444  39.302  1.00  0.00    -0.229 OA
HETATM   28  O4  UNL     1      16.650  61.756  39.823  1.00  0.00    -0.290 OA
HETATM   29  C13 UNL     1      14.581  60.526  40.182  1.00  0.00     0.044 C 
HETATM   30  C14 UNL     1      15.438  59.422  40.817  1.00  0.00     0.015 C 
BRANCH  19  31
HETATM   31  C2  UNL     1      10.102  63.070  39.439  1.00  0.00     0.030 C 
HETATM   32  C1  UNL     1       8.871  63.478  39.277  1.00  0.00     0.012 C 
ENDBRANCH  19  31
ENDBRANCH  12  13
ENDBRANCH  10  12
ENDBRANCH   9  10
ENDBRANCH   7   8
ENDBRANCH   4   6
ENDBRANCH   1   4
TORSDOF 7
ENDMDL
MODEL 5
REMARK VINA RESULT: -8.257837192      4.439     10.632
REMARK  7 active torsions:
REMARK  status: ('A' for Active; 'I' for Inactive)
REMARK    1  A    between atoms: C2_2  and  C3_3 
REMARK    2  A    between atoms: C15_19  and  O5_20 
REMARK    3  A    between atoms: O5_20  and  C16_21 
REMARK    4  A    between atoms: C16_21  and  C17_23 
REMARK    5  A    between atoms: C18_24  and  C19_25 
REMARK    6  A    between atoms: C20_26  and  C21_27 
REMARK    7  A    between atoms: C21_27  and  C23_29 
ROOT
HETATM    1  C23 UNL     1      15.240  62.254  40.259  1.00  0.00    -0.099 C 
HETATM    2  C24 UNL     1      14.031  62.344  40.227  1.00  0.00    -0.110 C 
HETATM    3  C25 UNL     1      12.567  62.440  40.174  1.00  0.00     0.112 C 
ENDROOT
BRANCH   1   4
HETATM    4  C21 UNL     1      16.686  62.124  40.290  1.00  0.00     0.083 C 
HETATM    5  C22 UNL     1      17.257  62.787  39.060  1.00  0.00     0.027 C 
BRANCH   4   6
HETATM    6  C20 UNL     1      17.129  60.710  40.305  1.00  0.00    -0.010 C 
HETATM    7  C19 UNL     1      16.647  59.790  39.499  1.00  0.00    -0.003 C 
BRANCH   7   8
HETATM    8  C18 UNL     1      17.115  58.419  39.554  1.00  0.00     0.006 C 
HETATM    9  C17 UNL     1      18.278  58.032  39.071  1.00  0.00     0.082 C 
BRANCH   9  10
HETATM   10  C16 UNL     1      18.679  56.662  39.159  1.00  0.00     0.283 C 
HETATM   11  O6  UNL     1      18.474  56.002  40.208  1.00  0.00    -0.260 OA
BRANCH  10  12
HETATM   12  O5  UNL     1      19.311  55.964  38.124  1.00  0.00    -0.311 OA
BRANCH  12  13
HETATM   13  C15 UNL     1      19.063  56.278  36.743  1.00  0.00     0.151 C 
HETATM   14  C6  UNL     1      20.387  56.319  36.050  1.00  0.00     0.031 C 
HETATM   15  C5  UNL     1      21.056  54.952  35.975  1.00  0.00     0.186 C 
HETATM   16  C7  UNL     1      21.315  57.177  36.921  1.00  0.00     0.023 C 
HETATM   17  C8  UNL     1      20.358  56.869  34.670  1.00  0.00     0.140 C 
HETATM   18  O1  UNL     1      22.318  55.195  35.383  1.00  0.00    -0.351 OA
HETATM   19  C3  UNL     1      22.078  55.456  34.019  1.00  0.00     0.179 C 
HETATM   20  C4  UNL     1      23.126  56.419  33.463  1.00  0.00     0.084 C 
HETATM   21  O7  UNL     1      20.808  55.895  33.766  1.00  0.00    -0.346 OA
HETATM   22  C9  UNL     1      18.995  57.288  34.195  1.00  0.00     0.068 C 
HETATM   23  C10 UNL     1      18.089  56.133  33.879  1.00  0.00     0.166 C 
HETATM   24  O2  UNL     1      17.025  56.670  33.073  1.00  0.00    -0.290 OA
HETATM   25  C12 UNL     1      17.328  55.618  35.049  1.00  0.00     0.170 C 
HETATM   26  C11 UNL     1      16.122  57.179  34.014  1.00  0.00     0.407 C 
HETATM   27  O3  UNL     1      15.182  58.004  33.811  1.00  0.00    -0.229 OA
HETATM   28  O4  UNL     1      16.385  56.646  35.272  1.00  0.00    -0.290 OA
HETATM   29  C13 UNL     1      18.121  55.238  36.233  1.00  0.00     0.044 C 
HETATM   30  C14 UNL     1      17.136  54.931  37.369  1.00  0.00     0.015 C 
BRANCH  19  31
HETATM   31  C2  UNL     1      22.269  54.169  33.277  1.00  0.00     0.030 C 
HETATM   32  C1  UNL     1      21.380  53.669  32.460  1.00  0.00     0.012 C 
ENDBRANCH  19  31
ENDBRANCH  12  13
ENDBRANCH  10  12
ENDBRANCH   9  10
ENDBRANCH   7   8
ENDBRANCH   4   6
ENDBRANCH   1   4
TORSDOF 7
ENDMDL
