MODEL 1
REMARK VINA RESULT: -8.424667765      0.000      0.000
REMARK  6 active torsions:
REMARK  status: ('A' for Active; 'I' for Inactive)
REMARK    1  A    between atoms: C5_5  and  C6_6 
REMARK    2  A    between atoms: C7_8  and  C8_9 
REMARK    3  A    between atoms: C8_9  and  O3_11 
REMARK    4  A    between atoms: O3_11  and  C9_12 
REMARK    5  A    between atoms: C13_16  and  C15_19 
REMARK    6  A    between atoms: C16_20  and  C17_21 
ROOT
HETATM    1  C1  UNL     1      16.232  57.639  39.410  1.00  0.00     0.014 C 
HETATM    2  C2  UNL     1      16.067  58.892  38.969  1.00  0.00    -0.089 C 
HETATM    3  C3  UNL     1      17.091  59.767  39.508  1.00  0.00     0.034 C 
HETATM    4  C4  UNL     1      16.850  61.245  39.430  1.00  0.00     0.017 C 
HETATM    5  C5  UNL     1      15.719  61.765  40.243  1.00  0.00     0.069 C 
HETATM    6  C7  UNL     1      14.364  61.697  39.627  1.00  0.00     0.091 C 
HETATM    7  C11 UNL     1      14.320  62.067  38.172  1.00  0.00     0.026 C 
HETATM    8  C12 UNL     1      13.061  61.616  37.490  1.00  0.00     0.030 C 
HETATM    9  C13 UNL     1      12.746  60.170  37.659  1.00  0.00     0.074 C 
HETATM   10  C14 UNL     1      12.929  59.406  36.401  1.00  0.00     0.073 C 
HETATM   11  N1  UNL     1      13.054  58.818  35.412  1.00  0.00    -0.196 NA
HETATM   12  C21 UNL     1      13.637  59.493  38.686  1.00  0.00     0.054 C 
HETATM   13  C22 UNL     1      14.895  58.952  38.068  1.00  0.00     0.043 C 
HETATM   14  C23 UNL     1      13.806  60.316  39.923  1.00  0.00     0.105 A 
HETATM   15  C24 UNL     1      13.062  59.965  41.095  1.00  0.00     0.209 A 
HETATM   16  O4  UNL     1      14.436  59.569  40.955  1.00  0.00    -0.373 OA
ENDROOT
BRANCH   9  17
HETATM   17  C15 UNL     1      11.330  59.993  38.061  1.00  0.00     0.001 C 
HETATM   18  C16 UNL     1      10.569  61.006  38.393  1.00  0.00     0.035 C 
BRANCH  18  19
HETATM   19  C17 UNL     1       9.170  60.712  38.778  1.00  0.00     0.073 A 
HETATM   20  N2  UNL     1       8.569  59.536  38.846  1.00  0.00    -0.354 N 
HETATM   21  C18 UNL     1       7.319  59.462  39.207  1.00  0.00     0.012 A 
ATOM     22  H2  UNL     1       9.083  58.687  38.615  1.00  0.00     0.166 HD
HETATM   23  C19 UNL     1       6.562  58.147  39.304  1.00  0.00     0.068 C 
HETATM   24  C20 UNL     1       6.681  60.639  39.505  1.00  0.00     0.076 A 
HETATM   25  S1  UNL     1       7.922  61.783  39.246  1.00  0.00    -0.082 SA
ENDBRANCH  18  19
ENDBRANCH   9  17
BRANCH   6  26
HETATM   26  C8  UNL     1      13.475  62.685  40.277  1.00  0.00     0.271 C 
HETATM   27  O2  UNL     1      12.764  62.381  41.256  1.00  0.00    -0.264 OA
BRANCH  26  28
HETATM   28  O3  UNL     1      13.354  64.006  39.863  1.00  0.00    -0.321 OA
BRANCH  28  29
HETATM   29  C9  UNL     1      12.181  64.764  40.097  1.00  0.00     0.174 C 
HETATM   30  C10 UNL     1      12.407  65.814  41.156  1.00  0.00     0.034 C 
ENDBRANCH  28  29
ENDBRANCH  26  28
ENDBRANCH   6  26
BRANCH   5  31
HETATM   31  C6  UNL     1      16.099  63.127  40.735  1.00  0.00     0.237 C 
HETATM   32  O1  UNL     1      16.712  63.946  40.073  1.00  0.00    -0.306 OA
ENDBRANCH   5  31
TORSDOF 6
ENDMDL
MODEL 2
REMARK VINA RESULT: -8.337508255      0.718      1.023
REMARK  6 active torsions:
REMARK  status: ('A' for Active; 'I' for Inactive)
REMARK    1  A    between atoms: C5_5  and  C6_6 
REMARK    2  A    between atoms: C7_8  and  C8_9 
REMARK    3  A    between atoms: C8_9  and  O3_11 
REMARK    4  A    between atoms: O3_11  and  C9_12 
REMARK    5  A    between atoms: C13_16  and  C15_19 
REMARK    6  A    between atoms: C16_20  and  C17_21 
ROOT
HETATM    1  C1  UNL     1      16.073  57.579  39.402  1.00  0.00     0.014 C 
HETATM    2  C2  UNL     1      15.948  58.837  38.962  1.00  0.00    -0.089 C 
HETATM    3  C3  UNL     1      16.999  59.678  39.501  1.00  0.00     0.034 C 
HETATM    4  C4  UNL     1      16.806  61.164  39.424  1.00  0.00     0.017 C 
HETATM    5  C5  UNL     1      15.691  61.719  40.236  1.00  0.00     0.069 C 
HETATM    6  C7  UNL     1      14.335  61.694  39.619  1.00  0.00     0.091 C 
HETATM    7  C11 UNL     1      14.304  62.066  38.164  1.00  0.00     0.026 C 
HETATM    8  C12 UNL     1      13.032  61.655  37.480  1.00  0.00     0.030 C 
HETATM    9  C13 UNL     1      12.670  60.220  37.650  1.00  0.00     0.074 C 
HETATM   10  C14 UNL     1      12.830  59.451  36.392  1.00  0.00     0.073 C 
HETATM   11  N1  UNL     1      12.936  58.859  35.403  1.00  0.00    -0.196 NA
HETATM   12  C21 UNL     1      13.539  59.514  38.677  1.00  0.00     0.054 C 
HETATM   13  C22 UNL     1      14.779  58.934  38.060  1.00  0.00     0.043 C 
HETATM   14  C23 UNL     1      13.733  60.332  39.914  1.00  0.00     0.105 A 
HETATM   15  C24 UNL     1      12.978  60.004  41.086  1.00  0.00     0.209 A 
HETATM   16  O4  UNL     1      14.338  59.565  40.946  1.00  0.00    -0.373 OA
ENDROOT
BRANCH   9  17
HETATM   17  C15 UNL     1      11.250  60.088  38.051  1.00  0.00     0.001 C 
HETATM   18  C16 UNL     1      10.494  61.132  38.290  1.00  0.00     0.035 C 
BRANCH  18  19
HETATM   19  C17 UNL     1       9.089  60.882  38.684  1.00  0.00     0.073 A 
HETATM   20  N2  UNL     1       8.281  61.665  39.379  1.00  0.00    -0.354 N 
HETATM   21  C18 UNL     1       7.062  61.281  39.636  1.00  0.00     0.012 A 
ATOM     22  H2  UNL     1       8.611  62.569  39.713  1.00  0.00     0.166 HD
HETATM   23  C19 UNL     1       6.079  62.126  40.431  1.00  0.00     0.068 C 
HETATM   24  C20 UNL     1       6.676  60.055  39.159  1.00  0.00     0.076 A 
HETATM   25  S1  UNL     1       8.095  59.527  38.367  1.00  0.00    -0.082 SA
ENDBRANCH  18  19
ENDBRANCH   9  17
BRANCH   6  26
HETATM   26  C8  UNL     1      13.478  62.711  40.268  1.00  0.00     0.271 C 
HETATM   27  O2  UNL     1      12.771  62.433  41.258  1.00  0.00    -0.264 OA
BRANCH  26  28
HETATM   28  O3  UNL     1      13.385  64.030  39.842  1.00  0.00    -0.321 OA
BRANCH  28  29
HETATM   29  C9  UNL     1      12.216  64.804  40.041  1.00  0.00     0.174 C 
HETATM   30  C10 UNL     1      12.400  65.799  41.159  1.00  0.00     0.034 C 
ENDBRANCH  28  29
ENDBRANCH  26  28
ENDBRANCH   6  26
BRANCH   5  31
HETATM   31  C6  UNL     1      16.114  63.068  40.728  1.00  0.00     0.237 C 
HETATM   32  O1  UNL     1      16.719  63.883  40.053  1.00  0.00    -0.306 OA
ENDBRANCH   5  31
TORSDOF 6
ENDMDL
MODEL 3
REMARK VINA RESULT: -8.128834196      0.980      1.153
REMARK  6 active torsions:
REMARK  status: ('A' for Active; 'I' for Inactive)
REMARK    1  A    between atoms: C5_5  and  C6_6 
REMARK    2  A    between atoms: C7_8  and  C8_9 
REMARK    3  A    between atoms: C8_9  and  O3_11 
REMARK    4  A    between atoms: O3_11  and  C9_12 
REMARK    5  A    between atoms: C13_16  and  C15_19 
REMARK    6  A    between atoms: C16_20  and  C17_21 
ROOT
HETATM    1  C1  UNL     1      16.350  58.976  40.371  1.00  0.00     0.014 C 
HETATM    2  C2  UNL     1      16.093  59.992  39.537  1.00  0.00    -0.089 C 
HETATM    3  C3  UNL     1      16.952  61.124  39.825  1.00  0.00     0.034 C 
HETATM    4  C4  UNL     1      16.558  62.455  39.256  1.00  0.00     0.017 C 
HETATM    5  C5  UNL     1      15.298  63.042  39.784  1.00  0.00     0.069 C 
HETATM    6  C7  UNL     1      14.030  62.597  39.141  1.00  0.00     0.091 C 
HETATM    7  C11 UNL     1      14.095  62.481  37.645  1.00  0.00     0.026 C 
HETATM    8  C12 UNL     1      12.971  61.668  37.070  1.00  0.00     0.030 C 
HETATM    9  C13 UNL     1      12.803  60.320  37.681  1.00  0.00     0.074 C 
HETATM   10  C14 UNL     1      13.198  59.232  36.753  1.00  0.00     0.073 C 
HETATM   11  N1  UNL     1      13.489  58.386  36.019  1.00  0.00    -0.196 NA
HETATM   12  C21 UNL     1      13.653  60.130  38.925  1.00  0.00     0.054 C 
HETATM   13  C22 UNL     1      15.020  59.602  38.595  1.00  0.00     0.043 C 
HETATM   14  C23 UNL     1      13.601  61.316  39.835  1.00  0.00     0.105 A 
HETATM   15  C24 UNL     1      12.784  61.252  41.009  1.00  0.00     0.209 A 
HETATM   16  O4  UNL     1      14.200  61.026  41.090  1.00  0.00    -0.373 OA
ENDROOT
BRANCH   9  17
HETATM   17  C15 UNL     1      11.382  60.084  38.030  1.00  0.00     0.001 C 
HETATM   18  C16 UNL     1      10.495  61.049  38.025  1.00  0.00     0.035 C 
BRANCH  18  19
HETATM   19  C17 UNL     1       9.103  60.698  38.391  1.00  0.00     0.073 A 
HETATM   20  N2  UNL     1       8.637  59.539  38.824  1.00  0.00    -0.354 N 
HETATM   21  C18 UNL     1       7.371  59.408  39.102  1.00  0.00     0.012 A 
ATOM     22  H2  UNL     1       9.269  58.747  38.942  1.00  0.00     0.166 HD
HETATM   23  C19 UNL     1       6.764  58.106  39.601  1.00  0.00     0.068 C 
HETATM   24  C20 UNL     1       6.572  60.508  38.924  1.00  0.00     0.076 A 
HETATM   25  S1  UNL     1       7.695  61.668  38.367  1.00  0.00    -0.082 SA
ENDBRANCH  18  19
ENDBRANCH   9  17
BRANCH   6  26
HETATM   26  C8  UNL     1      12.975  63.607  39.378  1.00  0.00     0.271 C 
HETATM   27  O2  UNL     1      12.190  63.957  38.474  1.00  0.00    -0.264 OA
BRANCH  26  28
HETATM   28  O3  UNL     1      12.772  64.240  40.598  1.00  0.00    -0.321 OA
BRANCH  28  29
HETATM   29  C9  UNL     1      12.023  65.437  40.709  1.00  0.00     0.174 C 
HETATM   30  C10 UNL     1      12.527  66.298  41.840  1.00  0.00     0.034 C 
ENDBRANCH  28  29
ENDBRANCH  26  28
ENDBRANCH   6  26
BRANCH   5  31
HETATM   31  C6  UNL     1      15.472  64.529  39.828  1.00  0.00     0.237 C 
HETATM   32  O1  UNL     1      15.893  65.138  40.795  1.00  0.00    -0.306 OA
ENDBRANCH   5  31
TORSDOF 6
ENDMDL
MODEL 4
REMARK VINA RESULT: -7.912120131      1.858      2.236
REMARK  6 active torsions:
REMARK  status: ('A' for Active; 'I' for Inactive)
REMARK    1  A    between atoms: C5_5  and  C6_6 
REMARK    2  A    between atoms: C7_8  and  C8_9 
REMARK    3  A    between atoms: C8_9  and  O3_11 
REMARK    4  A    between atoms: O3_11  and  C9_12 
REMARK    5  A    between atoms: C13_16  and  C15_19 
REMARK    6  A    between atoms: C16_20  and  C17_21 
ROOT
HETATM    1  C1  UNL     1      14.853  58.100  40.199  1.00  0.00     0.014 C 
HETATM    2  C2  UNL     1      15.161  59.186  39.479  1.00  0.00    -0.089 C 
HETATM    3  C3  UNL     1      16.391  59.788  39.955  1.00  0.00     0.034 C 
HETATM    4  C4  UNL     1      16.685  61.195  39.527  1.00  0.00     0.017 C 
HETATM    5  C5  UNL     1      15.760  62.239  40.040  1.00  0.00     0.069 C 
HETATM    6  C7  UNL     1      14.505  62.461  39.267  1.00  0.00     0.091 C 
HETATM    7  C11 UNL     1      14.679  62.447  37.775  1.00  0.00     0.026 C 
HETATM    8  C12 UNL     1      13.385  62.271  37.035  1.00  0.00     0.030 C 
HETATM    9  C13 UNL     1      12.576  61.096  37.467  1.00  0.00     0.074 C 
HETATM   10  C14 UNL     1      12.556  60.024  36.442  1.00  0.00     0.073 C 
HETATM   11  N1  UNL     1      12.526  59.198  35.632  1.00  0.00    -0.196 NA
HETATM   12  C21 UNL     1      13.113  60.448  38.731  1.00  0.00     0.054 C 
HETATM   13  C22 UNL     1      14.139  59.393  38.430  1.00  0.00     0.043 C 
HETATM   14  C23 UNL     1      13.484  61.456  39.773  1.00  0.00     0.105 A 
HETATM   15  C24 UNL     1      12.597  61.671  40.876  1.00  0.00     0.209 A 
HETATM   16  O4  UNL     1      13.752  60.830  41.020  1.00  0.00    -0.373 OA
ENDROOT
BRANCH   9  17
HETATM   17  C15 UNL     1      11.166  61.493  37.693  1.00  0.00     0.001 C 
HETATM   18  C16 UNL     1      10.771  62.739  37.600  1.00  0.00     0.035 C 
BRANCH  18  19
HETATM   19  C17 UNL     1       9.338  63.021  37.846  1.00  0.00     0.073 A 
HETATM   20  N2  UNL     1       8.800  64.078  38.432  1.00  0.00    -0.354 N 
HETATM   21  C18 UNL     1       7.507  64.162  38.565  1.00  0.00     0.012 A 
ATOM     22  H2  UNL     1       9.397  64.828  38.779  1.00  0.00     0.166 HD
HETATM   23  C19 UNL     1       6.818  65.344  39.230  1.00  0.00     0.068 C 
HETATM   24  C20 UNL     1       6.757  63.122  38.079  1.00  0.00     0.076 A 
HETATM   25  S1  UNL     1       7.962  62.084  37.457  1.00  0.00    -0.082 SA
ENDBRANCH  18  19
ENDBRANCH   9  17
BRANCH   6  26
HETATM   26  C8  UNL     1      13.979  63.813  39.556  1.00  0.00     0.271 C 
HETATM   27  O2  UNL     1      14.370  64.815  38.924  1.00  0.00    -0.264 OA
BRANCH  26  28
HETATM   28  O3  UNL     1      13.030  64.081  40.534  1.00  0.00    -0.321 OA
BRANCH  28  29
HETATM   29  C9  UNL     1      12.114  65.155  40.422  1.00  0.00     0.174 C 
HETATM   30  C10 UNL     1      12.312  66.164  41.524  1.00  0.00     0.034 C 
ENDBRANCH  28  29
ENDBRANCH  26  28
ENDBRANCH   6  26
BRANCH   5  31
HETATM   31  C6  UNL     1      16.560  63.483  40.274  1.00  0.00     0.237 C 
HETATM   32  O1  UNL     1      17.528  63.807  39.609  1.00  0.00    -0.306 OA
ENDBRANCH   5  31
TORSDOF 6
ENDMDL
MODEL 5
REMARK VINA RESULT: -7.722196181      1.230      1.616
REMARK  6 active torsions:
REMARK  status: ('A' for Active; 'I' for Inactive)
REMARK    1  A    between atoms: C5_5  and  C6_6 
REMARK    2  A    between atoms: C7_8  and  C8_9 
REMARK    3  A    between atoms: C8_9  and  O3_11 
REMARK    4  A    between atoms: O3_11  and  C9_12 
REMARK    5  A    between atoms: C13_16  and  C15_19 
REMARK    6  A    between atoms: C16_20  and  C17_21 
ROOT
HETATM    1  C1  UNL     1      15.075  57.951  39.944  1.00  0.00     0.014 C 
HETATM    2  C2  UNL     1      15.275  59.089  39.268  1.00  0.00    -0.089 C 
HETATM    3  C3  UNL     1      16.533  59.702  39.652  1.00  0.00     0.034 C 
HETATM    4  C4  UNL     1      16.741  61.142  39.288  1.00  0.00     0.017 C 
HETATM    5  C5  UNL     1      15.847  62.120  39.961  1.00  0.00     0.069 C 
HETATM    6  C7  UNL     1      14.512  62.347  39.339  1.00  0.00     0.091 C 
HETATM    7  C11 UNL     1      14.527  62.431  37.840  1.00  0.00     0.026 C 
HETATM    8  C12 UNL     1      13.167  62.257  37.228  1.00  0.00     0.030 C 
HETATM    9  C13 UNL     1      12.441  61.031  37.664  1.00  0.00     0.074 C 
HETATM   10  C14 UNL     1      12.342  60.025  36.579  1.00  0.00     0.073 C 
HETATM   11  N1  UNL     1      12.249  59.250  35.724  1.00  0.00    -0.196 NA
HETATM   12  C21 UNL     1      13.126  60.325  38.821  1.00  0.00     0.054 C 
HETATM   13  C22 UNL     1      14.143  59.326  38.346  1.00  0.00     0.043 C 
HETATM   14  C23 UNL     1      13.578  61.278  39.881  1.00  0.00     0.105 A 
HETATM   15  C24 UNL     1      12.807  61.394  41.082  1.00  0.00     0.209 A 
HETATM   16  O4  UNL     1      13.994  60.586  41.050  1.00  0.00    -0.373 OA
ENDROOT
BRANCH   9  17
HETATM   17  C15 UNL     1      11.053  61.366  38.061  1.00  0.00     0.001 C 
HETATM   18  C16 UNL     1      10.182  60.443  38.390  1.00  0.00     0.035 C 
BRANCH  18  19
HETATM   19  C17 UNL     1       8.823  60.892  38.770  1.00  0.00     0.073 A 
HETATM   20  N2  UNL     1       8.466  62.030  39.342  1.00  0.00    -0.354 N 
HETATM   21  C18 UNL     1       7.211  62.261  39.608  1.00  0.00     0.012 A 
ATOM     22  H2  UNL     1       9.173  62.727  39.576  1.00  0.00     0.166 HD
HETATM   23  C19 UNL     1       6.728  63.543  40.268  1.00  0.00     0.068 C 
HETATM   24  C20 UNL     1       6.308  61.286  39.270  1.00  0.00     0.076 A 
HETATM   25  S1  UNL     1       7.322  60.093  38.589  1.00  0.00    -0.082 SA
ENDBRANCH  18  19
ENDBRANCH   9  17
BRANCH   6  26
HETATM   26  C8  UNL     1      13.983  63.660  39.768  1.00  0.00     0.271 C 
HETATM   27  O2  UNL     1      14.563  64.725  39.476  1.00  0.00    -0.264 OA
BRANCH  26  28
HETATM   28  O3  UNL     1      12.824  63.819  40.518  1.00  0.00    -0.321 OA
BRANCH  28  29
HETATM   29  C9  UNL     1      11.804  64.728  40.146  1.00  0.00     0.174 C 
HETATM   30  C10 UNL     1      11.810  65.951  41.027  1.00  0.00     0.034 C 
ENDBRANCH  28  29
ENDBRANCH  26  28
ENDBRANCH   6  26
BRANCH   5  31
HETATM   31  C6  UNL     1      16.634  63.374  40.191  1.00  0.00     0.237 C 
HETATM   32  O1  UNL     1      17.691  63.627  39.642  1.00  0.00    -0.306 OA
ENDBRANCH   5  31
TORSDOF 6
ENDMDL
