MODEL 1
REMARK VINA RESULT: -7.627889244      0.000      0.000
REMARK  7 active torsions:
REMARK  status: ('A' for Active; 'I' for Inactive)
REMARK    1  A    between atoms: C3_3  and  O1_4 
REMARK    2  A    between atoms: O1_4  and  C4_5 
REMARK    3  A    between atoms: C11_13  and  O3_14 
REMARK    4  A    between atoms: O3_14  and  C12_15 
REMARK    5  A    between atoms: C16_21  and  O6_22 
REMARK    6  A    between atoms: C18_24  and  C19_25 
REMARK    7  A    between atoms: C19_25  and  O7_26 
ROOT
HETATM    1  C1  UNL     1      15.619  56.532  37.388  1.00  0.00     0.017 C 
HETATM    2  C2  UNL     1      15.773  57.293  38.427  1.00  0.00    -0.055 C 
HETATM    3  C3  UNL     1      16.989  57.267  39.314  1.00  0.00     0.160 C 
HETATM    4  C6  UNL     1      17.510  58.662  39.280  1.00  0.00     0.037 C 
HETATM    5  C7  UNL     1      16.515  59.647  39.873  1.00  0.00     0.009 C 
HETATM    6  C8  UNL     1      15.177  59.067  40.074  1.00  0.00     0.005 C 
HETATM    7  C9  UNL     1      14.745  58.271  38.839  1.00  0.00     0.024 C 
HETATM    8  C10 UNL     1      14.552  59.415  37.917  1.00  0.00     0.049 C 
HETATM    9  C11 UNL     1      13.517  60.261  38.730  1.00  0.00     0.081 C 
HETATM   10  C14 UNL     1      13.590  61.618  38.133  1.00  0.00     0.072 C 
HETATM   11  C15 UNL     1      13.479  62.744  39.032  1.00  0.00     0.143 C 
HETATM   12  O5  UNL     1      13.361  64.033  38.511  1.00  0.00    -0.354 OA
HETATM   13  C16 UNL     1      13.941  64.445  39.740  1.00  0.00     0.272 C 
HETATM   14  C18 UNL     1      14.822  63.222  39.549  1.00  0.00     0.057 C 
HETATM   15  C21 UNL     1      15.075  62.361  40.737  1.00  0.00     0.020 C 
HETATM   16  C22 UNL     1      14.198  61.213  40.995  1.00  0.00     0.014 C 
HETATM   17  C23 UNL     1      14.010  60.072  40.095  1.00  0.00    -0.008 C 
HETATM   18  C24 UNL     1      12.964  59.234  40.852  1.00  0.00     0.019 C 
ENDROOT
BRANCH   3  19
HETATM   19  O1  UNL     1      17.849  56.256  39.018  1.00  0.00    -0.312 OA
BRANCH  19  20
HETATM   20  C4  UNL     1      19.091  56.295  38.476  1.00  0.00     0.255 C 
HETATM   21  C5  UNL     1      19.257  56.474  37.017  1.00  0.00     0.126 C 
HETATM   22  O2  UNL     1      20.048  56.172  39.267  1.00  0.00    -0.266 OA
ENDBRANCH  19  20
ENDBRANCH   3  19
BRANCH   9  23
HETATM   23  O3  UNL     1      12.355  59.594  38.332  1.00  0.00    -0.309 OA
BRANCH  23  24
HETATM   24  C12 UNL     1      11.230  60.028  37.741  1.00  0.00     0.255 C 
HETATM   25  C13 UNL     1      11.212  60.169  36.248  1.00  0.00     0.126 C 
HETATM   26  O4  UNL     1      10.267  60.290  38.451  1.00  0.00    -0.266 OA
ENDBRANCH  23  24
ENDBRANCH   9  23
BRANCH  14  27
HETATM   27  C19 UNL     1      15.866  63.521  38.564  1.00  0.00     0.184 C 
BRANCH  27  28
HETATM   28  O7  UNL     1      17.118  63.595  38.986  1.00  0.00    -0.395 OA
HETATM   29  C20 UNL     1      18.138  62.789  38.910  1.00  0.00     0.201 C 
ENDBRANCH  27  28
ENDBRANCH  14  27
BRANCH  13  30
HETATM   30  O6  UNL     1      13.124  64.422  40.835  1.00  0.00    -0.365 OA
HETATM   31  C17 UNL     1      12.625  65.688  41.128  1.00  0.00     0.204 C 
ENDBRANCH  13  30
TORSDOF 7
ENDMDL
MODEL 2
REMARK VINA RESULT: -7.568833416      2.491      8.235
REMARK  7 active torsions:
REMARK  status: ('A' for Active; 'I' for Inactive)
REMARK    1  A    between atoms: C3_3  and  O1_4 
REMARK    2  A    between atoms: O1_4  and  C4_5 
REMARK    3  A    between atoms: C11_13  and  O3_14 
REMARK    4  A    between atoms: O3_14  and  C12_15 
REMARK    5  A    between atoms: C16_21  and  O6_22 
REMARK    6  A    between atoms: C18_24  and  C19_25 
REMARK    7  A    between atoms: C19_25  and  O7_26 
ROOT
HETATM    1  C1  UNL     1      17.896  60.612  39.649  1.00  0.00     0.017 C 
HETATM    2  C2  UNL     1      17.175  59.543  39.787  1.00  0.00    -0.055 C 
HETATM    3  C3  UNL     1      15.756  59.548  40.290  1.00  0.00     0.160 C 
HETATM    4  C6  UNL     1      14.969  58.903  39.201  1.00  0.00     0.037 C 
HETATM    5  C7  UNL     1      15.388  57.458  38.987  1.00  0.00     0.009 C 
HETATM    6  C8  UNL     1      16.641  57.110  39.677  1.00  0.00     0.005 C 
HETATM    7  C9  UNL     1      17.695  58.200  39.458  1.00  0.00     0.024 C 
HETATM    8  C10 UNL     1      17.948  57.953  38.019  1.00  0.00     0.049 C 
HETATM    9  C11 UNL     1      18.351  56.442  38.059  1.00  0.00     0.081 C 
HETATM   10  C14 UNL     1      18.190  55.973  36.659  1.00  0.00     0.072 C 
HETATM   11  C15 UNL     1      17.670  54.640  36.463  1.00  0.00     0.143 C 
HETATM   12  O5  UNL     1      17.666  54.082  35.184  1.00  0.00    -0.354 OA
HETATM   13  C16 UNL     1      16.575  53.309  35.664  1.00  0.00     0.272 C 
HETATM   14  C18 UNL     1      16.159  54.607  36.335  1.00  0.00     0.057 C 
HETATM   15  C21 UNL     1      15.682  54.533  37.744  1.00  0.00     0.020 C 
HETATM   16  C22 UNL     1      16.640  54.720  38.839  1.00  0.00     0.014 C 
HETATM   17  C23 UNL     1      17.430  55.931  39.076  1.00  0.00    -0.008 C 
HETATM   18  C24 UNL     1      18.271  55.534  40.303  1.00  0.00     0.019 C 
ENDROOT
BRANCH   3  19
HETATM   19  O1  UNL     1      15.348  60.765  40.738  1.00  0.00    -0.312 OA
BRANCH  19  20
HETATM   20  C4  UNL     1      14.408  61.609  40.246  1.00  0.00     0.255 C 
HETATM   21  C5  UNL     1      13.036  61.593  40.798  1.00  0.00     0.126 C 
HETATM   22  O2  UNL     1      14.771  62.373  39.327  1.00  0.00    -0.266 OA
ENDBRANCH  19  20
ENDBRANCH   3  19
BRANCH   9  23
HETATM   23  O3  UNL     1      19.700  56.602  38.388  1.00  0.00    -0.309 OA
BRANCH  23  24
HETATM   24  C12 UNL     1      20.824  56.421  37.676  1.00  0.00     0.255 C 
HETATM   25  C13 UNL     1      20.983  57.163  36.382  1.00  0.00     0.126 C 
HETATM   26  O4  UNL     1      21.671  55.654  38.117  1.00  0.00    -0.266 OA
ENDBRANCH  23  24
ENDBRANCH   9  23
BRANCH  14  27
HETATM   27  C19 UNL     1      15.539  55.492  35.346  1.00  0.00     0.184 C 
BRANCH  27  28
HETATM   28  O7  UNL     1      14.976  56.610  35.777  1.00  0.00    -0.395 OA
HETATM   29  C20 UNL     1      14.615  57.715  35.189  1.00  0.00     0.201 C 
ENDBRANCH  27  28
ENDBRANCH  14  27
BRANCH  13  30
HETATM   30  O6  UNL     1      16.886  52.278  36.505  1.00  0.00    -0.365 OA
HETATM   31  C17 UNL     1      16.270  51.094  36.112  1.00  0.00     0.204 C 
ENDBRANCH  13  30
TORSDOF 7
ENDMDL
MODEL 3
REMARK VINA RESULT: -6.876090722      1.934      7.111
REMARK  7 active torsions:
REMARK  status: ('A' for Active; 'I' for Inactive)
REMARK    1  A    between atoms: C3_3  and  O1_4 
REMARK    2  A    between atoms: O1_4  and  C4_5 
REMARK    3  A    between atoms: C11_13  and  O3_14 
REMARK    4  A    between atoms: O3_14  and  C12_15 
REMARK    5  A    between atoms: C16_21  and  O6_22 
REMARK    6  A    between atoms: C18_24  and  C19_25 
REMARK    7  A    between atoms: C19_25  and  O7_26 
ROOT
HETATM    1  C1  UNL     1      12.508  63.283  38.057  1.00  0.00     0.017 C 
HETATM    2  C2  UNL     1      12.472  62.037  38.417  1.00  0.00    -0.055 C 
HETATM    3  C3  UNL     1      11.366  61.086  38.043  1.00  0.00     0.160 C 
HETATM    4  C6  UNL     1      12.053  59.973  37.330  1.00  0.00     0.037 C 
HETATM    5  C7  UNL     1      13.020  59.235  38.242  1.00  0.00     0.009 C 
HETATM    6  C8  UNL     1      13.278  59.943  39.506  1.00  0.00     0.005 C 
HETATM    7  C9  UNL     1      13.536  61.431  39.245  1.00  0.00     0.024 C 
HETATM    8  C10 UNL     1      14.855  61.297  38.583  1.00  0.00     0.049 C 
HETATM    9  C11 UNL     1      15.648  60.527  39.690  1.00  0.00     0.081 C 
HETATM   10  C14 UNL     1      16.817  59.949  38.980  1.00  0.00     0.072 C 
HETATM   11  C15 UNL     1      17.246  58.627  39.378  1.00  0.00     0.143 C 
HETATM   12  O5  UNL     1      18.440  58.110  38.875  1.00  0.00    -0.354 OA
HETATM   13  C16 UNL     1      17.837  56.843  39.101  1.00  0.00     0.272 C 
HETATM   14  C18 UNL     1      16.586  57.524  38.573  1.00  0.00     0.057 C 
HETATM   15  C21 UNL     1      15.307  57.272  39.292  1.00  0.00     0.020 C 
HETATM   16  C22 UNL     1      14.889  58.187  40.360  1.00  0.00     0.014 C 
HETATM   17  C23 UNL     1      14.618  59.617  40.193  1.00  0.00    -0.008 C 
HETATM   18  C24 UNL     1      14.280  60.052  41.631  1.00  0.00     0.019 C 
ENDROOT
BRANCH   3  19
HETATM   19  O1  UNL     1      10.322  61.695  37.421  1.00  0.00    -0.312 OA
BRANCH  19  20
HETATM   20  C4  UNL     1       9.086  62.003  37.886  1.00  0.00     0.255 C 
HETATM   21  C5  UNL     1       8.764  61.814  39.318  1.00  0.00     0.126 C 
HETATM   22  O2  UNL     1       8.269  62.441  37.050  1.00  0.00    -0.266 OA
ENDBRANCH  19  20
ENDBRANCH   3  19
BRANCH   9  23
HETATM   23  O3  UNL     1      16.021  61.624  40.471  1.00  0.00    -0.309 OA
BRANCH  23  24
HETATM   24  C12 UNL     1      16.663  62.763  40.167  1.00  0.00     0.255 C 
HETATM   25  C13 UNL     1      15.931  64.064  40.318  1.00  0.00     0.126 C 
HETATM   26  O4  UNL     1      17.823  62.688  39.779  1.00  0.00    -0.266 OA
ENDBRANCH  23  24
ENDBRANCH   9  23
BRANCH  14  27
HETATM   27  C19 UNL     1      16.656  57.610  37.111  1.00  0.00     0.184 C 
BRANCH  27  28
HETATM   28  O7  UNL     1      15.521  57.611  36.431  1.00  0.00    -0.395 OA
HETATM   29  C20 UNL     1      15.176  57.148  35.264  1.00  0.00     0.201 C 
ENDBRANCH  27  28
ENDBRANCH  14  27
BRANCH  13  30
HETATM   30  O6  UNL     1      17.780  56.422  40.399  1.00  0.00    -0.365 OA
HETATM   31  C17 UNL     1      17.951  55.044  40.498  1.00  0.00     0.204 C 
ENDBRANCH  13  30
TORSDOF 7
ENDMDL
MODEL 4
REMARK VINA RESULT: -6.776760681      2.247      5.640
REMARK  7 active torsions:
REMARK  status: ('A' for Active; 'I' for Inactive)
REMARK    1  A    between atoms: C3_3  and  O1_4 
REMARK    2  A    between atoms: O1_4  and  C4_5 
REMARK    3  A    between atoms: C11_13  and  O3_14 
REMARK    4  A    between atoms: O3_14  and  C12_15 
REMARK    5  A    between atoms: C16_21  and  O6_22 
REMARK    6  A    between atoms: C18_24  and  C19_25 
REMARK    7  A    between atoms: C19_25  and  O7_26 
ROOT
HETATM    1  C1  UNL     1      15.694  61.288  40.672  1.00  0.00     0.017 C 
HETATM    2  C2  UNL     1      15.071  60.756  39.667  1.00  0.00    -0.055 C 
HETATM    3  C3  UNL     1      15.313  59.353  39.177  1.00  0.00     0.160 C 
HETATM    4  C6  UNL     1      13.980  58.693  39.253  1.00  0.00     0.037 C 
HETATM    5  C7  UNL     1      12.974  59.350  38.322  1.00  0.00     0.009 C 
HETATM    6  C8  UNL     1      13.439  60.639  37.786  1.00  0.00     0.005 C 
HETATM    7  C9  UNL     1      14.049  61.497  38.900  1.00  0.00     0.024 C 
HETATM    8  C10 UNL     1      12.798  61.796  39.634  1.00  0.00     0.049 C 
HETATM    9  C11 UNL     1      11.949  62.447  38.493  1.00  0.00     0.081 C 
HETATM   10  C14 UNL     1      10.548  62.376  38.979  1.00  0.00     0.072 C 
HETATM   11  C15 UNL     1       9.522  62.089  38.002  1.00  0.00     0.143 C 
HETATM   12  O5  UNL     1       8.178  62.187  38.365  1.00  0.00    -0.354 OA
HETATM   13  C16 UNL     1       7.963  61.239  37.329  1.00  0.00     0.272 C 
HETATM   14  C18 UNL     1       9.237  60.606  37.863  1.00  0.00     0.057 C 
HETATM   15  C21 UNL     1      10.244  60.140  36.870  1.00  0.00     0.020 C 
HETATM   16  C22 UNL     1      11.322  61.046  36.457  1.00  0.00     0.014 C 
HETATM   17  C23 UNL     1      12.334  61.619  37.349  1.00  0.00    -0.008 C 
HETATM   18  C24 UNL     1      13.144  62.508  36.388  1.00  0.00     0.019 C 
ENDROOT
BRANCH   3  19
HETATM   19  O1  UNL     1      16.364  58.744  39.788  1.00  0.00    -0.312 OA
BRANCH  19  20
HETATM   20  C4  UNL     1      17.638  58.563  39.362  1.00  0.00     0.255 C 
HETATM   21  C5  UNL     1      17.989  57.370  38.560  1.00  0.00     0.126 C 
HETATM   22  O2  UNL     1      18.464  59.442  39.684  1.00  0.00    -0.266 OA
ENDBRANCH  19  20
ENDBRANCH   3  19
BRANCH   9  23
HETATM   23  O3  UNL     1      12.452  63.748  38.586  1.00  0.00    -0.309 OA
BRANCH  23  24
HETATM   24  C12 UNL     1      12.788  64.506  39.642  1.00  0.00     0.255 C 
HETATM   25  C13 UNL     1      14.242  64.692  39.960  1.00  0.00     0.126 C 
HETATM   26  O4  UNL     1      11.888  65.013  40.300  1.00  0.00    -0.266 OA
ENDBRANCH  23  24
ENDBRANCH   9  23
BRANCH  14  27
HETATM   27  C19 UNL     1       8.935  59.851  39.082  1.00  0.00     0.184 C 
BRANCH  27  28
HETATM   28  O7  UNL     1       8.268  58.714  38.963  1.00  0.00    -0.395 OA
HETATM   29  C20 UNL     1       7.188  58.248  39.519  1.00  0.00     0.201 C 
ENDBRANCH  27  28
ENDBRANCH  14  27
BRANCH  13  30
HETATM   30  O6  UNL     1       8.026  61.713  36.050  1.00  0.00    -0.365 OA
HETATM   31  C17 UNL     1       6.933  61.297  35.295  1.00  0.00     0.204 C 
ENDBRANCH  13  30
TORSDOF 7
ENDMDL
MODEL 5
REMARK VINA RESULT: -6.743766719      0.986      1.114
REMARK  7 active torsions:
REMARK  status: ('A' for Active; 'I' for Inactive)
REMARK    1  A    between atoms: C3_3  and  O1_4 
REMARK    2  A    between atoms: O1_4  and  C4_5 
REMARK    3  A    between atoms: C11_13  and  O3_14 
REMARK    4  A    between atoms: O3_14  and  C12_15 
REMARK    5  A    between atoms: C16_21  and  O6_22 
REMARK    6  A    between atoms: C18_24  and  C19_25 
REMARK    7  A    between atoms: C19_25  and  O7_26 
ROOT
HETATM    1  C1  UNL     1      15.191  56.988  36.674  1.00  0.00     0.017 C 
HETATM    2  C2  UNL     1      15.268  57.608  37.811  1.00  0.00    -0.055 C 
HETATM    3  C3  UNL     1      16.362  57.380  38.819  1.00  0.00     0.160 C 
HETATM    4  C6  UNL     1      16.976  58.722  39.019  1.00  0.00     0.037 C 
HETATM    5  C7  UNL     1      15.985  59.710  39.614  1.00  0.00     0.009 C 
HETATM    6  C8  UNL     1      14.596  59.221  39.590  1.00  0.00     0.005 C 
HETATM    7  C9  UNL     1      14.265  58.612  38.224  1.00  0.00     0.024 C 
HETATM    8  C10 UNL     1      14.263  59.866  37.436  1.00  0.00     0.049 C 
HETATM    9  C11 UNL     1      13.196  60.694  38.226  1.00  0.00     0.081 C 
HETATM   10  C14 UNL     1      13.432  62.101  37.815  1.00  0.00     0.072 C 
HETATM   11  C15 UNL     1      13.288  63.120  38.829  1.00  0.00     0.143 C 
HETATM   12  O5  UNL     1      13.321  64.466  38.463  1.00  0.00    -0.354 OA
HETATM   13  C16 UNL     1      13.774  64.684  39.792  1.00  0.00     0.272 C 
HETATM   14  C18 UNL     1      14.588  63.424  39.550  1.00  0.00     0.057 C 
HETATM   15  C21 UNL     1      14.635  62.413  40.642  1.00  0.00     0.020 C 
HETATM   16  C22 UNL     1      13.659  61.319  40.654  1.00  0.00     0.014 C 
HETATM   17  C23 UNL     1      13.505  60.309  39.604  1.00  0.00    -0.008 C 
HETATM   18  C24 UNL     1      12.320  59.476  40.127  1.00  0.00     0.019 C 
ENDROOT
BRANCH   3  19
HETATM   19  O1  UNL     1      17.182  56.344  38.498  1.00  0.00    -0.312 OA
BRANCH  19  20
HETATM   20  C4  UNL     1      18.456  56.347  38.036  1.00  0.00     0.255 C 
HETATM   21  C5  UNL     1      19.586  56.183  38.977  1.00  0.00     0.126 C 
HETATM   22  O2  UNL     1      18.602  56.493  36.805  1.00  0.00    -0.266 OA
ENDBRANCH  19  20
ENDBRANCH   3  19
BRANCH   9  23
HETATM   23  O3  UNL     1      12.049  60.174  37.619  1.00  0.00    -0.309 OA
BRANCH  23  24
HETATM   24  C12 UNL     1      11.079  60.753  36.893  1.00  0.00     0.255 C 
HETATM   25  C13 UNL     1       9.957  61.443  37.610  1.00  0.00     0.126 C 
HETATM   26  O4  UNL     1      11.155  60.689  35.672  1.00  0.00    -0.266 OA
ENDBRANCH  23  24
ENDBRANCH   9  23
BRANCH  14  27
HETATM   27  C19 UNL     1      15.761  63.749  38.735  1.00  0.00     0.184 C 
BRANCH  27  28
HETATM   28  O7  UNL     1      16.959  63.511  39.244  1.00  0.00    -0.395 OA
HETATM   29  C20 UNL     1      17.995  62.845  38.821  1.00  0.00     0.201 C 
ENDBRANCH  27  28
ENDBRANCH  14  27
BRANCH  13  30
HETATM   30  O6  UNL     1      12.830  64.601  40.776  1.00  0.00    -0.365 OA
HETATM   31  C17 UNL     1      12.528  65.853  41.303  1.00  0.00     0.204 C 
ENDBRANCH  13  30
TORSDOF 7
ENDMDL
