MODEL 1
REMARK VINA RESULT: -9.677216775      0.000      0.000
REMARK  5 active torsions:
REMARK  status: ('A' for Active; 'I' for Inactive)
REMARK    1  A    between atoms: C2_2  and  C3_3 
REMARK    2  A    between atoms: C3_3  and  C4_4 
REMARK    3  A    between atoms: N2_8  and  C7_9 
REMARK       I    between atoms: N3_12  and  C10_13 
REMARK    4  A    between atoms: C10_13  and  C11_15 
REMARK    5  A    between atoms: C13_17  and  C14_18 
ROOT
HETATM    1  C4  UNL     1       8.190  63.209  37.578  1.00  0.00     0.163 C 
HETATM    2  C5  UNL     1       7.940  64.386  38.414  1.00  0.00     0.062 C 
HETATM    3  N1  UNL     1       7.754  65.325  39.094  1.00  0.00    -0.197 NA
ENDROOT
BRANCH   1   4
HETATM    4  C3  UNL     1       9.182  62.256  38.302  1.00  0.00     0.099 C 
HETATM    5  C6  UNL     1      10.439  63.023  38.454  1.00  0.00     0.311 C 
HETATM    6  N2  UNL     1      11.619  62.277  38.076  1.00  0.00     0.097 N 
HETATM    7  C22 UNL     1      11.599  62.017  36.647  1.00  0.00     0.275 C 
HETATM    8  C23 UNL     1      11.205  60.564  36.475  1.00  0.00     0.056 C 
HETATM    9  C24 UNL     1      10.245  60.268  37.641  1.00  0.00     0.170 C 
HETATM   10  O4  UNL     1       9.206  61.136  37.533  1.00  0.00    -0.377 OA
BRANCH   4  11
HETATM   11  C2  UNL     1       8.492  61.955  39.613  1.00  0.00     0.036 C 
HETATM   12  C1  UNL     1       7.308  61.059  39.514  1.00  0.00     0.008 C 
ENDBRANCH   4  11
BRANCH   6  13
HETATM   13  C7  UNL     1      12.827  63.005  38.371  1.00  0.00     0.242 C 
HETATM   14  C8  UNL     1      12.612  64.053  39.445  1.00  0.00     0.057 C 
HETATM   15  C9  UNL     1      14.085  64.359  39.777  1.00  0.00     0.128 C 
HETATM   16  N3  UNL     1      14.753  63.084  39.644  1.00  0.00    -0.345 N 
HETATM   17  C10 UNL     1      16.079  62.814  40.069  1.00  0.00     0.272 C 
HETATM   18  C21 UNL     1      13.877  62.134  39.019  1.00  0.00     0.161 C 
HETATM   19  O1  UNL     1      16.727  63.784  40.601  1.00  0.00    -0.266 OA
BRANCH  17  20
HETATM   20  C11 UNL     1      16.756  61.552  39.956  1.00  0.00     0.125 A 
HETATM   21  C12 UNL     1      16.150  60.340  39.697  1.00  0.00     0.074 A 
HETATM   22  C13 UNL     1      17.103  59.345  39.656  1.00  0.00     0.107 A 
HETATM   23  O3  UNL     1      18.253  59.964  39.888  1.00  0.00    -0.239 OA
HETATM   24  N4  UNL     1      18.068  61.235  40.062  1.00  0.00    -0.256 N 
ATOM     25  H4  UNL     1      18.811  61.906  40.253  1.00  0.00     0.195 HD
BRANCH  22  26
HETATM   26  C14 UNL     1      16.930  57.869  39.407  1.00  0.00     0.180 C 
HETATM   27  C15 UNL     1      16.359  57.737  38.021  1.00  0.00     0.039 C 
HETATM   28  C16 UNL     1      15.878  56.339  37.709  1.00  0.00     0.003 C 
HETATM   29  C17 UNL     1      17.032  55.398  37.455  1.00  0.00     0.000 C 
HETATM   30  C18 UNL     1      17.086  54.432  38.603  1.00  0.00     0.002 C 
HETATM   31  C19 UNL     1      17.282  55.102  39.938  1.00  0.00     0.026 C 
HETATM   32  C20 UNL     1      18.372  56.102  39.965  1.00  0.00     0.168 C 
HETATM   33  O2  UNL     1      18.156  57.320  39.471  1.00  0.00    -0.379 OA
ENDBRANCH  22  26
ENDBRANCH  17  20
ENDBRANCH   6  13
ENDBRANCH   1   4
TORSDOF 5
ENDMDL
MODEL 2
REMARK VINA RESULT: -9.454295923      2.045      8.746
REMARK  5 active torsions:
REMARK  status: ('A' for Active; 'I' for Inactive)
REMARK    1  A    between atoms: C2_2  and  C3_3 
REMARK    2  A    between atoms: C3_3  and  C4_4 
REMARK    3  A    between atoms: N2_8  and  C7_9 
REMARK       I    between atoms: N3_12  and  C10_13 
REMARK    4  A    between atoms: C10_13  and  C11_15 
REMARK    5  A    between atoms: C13_17  and  C14_18 
ROOT
HETATM    1  C4  UNL     1      18.431  56.130  39.857  1.00  0.00     0.163 C 
HETATM    2  C5  UNL     1      17.494  55.012  39.730  1.00  0.00     0.062 C 
HETATM    3  N1  UNL     1      16.737  54.122  39.612  1.00  0.00    -0.197 NA
ENDROOT
BRANCH   1   4
HETATM    4  C3  UNL     1      18.079  57.227  38.813  1.00  0.00     0.099 C 
HETATM    5  C6  UNL     1      17.574  58.378  39.593  1.00  0.00     0.311 C 
HETATM    6  N2  UNL     1      16.355  58.945  39.060  1.00  0.00     0.097 N 
HETATM    7  C22 UNL     1      15.268  57.992  39.197  1.00  0.00     0.275 C 
HETATM    8  C23 UNL     1      15.033  57.401  37.822  1.00  0.00     0.056 C 
HETATM    9  C24 UNL     1      16.420  57.371  37.156  1.00  0.00     0.170 C 
HETATM   10  O4  UNL     1      17.227  56.617  37.948  1.00  0.00    -0.377 OA
BRANCH   4  11
HETATM   11  C2  UNL     1      19.397  57.493  38.121  1.00  0.00     0.036 C 
HETATM   12  C1  UNL     1      19.969  56.337  37.381  1.00  0.00     0.008 C 
ENDBRANCH   4  11
BRANCH   6  13
HETATM   13  C7  UNL     1      15.974  60.146  39.761  1.00  0.00     0.242 C 
HETATM   14  C8  UNL     1      17.098  61.162  39.803  1.00  0.00     0.057 C 
HETATM   15  C9  UNL     1      16.290  62.394  40.249  1.00  0.00     0.128 C 
HETATM   16  N3  UNL     1      15.011  62.238  39.593  1.00  0.00    -0.345 N 
HETATM   17  C10 UNL     1      14.010  63.240  39.518  1.00  0.00     0.272 C 
HETATM   18  C21 UNL     1      14.906  60.923  39.030  1.00  0.00     0.161 C 
HETATM   19  O1  UNL     1      14.265  64.360  40.087  1.00  0.00    -0.266 OA
BRANCH  17  20
HETATM   20  C11 UNL     1      12.739  63.109  38.862  1.00  0.00     0.125 A 
HETATM   21  C12 UNL     1      11.691  62.324  39.297  1.00  0.00     0.074 A 
HETATM   22  C13 UNL     1      10.630  62.442  38.426  1.00  0.00     0.107 A 
HETATM   23  O3  UNL     1      11.048  63.285  37.491  1.00  0.00    -0.239 OA
HETATM   24  N4  UNL     1      12.260  63.677  37.730  1.00  0.00    -0.256 N 
ATOM     25  H4  UNL     1      12.783  64.327  37.143  1.00  0.00     0.195 HD
BRANCH  22  26
HETATM   26  C14 UNL     1       9.276  61.782  38.477  1.00  0.00     0.180 C 
HETATM   27  C15 UNL     1       9.507  60.320  38.203  1.00  0.00     0.039 C 
HETATM   28  C16 UNL     1       8.227  59.555  37.957  1.00  0.00     0.003 C 
HETATM   29  C17 UNL     1       7.465  59.319  39.239  1.00  0.00     0.000 C 
HETATM   30  C18 UNL     1       6.220  60.155  39.184  1.00  0.00     0.002 C 
HETATM   31  C19 UNL     1       6.497  61.629  39.039  1.00  0.00     0.026 C 
HETATM   32  C20 UNL     1       7.511  62.154  39.980  1.00  0.00     0.168 C 
HETATM   33  O2  UNL     1       8.804  61.963  39.723  1.00  0.00    -0.379 OA
ENDBRANCH  22  26
ENDBRANCH  17  20
ENDBRANCH   6  13
ENDBRANCH   1   4
TORSDOF 5
ENDMDL
MODEL 3
REMARK VINA RESULT: -9.425966129      4.356      7.384
REMARK  5 active torsions:
REMARK  status: ('A' for Active; 'I' for Inactive)
REMARK    1  A    between atoms: C2_2  and  C3_3 
REMARK    2  A    between atoms: C3_3  and  C4_4 
REMARK    3  A    between atoms: N2_8  and  C7_9 
REMARK       I    between atoms: N3_12  and  C10_13 
REMARK    4  A    between atoms: C10_13  and  C11_15 
REMARK    5  A    between atoms: C13_17  and  C14_18 
ROOT
HETATM    1  C4  UNL     1      13.514  67.884  43.945  1.00  0.00     0.163 C 
HETATM    2  C5  UNL     1      13.669  66.988  45.092  1.00  0.00     0.062 C 
HETATM    3  N1  UNL     1      13.775  66.268  46.014  1.00  0.00    -0.197 NA
ENDROOT
BRANCH   1   4
HETATM    4  C3  UNL     1      12.050  68.403  43.882  1.00  0.00     0.099 C 
HETATM    5  C6  UNL     1      11.256  67.298  43.301  1.00  0.00     0.311 C 
HETATM    6  N2  UNL     1      10.354  67.724  42.253  1.00  0.00     0.097 N 
HETATM    7  C22 UNL     1      11.116  68.179  41.105  1.00  0.00     0.275 C 
HETATM    8  C23 UNL     1      11.058  69.694  41.117  1.00  0.00     0.056 C 
HETATM    9  C24 UNL     1      11.012  70.080  42.606  1.00  0.00     0.170 C 
HETATM   10  O4  UNL     1      12.128  69.568  43.186  1.00  0.00    -0.377 OA
BRANCH   4  11
HETATM   11  C2  UNL     1      11.716  68.698  45.326  1.00  0.00     0.036 C 
HETATM   12  C1  UNL     1      10.357  68.276  45.761  1.00  0.00     0.008 C 
ENDBRANCH   4  11
BRANCH   6  13
HETATM   13  C7  UNL     1       9.501  66.649  41.814  1.00  0.00     0.242 C 
HETATM   14  C8  UNL     1       8.239  67.159  41.147  1.00  0.00     0.057 C 
HETATM   15  C9  UNL     1       7.769  65.847  40.491  1.00  0.00     0.128 C 
HETATM   16  N3  UNL     1       8.993  65.186  40.100  1.00  0.00    -0.345 N 
HETATM   17  C10 UNL     1       9.067  64.049  39.255  1.00  0.00     0.272 C 
HETATM   18  C21 UNL     1      10.120  65.849  40.692  1.00  0.00     0.161 C 
HETATM   19  O1  UNL     1       7.959  63.575  38.819  1.00  0.00    -0.266 OA
BRANCH  17  20
HETATM   20  C11 UNL     1      10.274  63.384  38.846  1.00  0.00     0.125 A 
HETATM   21  C12 UNL     1      11.021  62.529  39.629  1.00  0.00     0.074 A 
HETATM   22  C13 UNL     1      12.108  62.075  38.914  1.00  0.00     0.107 A 
HETATM   23  O3  UNL     1      12.002  62.656  37.727  1.00  0.00    -0.239 OA
HETATM   24  N4  UNL     1      10.950  63.412  37.673  1.00  0.00    -0.256 N 
ATOM     25  H4  UNL     1      10.670  63.955  36.857  1.00  0.00     0.195 HD
BRANCH  22  26
HETATM   26  C14 UNL     1      13.202  61.130  39.339  1.00  0.00     0.180 C 
HETATM   27  C15 UNL     1      13.085  59.920  38.451  1.00  0.00     0.039 C 
HETATM   28  C16 UNL     1      13.938  58.762  38.914  1.00  0.00     0.003 C 
HETATM   29  C17 UNL     1      15.400  58.993  38.612  1.00  0.00     0.000 C 
HETATM   30  C18 UNL     1      16.103  59.199  39.922  1.00  0.00     0.002 C 
HETATM   31  C19 UNL     1      15.571  60.370  40.707  1.00  0.00     0.026 C 
HETATM   32  C20 UNL     1      15.424  61.615  39.921  1.00  0.00     0.168 C 
HETATM   33  O2  UNL     1      14.367  61.766  39.125  1.00  0.00    -0.379 OA
ENDBRANCH  22  26
ENDBRANCH  17  20
ENDBRANCH   6  13
ENDBRANCH   1   4
TORSDOF 5
ENDMDL
MODEL 4
REMARK VINA RESULT: -9.374097625      4.444      7.715
REMARK  5 active torsions:
REMARK  status: ('A' for Active; 'I' for Inactive)
REMARK    1  A    between atoms: C2_2  and  C3_3 
REMARK    2  A    between atoms: C3_3  and  C4_4 
REMARK    3  A    between atoms: N2_8  and  C7_9 
REMARK       I    between atoms: N3_12  and  C10_13 
REMARK    4  A    between atoms: C10_13  and  C11_15 
REMARK    5  A    between atoms: C13_17  and  C14_18 
ROOT
HETATM    1  C4  UNL     1      13.569  67.972  44.016  1.00  0.00     0.163 C 
HETATM    2  C5  UNL     1      13.687  67.018  45.120  1.00  0.00     0.062 C 
HETATM    3  N1  UNL     1      13.764  66.252  46.007  1.00  0.00    -0.197 NA
ENDROOT
BRANCH   1   4
HETATM    4  C3  UNL     1      12.117  68.523  43.955  1.00  0.00     0.099 C 
HETATM    5  C6  UNL     1      11.288  67.418  43.426  1.00  0.00     0.311 C 
HETATM    6  N2  UNL     1      10.381  67.828  42.377  1.00  0.00     0.097 N 
HETATM    7  C22 UNL     1      11.136  68.224  41.202  1.00  0.00     0.275 C 
HETATM    8  C23 UNL     1      11.113  69.738  41.160  1.00  0.00     0.056 C 
HETATM    9  C24 UNL     1      11.099  70.179  42.635  1.00  0.00     0.170 C 
HETATM   10  O4  UNL     1      12.212  69.660  43.217  1.00  0.00    -0.377 OA
BRANCH   4  11
HETATM   11  C2  UNL     1      11.811  68.877  45.392  1.00  0.00     0.036 C 
HETATM   12  C1  UNL     1      10.399  68.666  45.811  1.00  0.00     0.008 C 
ENDBRANCH   4  11
BRANCH   6  13
HETATM   13  C7  UNL     1       9.497  66.758  41.988  1.00  0.00     0.242 C 
HETATM   14  C8  UNL     1       8.171  67.276  41.467  1.00  0.00     0.057 C 
HETATM   15  C9  UNL     1       7.648  65.981  40.817  1.00  0.00     0.128 C 
HETATM   16  N3  UNL     1       8.832  65.345  40.286  1.00  0.00    -0.345 N 
HETATM   17  C10 UNL     1       8.830  64.237  39.401  1.00  0.00     0.272 C 
HETATM   18  C21 UNL     1      10.007  66.001  40.785  1.00  0.00     0.161 C 
HETATM   19  O1  UNL     1       7.688  63.766  39.061  1.00  0.00    -0.266 OA
BRANCH  17  20
HETATM   20  C11 UNL     1       9.995  63.598  38.853  1.00  0.00     0.125 A 
HETATM   21  C12 UNL     1      10.973  62.956  39.584  1.00  0.00     0.074 A 
HETATM   22  C13 UNL     1      11.937  62.460  38.734  1.00  0.00     0.107 A 
HETATM   23  O3  UNL     1      11.532  62.806  37.520  1.00  0.00    -0.239 OA
HETATM   24  N4  UNL     1      10.415  63.461  37.573  1.00  0.00    -0.256 N 
ATOM     25  H4  UNL     1       9.919  63.825  36.760  1.00  0.00     0.195 HD
BRANCH  22  26
HETATM   26  C14 UNL     1      13.191  61.690  39.059  1.00  0.00     0.180 C 
HETATM   27  C15 UNL     1      14.277  62.714  39.258  1.00  0.00     0.039 C 
HETATM   28  C16 UNL     1      15.658  62.106  39.331  1.00  0.00     0.003 C 
HETATM   29  C17 UNL     1      15.893  61.421  40.657  1.00  0.00     0.000 C 
HETATM   30  C18 UNL     1      15.957  59.944  40.397  1.00  0.00     0.002 C 
HETATM   31  C19 UNL     1      14.700  59.394  39.774  1.00  0.00     0.026 C 
HETATM   32  C20 UNL     1      13.452  59.814  40.447  1.00  0.00     0.168 C 
HETATM   33  O2  UNL     1      12.951  61.024  40.203  1.00  0.00    -0.379 OA
ENDBRANCH  22  26
ENDBRANCH  17  20
ENDBRANCH   6  13
ENDBRANCH   1   4
TORSDOF 5
ENDMDL
MODEL 5
REMARK VINA RESULT: -9.254515697      4.567      8.060
REMARK  5 active torsions:
REMARK  status: ('A' for Active; 'I' for Inactive)
REMARK    1  A    between atoms: C2_2  and  C3_3 
REMARK    2  A    between atoms: C3_3  and  C4_4 
REMARK    3  A    between atoms: N2_8  and  C7_9 
REMARK       I    between atoms: N3_12  and  C10_13 
REMARK    4  A    between atoms: C10_13  and  C11_15 
REMARK    5  A    between atoms: C13_17  and  C14_18 
ROOT
HETATM    1  C4  UNL     1      13.657  67.526  44.205  1.00  0.00     0.163 C 
HETATM    2  C5  UNL     1      13.719  66.653  45.379  1.00  0.00     0.062 C 
HETATM    3  N1  UNL     1      13.750  65.955  46.323  1.00  0.00    -0.197 NA
ENDROOT
BRANCH   1   4
HETATM    4  C3  UNL     1      12.308  68.297  44.197  1.00  0.00     0.099 C 
HETATM    5  C6  UNL     1      11.305  67.348  43.665  1.00  0.00     0.311 C 
HETATM    6  N2  UNL     1      10.448  67.923  42.651  1.00  0.00     0.097 N 
HETATM    7  C22 UNL     1      11.228  68.230  41.465  1.00  0.00     0.275 C 
HETATM    8  C23 UNL     1      11.441  69.731  41.461  1.00  0.00     0.056 C 
HETATM    9  C24 UNL     1      11.530  70.126  42.946  1.00  0.00     0.170 C 
HETATM   10  O4  UNL     1      12.561  69.426  43.485  1.00  0.00    -0.377 OA
BRANCH   4  11
HETATM   11  C2  UNL     1      12.095  68.653  45.651  1.00  0.00     0.036 C 
HETATM   12  C1  UNL     1      10.701  69.025  46.014  1.00  0.00     0.008 C 
ENDBRANCH   4  11
BRANCH   6  13
HETATM   13  C7  UNL     1       9.399  67.015  42.261  1.00  0.00     0.242 C 
HETATM   14  C8  UNL     1       8.143  67.747  41.831  1.00  0.00     0.057 C 
HETATM   15  C9  UNL     1       7.406  66.577  41.152  1.00  0.00     0.128 C 
HETATM   16  N3  UNL     1       8.459  65.803  40.534  1.00  0.00    -0.345 N 
HETATM   17  C10 UNL     1       8.255  64.754  39.602  1.00  0.00     0.272 C 
HETATM   18  C21 UNL     1       9.739  66.254  41.002  1.00  0.00     0.161 C 
HETATM   19  O1  UNL     1       7.041  64.472  39.301  1.00  0.00    -0.266 OA
BRANCH  17  20
HETATM   20  C11 UNL     1       9.287  63.981  38.969  1.00  0.00     0.125 A 
HETATM   21  C12 UNL     1      10.235  63.223  39.624  1.00  0.00     0.074 A 
HETATM   22  C13 UNL     1      11.062  62.617  38.704  1.00  0.00     0.107 A 
HETATM   23  O3  UNL     1      10.607  63.013  37.523  1.00  0.00    -0.239 OA
HETATM   24  N4  UNL     1       9.585  63.798  37.660  1.00  0.00    -0.256 N 
ATOM     25  H4  UNL     1       9.073  64.222  36.887  1.00  0.00     0.195 HD
BRANCH  22  26
HETATM   26  C14 UNL     1      12.236  61.700  38.934  1.00  0.00     0.180 C 
HETATM   27  C15 UNL     1      12.569  61.798  40.399  1.00  0.00     0.039 C 
HETATM   28  C16 UNL     1      13.885  61.146  40.752  1.00  0.00     0.003 C 
HETATM   29  C17 UNL     1      13.776  59.640  40.752  1.00  0.00     0.000 C 
HETATM   30  C18 UNL     1      14.572  59.130  39.586  1.00  0.00     0.002 C 
HETATM   31  C19 UNL     1      14.089  59.658  38.260  1.00  0.00     0.026 C 
HETATM   32  C20 UNL     1      12.628  59.558  38.058  1.00  0.00     0.168 C 
HETATM   33  O2  UNL     1      11.825  60.458  38.622  1.00  0.00    -0.379 OA
ENDBRANCH  22  26
ENDBRANCH  17  20
ENDBRANCH   6  13
ENDBRANCH   1   4
TORSDOF 5
ENDMDL
