MODEL 1
REMARK VINA RESULT: -5.549104766      0.000      0.000
REMARK  9 active torsions:
REMARK  status: ('A' for Active; 'I' for Inactive)
REMARK    1  A    between atoms: N1_1  and  C1_4 
REMARK    2  A    between atoms: N2_5  and  N3_6 
REMARK    3  A    between atoms: C2_9  and  C3_10 
REMARK       I    between atoms: C3_10  and  N4_12 
REMARK    4  A    between atoms: N4_12  and  N5_14 
REMARK    5  A    between atoms: N5_14  and  C4_16 
REMARK    6  A    between atoms: C5_19  and  N7_20 
REMARK    7  A    between atoms: N10_30  and  C9_31 
REMARK    8  A    between atoms: C11_36  and  O3_37 
REMARK    9  A    between atoms: C12_39  and  O4_40 
ROOT
HETATM    1  C1  UNL     1      16.412  49.893   7.784  1.00  0.00     0.703 A 
HETATM    2  N2  UNL     1      16.816  49.200   8.893  1.00  0.00    -0.084 N 
HETATM    3  C2  UNL     1      18.012  49.606   9.313  1.00  0.00     0.185 A 
HETATM    4  C8  UNL     1      18.361  50.612   8.406  1.00  0.00     0.171 A 
HETATM    5  N9  UNL     1      19.583  51.353   8.460  1.00  0.00    -0.079 NA
HETATM    6  N10 UNL     1      17.381  50.759   7.504  1.00  0.00    -0.142 N 
ENDROOT
BRANCH   3   7
HETATM    7  C3  UNL     1      18.835  49.182  10.420  1.00  0.00     0.292 C 
HETATM    8  O1  UNL     1      18.263  48.845  11.502  1.00  0.00    -0.264 OA
HETATM    9  N4  UNL     1      20.231  49.124  10.361  1.00  0.00    -0.263 N 
ATOM     10  H4  UNL     1      20.738  49.384   9.515  1.00  0.00     0.190 HD
BRANCH   9  11
HETATM   11  N5  UNL     1      20.915  48.687  11.529  1.00  0.00    -0.286 N 
ATOM     12  H5  UNL     1      21.640  47.975  11.431  1.00  0.00     0.188 HD
BRANCH  11  13
HETATM   13  C4  UNL     1      20.637  49.193  12.813  1.00  0.00     0.099 C 
HETATM   14  N6  UNL     1      20.080  50.343  13.015  1.00  0.00    -0.335 N 
HETATM   15  C5  UNL     1      19.803  50.844  14.350  1.00  0.00     0.387 C 
ATOM     16  H6  UNL     1      19.827  50.918  12.212  1.00  0.00     0.164 HD
HETATM   17  N8  UNL     1      20.712  50.379  15.327  1.00  0.00    -0.360 N 
HETATM   18  C6  UNL     1      21.273  49.252  15.197  1.00  0.00     0.066 C 
ATOM     19  H8  UNL     1      20.918  50.955  16.143  1.00  0.00     0.162 HD
HETATM   20  C7  UNL     1      20.978  48.415  14.020  1.00  0.00     0.121 C 
BRANCH  15  21
HETATM   21  N7  UNL     1      18.449  50.469  14.688  1.00  0.00    -0.041 N 
ATOM     22  H73 UNL     1      17.751  50.952  14.123  1.00  0.00     0.279 HD
ATOM     23  H72 UNL     1      18.218  49.517  14.400  1.00  0.00     0.279 HD
ATOM     24  H71 UNL     1      18.326  50.622  15.689  1.00  0.00     0.279 HD
ENDBRANCH  15  21
ENDBRANCH  11  13
ENDBRANCH   9  11
ENDBRANCH   3   7
BRANCH   2  25
HETATM   25  N3  UNL     1      16.027  48.191   9.473  1.00  0.00    -0.324 N 
ATOM     26  H32 UNL     1      15.046  48.268   9.741  1.00  0.00     0.178 HD
ATOM     27  H31 UNL     1      16.398  47.263   9.679  1.00  0.00     0.178 HD
ENDBRANCH   2  25
BRANCH   1  28
HETATM   28  N1  UNL     1      15.284  49.690   7.179  1.00  0.00    -0.233 N 
ATOM     29  H12 UNL     1      14.418  49.283   7.535  1.00  0.00     0.174 HD
ATOM     30  H11 UNL     1      15.114  49.928   6.202  1.00  0.00     0.174 HD
ENDBRANCH   1  28
BRANCH   6  31
HETATM   31  C9  UNL     1      17.407  51.703   6.425  1.00  0.00     0.243 C 
HETATM   32  N11 UNL     1      18.665  51.577   5.732  1.00  0.00    -0.334 N 
HETATM   33  C10 UNL     1      19.180  52.842   5.445  1.00  0.00     0.250 C 
ATOM     34  H11 UNL     1      19.113  50.694   5.488  1.00  0.00     0.164 HD
HETATM   35  O2  UNL     1      20.017  53.142   4.537  1.00  0.00    -0.271 OA
HETATM   36  C11 UNL     1      18.555  53.801   6.421  1.00  0.00     0.242 C 
HETATM   37  C12 UNL     1      17.293  53.131   6.880  1.00  0.00     0.199 C 
BRANCH  36  38
HETATM   38  O3  UNL     1      18.287  55.001   5.731  1.00  0.00    -0.383 OA
ATOM     39  H3  UNL     1      17.794  55.567   6.315  1.00  0.00     0.210 HD
ENDBRANCH  36  38
BRANCH  37  40
HETATM   40  O4  UNL     1      17.067  53.249   8.240  1.00  0.00    -0.389 OA
ATOM     41  H4  UNL     1      16.378  53.869   8.450  1.00  0.00     0.210 HD
ENDBRANCH  37  40
ENDBRANCH   6  31
TORSDOF 9
ENDMDL
MODEL 2
REMARK VINA RESULT: -4.069724812      1.139      1.739
REMARK  9 active torsions:
REMARK  status: ('A' for Active; 'I' for Inactive)
REMARK    1  A    between atoms: N1_1  and  C1_4 
REMARK    2  A    between atoms: N2_5  and  N3_6 
REMARK    3  A    between atoms: C2_9  and  C3_10 
REMARK       I    between atoms: C3_10  and  N4_12 
REMARK    4  A    between atoms: N4_12  and  N5_14 
REMARK    5  A    between atoms: N5_14  and  C4_16 
REMARK    6  A    between atoms: C5_19  and  N7_20 
REMARK    7  A    between atoms: N10_30  and  C9_31 
REMARK    8  A    between atoms: C11_36  and  O3_37 
REMARK    9  A    between atoms: C12_39  and  O4_40 
ROOT
HETATM    1  C1  UNL     1      16.298  49.544   7.636  1.00  0.00     0.703 A 
HETATM    2  N2  UNL     1      16.395  48.994   8.886  1.00  0.00    -0.084 N 
HETATM    3  C2  UNL     1      17.410  49.517   9.571  1.00  0.00     0.185 A 
HETATM    4  C8  UNL     1      17.968  50.445   8.686  1.00  0.00     0.171 A 
HETATM    5  N9  UNL     1      19.100  51.264   8.991  1.00  0.00    -0.079 NA
HETATM    6  N10 UNL     1      17.278  50.437   7.537  1.00  0.00    -0.142 N 
ENDROOT
BRANCH   3   7
HETATM    7  C3  UNL     1      17.900  49.261  10.904  1.00  0.00     0.292 C 
HETATM    8  O1  UNL     1      19.078  48.805  11.036  1.00  0.00    -0.264 OA
HETATM    9  N4  UNL     1      17.143  49.488  12.057  1.00  0.00    -0.263 N 
ATOM     10  H4  UNL     1      16.192  49.853  12.005  1.00  0.00     0.190 HD
BRANCH   9  11
HETATM   11  N5  UNL     1      17.753  49.191  13.307  1.00  0.00    -0.286 N 
ATOM     12  H5  UNL     1      17.159  48.892  14.081  1.00  0.00     0.188 HD
BRANCH  11  13
HETATM   13  C4  UNL     1      19.141  49.290  13.523  1.00  0.00     0.099 C 
HETATM   14  N6  UNL     1      19.934  48.267  13.520  1.00  0.00    -0.335 N 
HETATM   15  C5  UNL     1      21.363  48.395  13.745  1.00  0.00     0.387 C 
ATOM     16  H6  UNL     1      19.542  47.340  13.353  1.00  0.00     0.164 HD
HETATM   17  N8  UNL     1      21.707  49.483  14.578  1.00  0.00    -0.360 N 
HETATM   18  C6  UNL     1      20.984  50.521  14.610  1.00  0.00     0.066 C 
ATOM     19  H8  UNL     1      22.544  49.432  15.158  1.00  0.00     0.162 HD
HETATM   20  C7  UNL     1      19.773  50.600  13.773  1.00  0.00     0.121 C 
BRANCH  15  21
HETATM   21  N7  UNL     1      22.002  48.513  12.455  1.00  0.00    -0.041 N 
ATOM     22  H73 UNL     1      22.514  47.672  12.187  1.00  0.00     0.279 HD
ATOM     23  H72 UNL     1      21.337  48.516  11.681  1.00  0.00     0.279 HD
ATOM     24  H71 UNL     1      22.590  49.346  12.476  1.00  0.00     0.279 HD
ENDBRANCH  15  21
ENDBRANCH  11  13
ENDBRANCH   9  11
ENDBRANCH   3   7
BRANCH   2  25
HETATM   25  N3  UNL     1      15.508  48.001   9.337  1.00  0.00    -0.324 N 
ATOM     26  H32 UNL     1      15.646  46.993   9.274  1.00  0.00     0.178 HD
ATOM     27  H31 UNL     1      14.618  48.229   9.780  1.00  0.00     0.178 HD
ENDBRANCH   2  25
BRANCH   1  28
HETATM   28  N1  UNL     1      15.395  49.208   6.770  1.00  0.00    -0.233 N 
ATOM     29  H12 UNL     1      15.117  48.282   6.443  1.00  0.00     0.174 HD
ATOM     30  H11 UNL     1      14.810  49.879   6.272  1.00  0.00     0.174 HD
ENDBRANCH   1  28
BRANCH   6  31
HETATM   31  C9  UNL     1      17.577  51.265   6.406  1.00  0.00     0.243 C 
HETATM   32  N11 UNL     1      18.986  51.162   6.118  1.00  0.00    -0.334 N 
HETATM   33  C10 UNL     1      19.510  52.425   5.841  1.00  0.00     0.250 C 
ATOM     34  H11 UNL     1      19.521  50.293   6.116  1.00  0.00     0.164 HD
HETATM   35  O2  UNL     1      20.561  52.692   5.178  1.00  0.00    -0.271 OA
HETATM   36  C11 UNL     1      18.591  53.430   6.479  1.00  0.00     0.242 C 
HETATM   37  C12 UNL     1      17.278  52.720   6.638  1.00  0.00     0.199 C 
BRANCH  36  38
HETATM   38  O3  UNL     1      18.485  54.531   5.605  1.00  0.00    -0.383 OA
ATOM     39  H3  UNL     1      17.766  54.359   5.008  1.00  0.00     0.210 HD
ENDBRANCH  36  38
BRANCH  37  40
HETATM   40  O4  UNL     1      16.664  52.959   7.855  1.00  0.00    -0.389 OA
ATOM     41  H4  UNL     1      15.834  52.506   7.947  1.00  0.00     0.210 HD
ENDBRANCH  37  40
ENDBRANCH   6  31
TORSDOF 9
ENDMDL
MODEL 3
REMARK VINA RESULT: -3.935370584      2.359      7.305
REMARK  9 active torsions:
REMARK  status: ('A' for Active; 'I' for Inactive)
REMARK    1  A    between atoms: N1_1  and  C1_4 
REMARK    2  A    between atoms: N2_5  and  N3_6 
REMARK    3  A    between atoms: C2_9  and  C3_10 
REMARK       I    between atoms: C3_10  and  N4_12 
REMARK    4  A    between atoms: N4_12  and  N5_14 
REMARK    5  A    between atoms: N5_14  and  C4_16 
REMARK    6  A    between atoms: C5_19  and  N7_20 
REMARK    7  A    between atoms: N10_30  and  C9_31 
REMARK    8  A    between atoms: C11_36  and  O3_37 
REMARK    9  A    between atoms: C12_39  and  O4_40 
ROOT
HETATM    1  C1  UNL     1      17.634  47.388  12.193  1.00  0.00     0.703 A 
HETATM    2  N2  UNL     1      17.082  47.702  10.981  1.00  0.00    -0.084 N 
HETATM    3  C2  UNL     1      17.391  48.943  10.611  1.00  0.00     0.185 A 
HETATM    4  C8  UNL     1      18.184  49.417  11.661  1.00  0.00     0.171 A 
HETATM    5  N9  UNL     1      18.759  50.726  11.705  1.00  0.00    -0.079 NA
HETATM    6  N10 UNL     1      18.310  48.461  12.591  1.00  0.00    -0.142 N 
ENDROOT
BRANCH   3   7
HETATM    7  C3  UNL     1      17.047  49.707   9.436  1.00  0.00     0.292 C 
HETATM    8  O1  UNL     1      16.741  50.931   9.582  1.00  0.00    -0.264 OA
HETATM    9  N4  UNL     1      17.034  49.169   8.146  1.00  0.00    -0.263 N 
ATOM     10  H4  UNL     1      17.272  48.192   7.976  1.00  0.00     0.190 HD
BRANCH   9  11
HETATM   11  N5  UNL     1      16.675  50.039   7.080  1.00  0.00    -0.286 N 
ATOM     12  H5  UNL     1      15.932  49.750   6.443  1.00  0.00     0.188 HD
BRANCH  11  13
HETATM   13  C4  UNL     1      17.299  51.283   6.864  1.00  0.00     0.099 C 
HETATM   14  N6  UNL     1      16.713  52.417   7.079  1.00  0.00    -0.335 N 
HETATM   15  C5  UNL     1      17.379  53.687   6.849  1.00  0.00     0.387 C 
ATOM     16  H6  UNL     1      15.752  52.419   7.421  1.00  0.00     0.164 HD
HETATM   17  N8  UNL     1      18.347  53.638   5.822  1.00  0.00    -0.360 N 
HETATM   18  C6  UNL     1      18.971  52.565   5.577  1.00  0.00     0.066 C 
ATOM     19  H8  UNL     1      18.546  54.475   5.273  1.00  0.00     0.162 HD
HETATM   20  C7  UNL     1      18.688  51.353   6.368  1.00  0.00     0.121 C 
BRANCH  15  21
HETATM   21  N7  UNL     1      17.975  54.102   8.098  1.00  0.00    -0.041 N 
ATOM     22  H73 UNL     1      17.628  53.573   8.899  1.00  0.00     0.279 HD
ATOM     23  H72 UNL     1      18.957  53.837   8.178  1.00  0.00     0.279 HD
ATOM     24  H71 UNL     1      17.827  55.107   8.192  1.00  0.00     0.279 HD
ENDBRANCH  15  21
ENDBRANCH  11  13
ENDBRANCH   9  11
ENDBRANCH   3   7
BRANCH   2  25
HETATM   25  N3  UNL     1      16.290  46.790  10.260  1.00  0.00    -0.324 N 
ATOM     26  H32 UNL     1      16.472  45.794  10.141  1.00  0.00     0.178 HD
ATOM     27  H31 UNL     1      15.437  47.074   9.779  1.00  0.00     0.178 HD
ENDBRANCH   2  25
BRANCH   1  28
HETATM   28  N1  UNL     1      17.485  46.241  12.776  1.00  0.00    -0.233 N 
ATOM     29  H12 UNL     1      17.946  45.867  13.607  1.00  0.00     0.174 HD
ATOM     30  H11 UNL     1      16.841  45.519  12.451  1.00  0.00     0.174 HD
ENDBRANCH   1  28
BRANCH   6  31
HETATM   31  C9  UNL     1      19.057  48.606  13.807  1.00  0.00     0.243 C 
HETATM   32  N11 UNL     1      18.915  49.962  14.277  1.00  0.00    -0.334 N 
HETATM   33  C10 UNL     1      20.149  50.448  14.708  1.00  0.00     0.250 C 
ATOM     34  H11 UNL     1      18.041  50.487  14.291  1.00  0.00     0.164 HD
HETATM   35  O2  UNL     1      20.356  51.400  15.524  1.00  0.00    -0.271 OA
HETATM   36  C11 UNL     1      21.207  49.629  14.022  1.00  0.00     0.242 C 
HETATM   37  C12 UNL     1      20.528  48.348  13.637  1.00  0.00     0.199 C 
BRANCH  36  38
HETATM   38  O3  UNL     1      22.248  49.410  14.947  1.00  0.00    -0.383 OA
ATOM     39  H3  UNL     1      22.198  48.504  15.230  1.00  0.00     0.210 HD
ENDBRANCH  36  38
BRANCH  37  40
HETATM   40  O4  UNL     1      20.857  47.907  12.367  1.00  0.00    -0.389 OA
ATOM     41  H4  UNL     1      20.559  47.021  12.193  1.00  0.00     0.210 HD
ENDBRANCH  37  40
ENDBRANCH   6  31
TORSDOF 9
ENDMDL
MODEL 4
REMARK VINA RESULT: -3.829595195      0.752      1.283
REMARK  9 active torsions:
REMARK  status: ('A' for Active; 'I' for Inactive)
REMARK    1  A    between atoms: N1_1  and  C1_4 
REMARK    2  A    between atoms: N2_5  and  N3_6 
REMARK    3  A    between atoms: C2_9  and  C3_10 
REMARK       I    between atoms: C3_10  and  N4_12 
REMARK    4  A    between atoms: N4_12  and  N5_14 
REMARK    5  A    between atoms: N5_14  and  C4_16 
REMARK    6  A    between atoms: C5_19  and  N7_20 
REMARK    7  A    between atoms: N10_30  and  C9_31 
REMARK    8  A    between atoms: C11_36  and  O3_37 
REMARK    9  A    between atoms: C12_39  and  O4_40 
ROOT
HETATM    1  C1  UNL     1      16.240  49.779   8.059  1.00  0.00     0.703 A 
HETATM    2  N2  UNL     1      16.657  49.016   9.116  1.00  0.00    -0.084 N 
HETATM    3  C2  UNL     1      17.875  49.369   9.521  1.00  0.00     0.185 A 
HETATM    4  C8  UNL     1      18.225  50.414   8.659  1.00  0.00     0.171 A 
HETATM    5  N9  UNL     1      19.467  51.120   8.716  1.00  0.00    -0.079 NA
HETATM    6  N10 UNL     1      17.224  50.634   7.796  1.00  0.00    -0.142 N 
ENDROOT
BRANCH   3   7
HETATM    7  C3  UNL     1      18.718  48.865  10.579  1.00  0.00     0.292 C 
HETATM    8  O1  UNL     1      18.184  48.598  11.699  1.00  0.00    -0.264 OA
HETATM    9  N4  UNL     1      20.093  48.656  10.431  1.00  0.00    -0.263 N 
ATOM     10  H4  UNL     1      20.569  48.856   9.552  1.00  0.00     0.190 HD
BRANCH   9  11
HETATM   11  N5  UNL     1      20.800  48.155  11.559  1.00  0.00    -0.286 N 
ATOM     12  H5  UNL     1      21.283  47.260  11.473  1.00  0.00     0.188 HD
BRANCH  11  13
HETATM   13  C4  UNL     1      20.864  48.839  12.788  1.00  0.00     0.099 C 
HETATM   14  N6  UNL     1      21.169  48.261  13.905  1.00  0.00    -0.335 N 
HETATM   15  C5  UNL     1      21.227  48.989  15.161  1.00  0.00     0.387 C 
ATOM     16  H6  UNL     1      21.374  47.262  13.904  1.00  0.00     0.164 HD
HETATM   17  N8  UNL     1      20.344  50.091  15.216  1.00  0.00    -0.360 N 
HETATM   18  C6  UNL     1      20.025  50.711  14.161  1.00  0.00     0.066 C 
ATOM     19  H8  UNL     1      19.962  50.389  16.113  1.00  0.00     0.162 HD
HETATM   20  C7  UNL     1      20.576  50.285  12.861  1.00  0.00     0.121 C 
BRANCH  15  21
HETATM   21  N7  UNL     1      22.594  49.414  15.358  1.00  0.00    -0.041 N 
ATOM     22  H73 UNL     1      23.155  49.351  14.509  1.00  0.00     0.279 HD
ATOM     23  H72 UNL     1      22.680  50.421  15.500  1.00  0.00     0.279 HD
ATOM     24  H71 UNL     1      22.979  48.870  16.130  1.00  0.00     0.279 HD
ENDBRANCH  15  21
ENDBRANCH  11  13
ENDBRANCH   9  11
ENDBRANCH   3   7
BRANCH   2  25
HETATM   25  N3  UNL     1      15.859  47.997   9.665  1.00  0.00    -0.324 N 
ATOM     26  H32 UNL     1      15.151  47.453   9.173  1.00  0.00     0.178 HD
ATOM     27  H31 UNL     1      15.933  47.717  10.643  1.00  0.00     0.178 HD
ENDBRANCH   2  25
BRANCH   1  28
HETATM   28  N1  UNL     1      15.090  49.636   7.478  1.00  0.00    -0.233 N 
ATOM     29  H12 UNL     1      14.497  50.334   7.028  1.00  0.00     0.174 HD
ATOM     30  H11 UNL     1      14.603  48.744   7.396  1.00  0.00     0.174 HD
ENDBRANCH   1  28
BRANCH   6  31
HETATM   31  C9  UNL     1      17.244  51.634   6.769  1.00  0.00     0.243 C 
HETATM   32  N11 UNL     1      18.460  51.488   6.007  1.00  0.00    -0.334 N 
HETATM   33  C10 UNL     1      19.021  52.742   5.762  1.00  0.00     0.250 C 
ATOM     34  H11 UNL     1      18.851  50.600   5.694  1.00  0.00     0.164 HD
HETATM   35  O2  UNL     1      19.827  53.053   4.830  1.00  0.00    -0.271 OA
HETATM   36  C11 UNL     1      18.491  53.673   6.817  1.00  0.00     0.242 C 
HETATM   37  C12 UNL     1      17.222  53.038   7.304  1.00  0.00     0.199 C 
BRANCH  36  38
HETATM   38  O3  UNL     1      18.249  54.921   6.207  1.00  0.00    -0.383 OA
ATOM     39  H3  UNL     1      18.640  55.592   6.755  1.00  0.00     0.210 HD
ENDBRANCH  36  38
BRANCH  37  40
HETATM   40  O4  UNL     1      17.068  53.091   8.678  1.00  0.00    -0.389 OA
ATOM     41  H4  UNL     1      16.157  53.120   8.949  1.00  0.00     0.210 HD
ENDBRANCH  37  40
ENDBRANCH   6  31
TORSDOF 9
ENDMDL
MODEL 5
REMARK VINA RESULT: -3.522864088      1.176      1.612
REMARK  9 active torsions:
REMARK  status: ('A' for Active; 'I' for Inactive)
REMARK    1  A    between atoms: N1_1  and  C1_4 
REMARK    2  A    between atoms: N2_5  and  N3_6 
REMARK    3  A    between atoms: C2_9  and  C3_10 
REMARK       I    between atoms: C3_10  and  N4_12 
REMARK    4  A    between atoms: N4_12  and  N5_14 
REMARK    5  A    between atoms: N5_14  and  C4_16 
REMARK    6  A    between atoms: C5_19  and  N7_20 
REMARK    7  A    between atoms: N10_30  and  C9_31 
REMARK    8  A    between atoms: C11_36  and  O3_37 
REMARK    9  A    between atoms: C12_39  and  O4_40 
ROOT
HETATM    1  C1  UNL     1      16.545  49.646   7.453  1.00  0.00     0.703 A 
HETATM    2  N2  UNL     1      16.638  49.173   8.734  1.00  0.00    -0.084 N 
HETATM    3  C2  UNL     1      17.525  49.866   9.446  1.00  0.00     0.185 A 
HETATM    4  C8  UNL     1      18.004  50.822   8.545  1.00  0.00     0.171 A 
HETATM    5  N9  UNL     1      18.990  51.806   8.867  1.00  0.00    -0.079 NA
HETATM    6  N10 UNL     1      17.396  50.663   7.361  1.00  0.00    -0.142 N 
ENDROOT
BRANCH   3   7
HETATM    7  C3  UNL     1      17.961  49.743  10.816  1.00  0.00     0.292 C 
HETATM    8  O1  UNL     1      19.141  50.108  11.108  1.00  0.00    -0.264 OA
HETATM    9  N4  UNL     1      17.148  49.243  11.838  1.00  0.00    -0.263 N 
ATOM     10  H4  UNL     1      16.193  48.937  11.655  1.00  0.00     0.190 HD
BRANCH   9  11
HETATM   11  N5  UNL     1      17.709  49.179  13.144  1.00  0.00    -0.286 N 
ATOM     12  H5  UNL     1      17.085  49.261  13.947  1.00  0.00     0.188 HD
BRANCH  11  13
HETATM   13  C4  UNL     1      19.086  49.006  13.377  1.00  0.00     0.099 C 
HETATM   14  N6  UNL     1      19.859  49.956  13.797  1.00  0.00    -0.335 N 
HETATM   15  C5  UNL     1      21.278  49.752  14.030  1.00  0.00     0.387 C 
ATOM     16  H6  UNL     1      19.458  50.877  13.971  1.00  0.00     0.164 HD
HETATM   17  N8  UNL     1      21.851  48.768  13.195  1.00  0.00    -0.360 N 
HETATM   18  C6  UNL     1      21.154  47.802  12.769  1.00  0.00     0.066 C 
ATOM     19  H8  UNL     1      22.834  48.836  12.933  1.00  0.00     0.162 HD
HETATM   20  C7  UNL     1      19.732  47.699  13.145  1.00  0.00     0.121 C 
BRANCH  15  21
HETATM   21  N7  UNL     1      21.449  49.408  15.423  1.00  0.00    -0.041 N 
ATOM     22  H73 UNL     1      20.643  48.919  15.813  1.00  0.00     0.279 HD
ATOM     23  H72 UNL     1      22.137  48.668  15.567  1.00  0.00     0.279 HD
ATOM     24  H71 UNL     1      21.676  50.265  15.928  1.00  0.00     0.279 HD
ENDBRANCH  15  21
ENDBRANCH  11  13
ENDBRANCH   9  11
ENDBRANCH   3   7
BRANCH   2  25
HETATM   25  N3  UNL     1      15.871  48.086   9.188  1.00  0.00    -0.324 N 
ATOM     26  H32 UNL     1      15.978  47.111   8.910  1.00  0.00     0.178 HD
ATOM     27  H31 UNL     1      15.113  48.201   9.861  1.00  0.00     0.178 HD
ENDBRANCH   2  25
BRANCH   1  28
HETATM   28  N1  UNL     1      15.754  49.146   6.557  1.00  0.00    -0.233 N 
ATOM     29  H12 UNL     1      14.737  49.195   6.486  1.00  0.00     0.174 HD
ATOM     30  H11 UNL     1      16.075  48.601   5.757  1.00  0.00     0.174 HD
ENDBRANCH   1  28
BRANCH   6  31
HETATM   31  C9  UNL     1      17.648  51.473   6.205  1.00  0.00     0.243 C 
HETATM   32  N11 UNL     1      19.051  51.390   5.880  1.00  0.00    -0.334 N 
HETATM   33  C10 UNL     1      19.542  52.656   5.563  1.00  0.00     0.250 C 
ATOM     34  H11 UNL     1      19.602  50.532   5.882  1.00  0.00     0.164 HD
HETATM   35  O2  UNL     1      20.569  52.929   4.866  1.00  0.00    -0.271 OA
HETATM   36  C11 UNL     1      18.621  53.657   6.204  1.00  0.00     0.242 C 
HETATM   37  C12 UNL     1      17.327  52.926   6.414  1.00  0.00     0.199 C 
BRANCH  36  38
HETATM   38  O3  UNL     1      18.470  54.737   5.310  1.00  0.00    -0.383 OA
ATOM     39  H3  UNL     1      17.803  55.314   5.663  1.00  0.00     0.210 HD
ENDBRANCH  36  38
BRANCH  37  40
HETATM   40  O4  UNL     1      16.742  53.180   7.642  1.00  0.00    -0.389 OA
ATOM     41  H4  UNL     1      17.361  53.154   8.361  1.00  0.00     0.210 HD
ENDBRANCH  37  40
ENDBRANCH   6  31
TORSDOF 9
ENDMDL
