MODEL 1
REMARK VINA RESULT: -0.130110919      0.000      0.000
REMARK  8 active torsions:
REMARK  status: ('A' for Active; 'I' for Inactive)
REMARK    1  A    between atoms: C4_6  and  N2_7 
REMARK    2  A    between atoms: N3_13  and  N4_14 
REMARK    3  A    between atoms: N4_14  and  O2_16 
REMARK    4  A    between atoms: N5_18  and  C7_19 
REMARK    5  A    between atoms: C8_20  and  O3_21 
REMARK    6  A    between atoms: C9_23  and  O4_24 
REMARK    7  A    between atoms: C11_27  and  N6_28 
REMARK       I    between atoms: N7_32  and  C12_33 
REMARK       I    between atoms: C12_33  and  N8_35 
REMARK    8  A    between atoms: N8_35  and  N9_37 
ROOT
HETATM    1  C1  UNL     1      21.812  50.699  14.717  1.00  0.00     0.021 C 
HETATM    2  C2  UNL     1      20.998  50.141  14.022  1.00  0.00    -0.041 C 
HETATM    3  C3  UNL     1      20.022  49.454  13.198  1.00  0.00     0.163 A 
HETATM    4  N1  UNL     1      19.487  48.298  13.545  1.00  0.00    -0.321 N 
ATOM      5  H1  UNL     1      19.762  47.861  14.424  1.00  0.00     0.169 HD
HETATM    6  C4  UNL     1      18.578  47.683  12.751  1.00  0.00     0.120 A 
HETATM    7  C5  UNL     1      18.214  48.286  11.562  1.00  0.00     0.124 A 
HETATM    8  C6  UNL     1      17.347  47.922  10.567  1.00  0.00     0.301 A 
HETATM    9  O1  UNL     1      16.633  46.887  10.511  1.00  0.00    -0.263 OA
HETATM   10  N3  UNL     1      17.392  48.887   9.645  1.00  0.00    -0.130 N 
HETATM   11  N5  UNL     1      18.251  49.842  10.016  1.00  0.00    -0.223 N 
HETATM   12  C13 UNL     1      18.756  49.475  11.188  1.00  0.00     0.148 A 
HETATM   13  N10 UNL     1      19.652  50.029  12.025  1.00  0.00    -0.319 N 
ATOM     14  H10 UNL     1      20.073  50.921  11.766  1.00  0.00     0.169 HD
ENDROOT
BRANCH   6  15
HETATM   15  N2  UNL     1      18.093  46.560  13.144  1.00  0.00    -0.384 N 
ATOM     16  H22 UNL     1      18.112  46.255  14.117  1.00  0.00     0.157 HD
ATOM     17  H21 UNL     1      17.670  45.948  12.445  1.00  0.00     0.157 HD
ENDBRANCH   6  15
BRANCH  11  18
HETATM   18  C7  UNL     1      18.494  50.986   9.198  1.00  0.00     0.250 C 
HETATM   19  C8  UNL     1      17.308  51.916   9.343  1.00  0.00     0.191 C 
HETATM   20  C9  UNL     1      17.316  53.108   8.463  1.00  0.00     0.154 C 
HETATM   21  C10 UNL     1      18.206  53.061   7.273  1.00  0.00     0.088 C 
HETATM   22  C11 UNL     1      18.299  51.608   6.793  1.00  0.00     0.292 C 
HETATM   23  N7  UNL     1      18.927  50.821   7.857  1.00  0.00    -0.278 N 
HETATM   24  C12 UNL     1      19.997  49.976   7.536  1.00  0.00     0.340 C 
HETATM   25  O5  UNL     1      20.252  49.878   6.267  1.00  0.00    -0.245 OA
HETATM   26  N8  UNL     1      20.825  49.233   8.361  1.00  0.00    -0.258 N 
ATOM     27  H8  UNL     1      20.685  49.267   9.371  1.00  0.00     0.191 HD
BRANCH  19  28
HETATM   28  O3  UNL     1      16.086  51.228   9.238  1.00  0.00    -0.389 OA
ATOM     29  H3  UNL     1      15.405  51.634   9.762  1.00  0.00     0.210 HD
ENDBRANCH  19  28
BRANCH  20  30
HETATM   30  O4  UNL     1      17.658  54.280   9.181  1.00  0.00    -0.393 OA
ATOM     31  H4  UNL     1      16.991  54.951   9.091  1.00  0.00     0.210 HD
ENDBRANCH  20  30
BRANCH  22  32
HETATM   32  N6  UNL     1      17.015  51.167   6.377  1.00  0.00    -0.058 N 
ATOM     33  H63 UNL     1      16.607  50.498   7.030  1.00  0.00     0.276 HD
ATOM     34  H62 UNL     1      16.310  51.900   6.460  1.00  0.00     0.276 HD
ATOM     35  H61 UNL     1      17.077  50.795   5.430  1.00  0.00     0.276 HD
ENDBRANCH  22  32
BRANCH  26  36
HETATM   36  N9  UNL     1      21.844  48.440   7.838  1.00  0.00    -0.341 N 
ATOM     37  H92 UNL     1      22.768  48.856   7.716  1.00  0.00     0.177 HD
ATOM     38  H91 UNL     1      21.678  47.467   7.579  1.00  0.00     0.177 HD
ENDBRANCH  26  36
ENDBRANCH  11  18
BRANCH  10  39
HETATM   39  N4  UNL     1      16.620  48.857   8.451  1.00  0.00    -0.185 N 
ATOM     40  H4  UNL     1      17.080  48.912   7.542  1.00  0.00     0.218 HD
BRANCH  39  41
HETATM   41  O2  UNL     1      15.281  48.754   8.526  1.00  0.00    -0.273 OA
ATOM     42  H2  UNL     1      14.752  48.929   7.756  1.00  0.00     0.246 HD
ENDBRANCH  39  41
ENDBRANCH  10  39
TORSDOF 8
ENDMDL
MODEL 2
REMARK VINA RESULT: -0.071357935      2.266      6.065
REMARK  8 active torsions:
REMARK  status: ('A' for Active; 'I' for Inactive)
REMARK    1  A    between atoms: C4_6  and  N2_7 
REMARK    2  A    between atoms: N3_13  and  N4_14 
REMARK    3  A    between atoms: N4_14  and  O2_16 
REMARK    4  A    between atoms: N5_18  and  C7_19 
REMARK    5  A    between atoms: C8_20  and  O3_21 
REMARK    6  A    between atoms: C9_23  and  O4_24 
REMARK    7  A    between atoms: C11_27  and  N6_28 
REMARK       I    between atoms: N7_32  and  C12_33 
REMARK       I    between atoms: C12_33  and  N8_35 
REMARK    8  A    between atoms: N8_35  and  N9_37 
ROOT
HETATM    1  C1  UNL     1      16.197  54.510   7.758  1.00  0.00     0.021 C 
HETATM    2  C2  UNL     1      17.013  53.624   7.844  1.00  0.00    -0.041 C 
HETATM    3  C3  UNL     1      17.994  52.560   7.926  1.00  0.00     0.163 A 
HETATM    4  N1  UNL     1      18.784  52.243   6.917  1.00  0.00    -0.321 N 
ATOM      5  H1  UNL     1      18.711  52.758   6.040  1.00  0.00     0.169 HD
HETATM    6  C4  UNL     1      19.691  51.242   7.028  1.00  0.00     0.120 A 
HETATM    7  C5  UNL     1      19.780  50.552   8.222  1.00  0.00     0.124 A 
HETATM    8  C6  UNL     1      20.572  49.515   8.635  1.00  0.00     0.301 A 
HETATM    9  O1  UNL     1      21.462  48.918   7.975  1.00  0.00    -0.263 OA
HETATM   10  N3  UNL     1      20.224  49.243   9.895  1.00  0.00    -0.130 N 
HETATM   11  N5  UNL     1      19.248  50.064  10.294  1.00  0.00    -0.223 N 
HETATM   12  C13 UNL     1      18.973  50.865   9.271  1.00  0.00     0.148 A 
HETATM   13  N10 UNL     1      18.097  51.869   9.090  1.00  0.00    -0.319 N 
ATOM     14  H10 UNL     1      17.480  52.122   9.862  1.00  0.00     0.169 HD
ENDROOT
BRANCH   6  15
HETATM   15  N2  UNL     1      20.432  50.981   6.012  1.00  0.00    -0.384 N 
ATOM     16  H22 UNL     1      20.149  50.345   5.266  1.00  0.00     0.157 HD
ATOM     17  H21 UNL     1      21.344  51.433   5.953  1.00  0.00     0.157 HD
ENDBRANCH   6  15
BRANCH  11  18
HETATM   18  C7  UNL     1      18.686  49.975  11.603  1.00  0.00     0.250 C 
HETATM   19  C8  UNL     1      19.671  50.597  12.570  1.00  0.00     0.191 C 
HETATM   20  C9  UNL     1      19.321  50.482  14.005  1.00  0.00     0.154 C 
HETATM   21  C10 UNL     1      18.324  49.444  14.375  1.00  0.00     0.088 C 
HETATM   22  C11 UNL     1      18.466  48.266  13.404  1.00  0.00     0.292 C 
HETATM   23  N7  UNL     1      18.139  48.748  12.059  1.00  0.00    -0.278 N 
HETATM   24  C12 UNL     1      17.229  48.022  11.280  1.00  0.00     0.340 C 
HETATM   25  O5  UNL     1      16.850  46.893  11.796  1.00  0.00    -0.245 OA
HETATM   26  N8  UNL     1      16.670  48.323  10.050  1.00  0.00    -0.258 N 
ATOM     27  H8  UNL     1      16.918  49.199   9.588  1.00  0.00     0.191 HD
BRANCH  19  28
HETATM   28  O3  UNL     1      20.985  50.150  12.341  1.00  0.00    -0.389 OA
ATOM     29  H3  UNL     1      21.382  49.799  13.130  1.00  0.00     0.210 HD
ENDBRANCH  19  28
BRANCH  20  30
HETATM   30  O4  UNL     1      18.840  51.711  14.521  1.00  0.00    -0.393 OA
ATOM     31  H4  UNL     1      18.067  52.006  14.052  1.00  0.00     0.210 HD
ENDBRANCH  20  30
BRANCH  22  32
HETATM   32  N6  UNL     1      19.754  47.687  13.553  1.00  0.00    -0.058 N 
ATOM     33  H63 UNL     1      20.089  47.734  14.515  1.00  0.00     0.276 HD
ATOM     34  H62 UNL     1      19.734  46.671  13.456  1.00  0.00     0.276 HD
ATOM     35  H61 UNL     1      20.399  48.125  12.896  1.00  0.00     0.276 HD
ENDBRANCH  22  32
BRANCH  26  36
HETATM   36  N9  UNL     1      15.775  47.454   9.430  1.00  0.00    -0.341 N 
ATOM     37  H92 UNL     1      14.973  47.121   9.966  1.00  0.00     0.177 HD
ATOM     38  H91 UNL     1      15.911  47.153   8.465  1.00  0.00     0.177 HD
ENDBRANCH  26  36
ENDBRANCH  11  18
BRANCH  10  39
HETATM   39  N4  UNL     1      20.834  48.212  10.663  1.00  0.00    -0.185 N 
ATOM     40  H4  UNL     1      21.337  48.442  11.521  1.00  0.00     0.218 HD
BRANCH  39  41
HETATM   41  O2  UNL     1      20.745  46.934  10.254  1.00  0.00    -0.273 OA
ATOM     42  H2  UNL     1      20.486  46.260  10.870  1.00  0.00     0.246 HD
ENDBRANCH  39  41
ENDBRANCH  10  39
TORSDOF 8
ENDMDL
MODEL 3
REMARK VINA RESULT: 1.372802636      2.530      6.180
REMARK  8 active torsions:
REMARK  status: ('A' for Active; 'I' for Inactive)
REMARK    1  A    between atoms: C4_6  and  N2_7 
REMARK    2  A    between atoms: N3_13  and  N4_14 
REMARK    3  A    between atoms: N4_14  and  O2_16 
REMARK    4  A    between atoms: N5_18  and  C7_19 
REMARK    5  A    between atoms: C8_20  and  O3_21 
REMARK    6  A    between atoms: C9_23  and  O4_24 
REMARK    7  A    between atoms: C11_27  and  N6_28 
REMARK       I    between atoms: N7_32  and  C12_33 
REMARK       I    between atoms: C12_33  and  N8_35 
REMARK    8  A    between atoms: N8_35  and  N9_37 
ROOT
HETATM    1  C1  UNL     1      19.995  52.229   6.114  1.00  0.00     0.021 C 
HETATM    2  C2  UNL     1      19.325  51.614   6.908  1.00  0.00    -0.041 C 
HETATM    3  C3  UNL     1      18.503  50.882   7.852  1.00  0.00     0.163 A 
HETATM    4  N1  UNL     1      17.213  50.676   7.660  1.00  0.00    -0.321 N 
ATOM      5  H1  UNL     1      16.766  51.041   6.820  1.00  0.00     0.169 HD
HETATM    6  C4  UNL     1      16.475  49.987   8.564  1.00  0.00     0.120 A 
HETATM    7  C5  UNL     1      17.094  49.498   9.699  1.00  0.00     0.124 A 
HETATM    8  C6  UNL     1      16.632  48.785  10.771  1.00  0.00     0.301 A 
HETATM    9  O1  UNL     1      15.457  48.383  10.978  1.00  0.00    -0.263 OA
HETATM   10  N3  UNL     1      17.675  48.586  11.580  1.00  0.00    -0.130 N 
HETATM   11  N5  UNL     1      18.774  49.142  11.063  1.00  0.00    -0.223 N 
HETATM   12  C13 UNL     1      18.421  49.703   9.912  1.00  0.00     0.148 A 
HETATM   13  N10 UNL     1      19.092  50.395   8.974  1.00  0.00    -0.319 N 
ATOM     14  H10 UNL     1      20.089  50.561   9.112  1.00  0.00     0.169 HD
ENDROOT
BRANCH   6  15
HETATM   15  N2  UNL     1      15.225  49.818   8.321  1.00  0.00    -0.384 N 
ATOM     16  H22 UNL     1      14.862  49.613   7.390  1.00  0.00     0.157 HD
ATOM     17  H21 UNL     1      14.570  49.896   9.099  1.00  0.00     0.157 HD
ENDBRANCH   6  15
BRANCH  11  18
HETATM   18  C7  UNL     1      20.030  49.081  11.739  1.00  0.00     0.250 C 
HETATM   19  C8  UNL     1      20.762  47.853  11.241  1.00  0.00     0.191 C 
HETATM   20  C9  UNL     1      22.040  47.545  11.926  1.00  0.00     0.154 C 
HETATM   21  C10 UNL     1      22.259  48.172  13.256  1.00  0.00     0.088 C 
HETATM   22  C11 UNL     1      20.901  48.329  13.949  1.00  0.00     0.292 C 
HETATM   23  N7  UNL     1      20.089  49.247  13.147  1.00  0.00    -0.278 N 
HETATM   24  C12 UNL     1      19.445  50.318  13.781  1.00  0.00     0.340 C 
HETATM   25  O5  UNL     1      19.535  50.316  15.076  1.00  0.00    -0.245 OA
HETATM   26  N8  UNL     1      18.732  51.375  13.242  1.00  0.00    -0.258 N 
ATOM     27  H8  UNL     1      18.626  51.443  12.230  1.00  0.00     0.191 HD
BRANCH  19  28
HETATM   28  O3  UNL     1      19.928  46.721  11.213  1.00  0.00    -0.389 OA
ATOM     29  H3  UNL     1      20.231  46.042  11.806  1.00  0.00     0.210 HD
ENDBRANCH  19  28
BRANCH  20  30
HETATM   30  O4  UNL     1      23.154  47.892  11.124  1.00  0.00    -0.393 OA
ATOM     31  H4  UNL     1      23.962  47.539  11.479  1.00  0.00     0.210 HD
ENDBRANCH  20  30
BRANCH  22  32
HETATM   32  N6  UNL     1      20.338  47.046  14.176  1.00  0.00    -0.058 N 
ATOM     33  H63 UNL     1      20.061  46.588  13.308  1.00  0.00     0.276 HD
ATOM     34  H62 UNL     1      21.034  46.367  14.483  1.00  0.00     0.276 HD
ATOM     35  H61 UNL     1      19.563  47.129  14.834  1.00  0.00     0.276 HD
ENDBRANCH  22  32
BRANCH  26  36
HETATM   36  N9  UNL     1      18.157  52.349  14.056  1.00  0.00    -0.341 N 
ATOM     37  H92 UNL     1      17.208  52.657  13.846  1.00  0.00     0.177 HD
ATOM     38  H91 UNL     1      18.668  52.749  14.844  1.00  0.00     0.177 HD
ENDBRANCH  26  36
ENDBRANCH  11  18
BRANCH  10  39
HETATM   39  N4  UNL     1      17.580  47.877  12.810  1.00  0.00    -0.185 N 
ATOM     40  H4  UNL     1      17.350  48.375  13.671  1.00  0.00     0.218 HD
BRANCH  39  41
HETATM   41  O2  UNL     1      17.794  46.550  12.833  1.00  0.00    -0.273 OA
ATOM     42  H2  UNL     1      17.519  46.016  12.097  1.00  0.00     0.246 HD
ENDBRANCH  39  41
ENDBRANCH  10  39
TORSDOF 8
ENDMDL
MODEL 4
REMARK VINA RESULT: 1.996956667      2.464      4.008
REMARK  8 active torsions:
REMARK  status: ('A' for Active; 'I' for Inactive)
REMARK    1  A    between atoms: C4_6  and  N2_7 
REMARK    2  A    between atoms: N3_13  and  N4_14 
REMARK    3  A    between atoms: N4_14  and  O2_16 
REMARK    4  A    between atoms: N5_18  and  C7_19 
REMARK    5  A    between atoms: C8_20  and  O3_21 
REMARK    6  A    between atoms: C9_23  and  O4_24 
REMARK    7  A    between atoms: C11_27  and  N6_28 
REMARK       I    between atoms: N7_32  and  C12_33 
REMARK       I    between atoms: C12_33  and  N8_35 
REMARK    8  A    between atoms: N8_35  and  N9_37 
ROOT
HETATM    1  C1  UNL     1      18.106  52.867  15.044  1.00  0.00     0.021 C 
HETATM    2  C2  UNL     1      18.743  51.958  14.571  1.00  0.00    -0.041 C 
HETATM    3  C3  UNL     1      19.520  50.867  14.017  1.00  0.00     0.163 A 
HETATM    4  N1  UNL     1      20.433  50.218  14.717  1.00  0.00    -0.321 N 
ATOM      5  H1  UNL     1      20.607  50.486  15.685  1.00  0.00     0.169 HD
HETATM    6  C4  UNL     1      21.142  49.202  14.168  1.00  0.00     0.120 A 
HETATM    7  C5  UNL     1      20.896  48.850  12.855  1.00  0.00     0.124 A 
HETATM    8  C6  UNL     1      21.435  47.895  12.036  1.00  0.00     0.301 A 
HETATM    9  O1  UNL     1      22.337  47.062  12.317  1.00  0.00    -0.263 OA
HETATM   10  N3  UNL     1      20.818  48.005  10.857  1.00  0.00    -0.130 N 
HETATM   11  N5  UNL     1      19.914  48.988  10.898  1.00  0.00    -0.223 N 
HETATM   12  C13 UNL     1      19.961  49.508  12.119  1.00  0.00     0.148 A 
HETATM   13  N10 UNL     1      19.295  50.505  12.728  1.00  0.00    -0.319 N 
ATOM     14  H10 UNL     1      18.588  51.014  12.197  1.00  0.00     0.169 HD
ENDROOT
BRANCH   6  15
HETATM   15  N2  UNL     1      22.016  48.610  14.900  1.00  0.00    -0.384 N 
ATOM     16  H22 UNL     1      21.787  48.164  15.789  1.00  0.00     0.157 HD
ATOM     17  H21 UNL     1      22.981  48.588  14.573  1.00  0.00     0.157 HD
ENDBRANCH   6  15
BRANCH  11  18
HETATM   18  C7  UNL     1      19.121  49.321   9.759  1.00  0.00     0.250 C 
HETATM   19  C8  UNL     1      19.765  50.512   9.081  1.00  0.00     0.191 C 
HETATM   20  C9  UNL     1      19.011  51.089   7.944  1.00  0.00     0.154 C 
HETATM   21  C10 UNL     1      17.565  50.753   7.855  1.00  0.00     0.088 C 
HETATM   22  C11 UNL     1      17.020  50.571   9.275  1.00  0.00     0.292 C 
HETATM   23  N7  UNL     1      17.712  49.430   9.881  1.00  0.00    -0.278 N 
HETATM   24  C12 UNL     1      16.955  48.430  10.505  1.00  0.00     0.340 C 
HETATM   25  O5  UNL     1      15.686  48.684  10.596  1.00  0.00    -0.245 OA
HETATM   26  N8  UNL     1      17.351  47.214  11.037  1.00  0.00    -0.258 N 
ATOM     27  H8  UNL     1      18.334  46.946  10.995  1.00  0.00     0.191 HD
BRANCH  19  28
HETATM   28  O3  UNL     1      20.118  51.513  10.004  1.00  0.00    -0.389 OA
ATOM     29  H3  UNL     1      19.599  51.462  10.798  1.00  0.00     0.210 HD
ENDBRANCH  19  28
BRANCH  20  30
HETATM   30  O4  UNL     1      19.590  50.731   6.702  1.00  0.00    -0.393 OA
ATOM     31  H4  UNL     1      20.310  51.309   6.474  1.00  0.00     0.210 HD
ENDBRANCH  20  30
BRANCH  22  32
HETATM   32  N6  UNL     1      17.124  51.798   9.980  1.00  0.00    -0.058 N 
ATOM     33  H63 UNL     1      18.041  52.230   9.869  1.00  0.00     0.276 HD
ATOM     34  H62 UNL     1      16.564  52.537   9.554  1.00  0.00     0.276 HD
ATOM     35  H61 UNL     1      16.883  51.647  10.959  1.00  0.00     0.276 HD
ENDBRANCH  22  32
BRANCH  26  36
HETATM   36  N9  UNL     1      16.431  46.349  11.627  1.00  0.00    -0.341 N 
ATOM     37  H92 UNL     1      16.755  45.431  11.931  1.00  0.00     0.177 HD
ATOM     38  H91 UNL     1      15.456  46.621  11.755  1.00  0.00     0.177 HD
ENDBRANCH  26  36
ENDBRANCH  11  18
BRANCH  10  39
HETATM   39  N4  UNL     1      21.118  47.173   9.743  1.00  0.00    -0.185 N 
ATOM     40  H4  UNL     1      21.403  47.588   8.856  1.00  0.00     0.218 HD
BRANCH  39  41
HETATM   41  O2  UNL     1      21.025  45.837   9.865  1.00  0.00    -0.273 OA
ATOM     42  H2  UNL     1      21.285  45.279   9.142  1.00  0.00     0.246 HD
ENDBRANCH  39  41
ENDBRANCH  10  39
TORSDOF 8
ENDMDL
MODEL 5
REMARK VINA RESULT: 2.325133842      2.214      5.869
REMARK  8 active torsions:
REMARK  status: ('A' for Active; 'I' for Inactive)
REMARK    1  A    between atoms: C4_6  and  N2_7 
REMARK    2  A    between atoms: N3_13  and  N4_14 
REMARK    3  A    between atoms: N4_14  and  O2_16 
REMARK    4  A    between atoms: N5_18  and  C7_19 
REMARK    5  A    between atoms: C8_20  and  O3_21 
REMARK    6  A    between atoms: C9_23  and  O4_24 
REMARK    7  A    between atoms: C11_27  and  N6_28 
REMARK       I    between atoms: N7_32  and  C12_33 
REMARK       I    between atoms: C12_33  and  N8_35 
REMARK    8  A    between atoms: N8_35  and  N9_37 
ROOT
HETATM    1  C1  UNL     1      22.997  48.032   6.453  1.00  0.00     0.021 C 
HETATM    2  C2  UNL     1      22.039  48.713   6.728  1.00  0.00    -0.041 C 
HETATM    3  C3  UNL     1      20.892  49.542   7.042  1.00  0.00     0.163 A 
HETATM    4  N1  UNL     1      20.337  50.351   6.158  1.00  0.00    -0.321 N 
ATOM      5  H1  UNL     1      20.721  50.404   5.215  1.00  0.00     0.169 HD
HETATM    6  C4  UNL     1      19.264  51.112   6.486  1.00  0.00     0.120 A 
HETATM    7  C5  UNL     1      18.754  51.031   7.768  1.00  0.00     0.124 A 
HETATM    8  C6  UNL     1      17.709  51.658   8.389  1.00  0.00     0.301 A 
HETATM    9  O1  UNL     1      16.920  52.507   7.897  1.00  0.00    -0.263 OA
HETATM   10  N3  UNL     1      17.673  51.197   9.641  1.00  0.00    -0.130 N 
HETATM   11  N5  UNL     1      18.650  50.306   9.835  1.00  0.00    -0.223 N 
HETATM   12  C13 UNL     1      19.314  50.204   8.690  1.00  0.00     0.148 A 
HETATM   13  N10 UNL     1      20.376  49.478   8.297  1.00  0.00    -0.319 N 
ATOM     14  H10 UNL     1      20.813  48.850   8.971  1.00  0.00     0.169 HD
ENDROOT
BRANCH   6  15
HETATM   15  N2  UNL     1      18.768  51.879   5.582  1.00  0.00    -0.384 N 
ATOM     16  H22 UNL     1      19.242  52.080   4.702  1.00  0.00     0.157 HD
ATOM     17  H21 UNL     1      17.858  52.304   5.759  1.00  0.00     0.157 HD
ENDBRANCH   6  15
BRANCH  11  18
HETATM   18  C7  UNL     1      18.839  49.668  11.098  1.00  0.00     0.250 C 
HETATM   19  C8  UNL     1      20.219  50.037  11.598  1.00  0.00     0.191 C 
HETATM   20  C9  UNL     1      20.653  49.361  12.844  1.00  0.00     0.154 C 
HETATM   21  C10 UNL     1      19.923  48.124  13.228  1.00  0.00     0.088 C 
HETATM   22  C11 UNL     1      19.467  47.412  11.949  1.00  0.00     0.292 C 
HETATM   23  N7  UNL     1      18.526  48.293  11.253  1.00  0.00    -0.278 N 
HETATM   24  C12 UNL     1      17.299  47.772  10.822  1.00  0.00     0.340 C 
HETATM   25  O5  UNL     1      17.168  46.490  10.976  1.00  0.00    -0.245 OA
HETATM   26  N8  UNL     1      16.207  48.412  10.260  1.00  0.00    -0.258 N 
ATOM     27  H8  UNL     1      16.239  49.421  10.115  1.00  0.00     0.191 HD
BRANCH  19  28
HETATM   28  O3  UNL     1      21.195  49.902  10.594  1.00  0.00    -0.389 OA
ATOM     29  H3  UNL     1      22.076  49.933  10.949  1.00  0.00     0.210 HD
ENDBRANCH  19  28
BRANCH  20  30
HETATM   30  O4  UNL     1      20.587  50.234  13.957  1.00  0.00    -0.393 OA
ATOM     31  H4  UNL     1      21.215  49.991  14.628  1.00  0.00     0.210 HD
ENDBRANCH  20  30
BRANCH  22  32
HETATM   32  N6  UNL     1      20.606  47.015  11.201  1.00  0.00    -0.058 N 
ATOM     33  H63 UNL     1      21.165  46.316  11.690  1.00  0.00     0.276 HD
ATOM     34  H62 UNL     1      20.356  46.455  10.385  1.00  0.00     0.276 HD
ATOM     35  H61 UNL     1      21.150  47.840  10.951  1.00  0.00     0.276 HD
ENDBRANCH  22  32
BRANCH  26  36
HETATM   36  N9  UNL     1      15.066  47.703   9.890  1.00  0.00    -0.341 N 
ATOM     37  H92 UNL     1      14.635  47.085  10.577  1.00  0.00     0.177 HD
ATOM     38  H91 UNL     1      14.667  47.794   8.955  1.00  0.00     0.177 HD
ENDBRANCH  26  36
ENDBRANCH  11  18
BRANCH  10  39
HETATM   39  N4  UNL     1      16.712  51.626  10.600  1.00  0.00    -0.185 N 
ATOM     40  H4  UNL     1      16.971  52.305  11.315  1.00  0.00     0.218 HD
BRANCH  39  41
HETATM   41  O2  UNL     1      15.462  51.133  10.557  1.00  0.00    -0.273 OA
ATOM     42  H2  UNL     1      14.786  51.604  10.085  1.00  0.00     0.246 HD
ENDBRANCH  39  41
ENDBRANCH  10  39
TORSDOF 8
ENDMDL
