MODEL 1
REMARK VINA RESULT: -2.681969582      0.000      0.000
REMARK  10 active torsions:
REMARK  status: ('A' for Active; 'I' for Inactive)
REMARK    1  A    between atoms: C4_6  and  N2_7 
REMARK    2  A    between atoms: C5_12  and  N4_13 
REMARK    3  A    between atoms: N6_19  and  C7_20 
REMARK    4  A    between atoms: C8_22  and  C9_23 
REMARK    5  A    between atoms: C9_23  and  O2_24 
REMARK    6  A    between atoms: C10_26  and  C11_27 
REMARK       I    between atoms: C11_27  and  N7_29 
REMARK    7  A    between atoms: N7_29  and  N8_31 
REMARK       I    between atoms: N8_31  and  C12_33 
REMARK    8  A    between atoms: C12_33  and  C13_35 
REMARK    9  A    between atoms: C13_35  and  N9_36 
REMARK   10  A    between atoms: C13_35  and  N10_40 
ROOT
HETATM    1  C7  UNL     1      17.069  50.702   9.839  1.00  0.00     0.381 C 
HETATM    2  O1  UNL     1      18.180  51.560   9.688  1.00  0.00    -0.333 OA
HETATM    3  C8  UNL     1      17.576  52.464   8.776  1.00  0.00     0.188 C 
HETATM    4  C10 UNL     1      17.149  51.446   7.735  1.00  0.00     0.251 C 
HETATM    5  O5  UNL     1      16.761  50.359   8.556  1.00  0.00    -0.326 OA
ENDROOT
BRANCH   1   6
HETATM    6  N6  UNL     1      17.367  49.616  10.725  1.00  0.00    -0.270 N 
HETATM    7  C2  UNL     1      17.050  48.311  10.465  1.00  0.00     0.085 A 
HETATM    8  C1  UNL     1      16.351  47.797   9.250  1.00  0.00     0.089 C 
HETATM    9  N1  UNL     1      17.493  47.614  11.515  1.00  0.00    -0.340 N 
HETATM   10  C3  UNL     1      18.071  48.422  12.418  1.00  0.00     0.123 A 
ATOM     11  H1  UNL     1      17.404  46.603  11.617  1.00  0.00     0.167 HD
HETATM   12  C4  UNL     1      18.674  48.223  13.643  1.00  0.00     0.145 A 
HETATM   13  C6  UNL     1      17.989  49.719  11.905  1.00  0.00     0.159 A 
HETATM   14  N3  UNL     1      19.177  49.259  14.338  1.00  0.00    -0.175 N 
HETATM   15  C5  UNL     1      19.106  50.512  13.859  1.00  0.00     0.679 A 
ATOM     16  H3  UNL     1      19.619  49.090  15.241  1.00  0.00     0.186 HD
HETATM   17  N5  UNL     1      18.513  50.685  12.659  1.00  0.00    -0.174 N 
ATOM     18  H5  UNL     1      18.462  51.637  12.299  1.00  0.00     0.186 HD
BRANCH  12  19
HETATM   19  N2  UNL     1      18.772  47.052  14.149  1.00  0.00    -0.383 N 
ATOM     20  H22 UNL     1      17.924  46.491  14.232  1.00  0.00     0.157 HD
ATOM     21  H21 UNL     1      19.671  46.687  14.464  1.00  0.00     0.157 HD
ENDBRANCH  12  19
BRANCH  15  22
HETATM   22  N4  UNL     1      19.587  51.532  14.526  1.00  0.00    -0.234 N 
ATOM     23  H42 UNL     1      20.254  51.394  15.286  1.00  0.00     0.174 HD
ATOM     24  H41 UNL     1      19.317  52.491  14.308  1.00  0.00     0.174 HD
ENDBRANCH  15  22
ENDBRANCH   1   6
BRANCH   3  25
HETATM   25  C9  UNL     1      18.476  53.535   8.326  1.00  0.00     0.199 C 
BRANCH  25  26
HETATM   26  O2  UNL     1      18.108  53.990   7.076  1.00  0.00    -0.398 OA
ATOM     27  H2  UNL     1      18.873  54.138   6.533  1.00  0.00     0.209 HD
ENDBRANCH  25  26
ENDBRANCH   3  25
BRANCH   4  28
HETATM   28  C11 UNL     1      18.222  50.972   6.861  1.00  0.00     0.268 C 
HETATM   29  O3  UNL     1      18.140  51.182   5.597  1.00  0.00    -0.269 OA
HETATM   30  N7  UNL     1      19.391  50.284   7.260  1.00  0.00    -0.265 N 
ATOM     31  H7  UNL     1      19.527  50.087   8.252  1.00  0.00     0.190 HD
BRANCH  30  32
HETATM   32  N8  UNL     1      20.380  49.856   6.344  1.00  0.00    -0.264 N 
HETATM   33  C12 UNL     1      21.431  49.037   6.769  1.00  0.00     0.294 C 
HETATM   34  O4  UNL     1      21.508  48.670   7.991  1.00  0.00    -0.267 OA
ATOM     35  H8  UNL     1      20.326  50.146   5.367  1.00  0.00     0.190 HD
BRANCH  33  36
HETATM   36  C13 UNL     1      22.487  48.559   5.864  1.00  0.00     0.469 C 
BRANCH  36  37
HETATM   37  N9  UNL     1      22.261  47.244   5.341  1.00  0.00    -0.041 N 
ATOM     38  H93 UNL     1      23.084  46.659   5.480  1.00  0.00     0.277 HD
ATOM     39  H92 UNL     1      21.590  46.740   5.921  1.00  0.00     0.277 HD
ATOM     40  H91 UNL     1      21.972  47.227   4.363  1.00  0.00     0.277 HD
ENDBRANCH  36  37
BRANCH  36  41
HETATM   41  N10 UNL     1      23.808  48.629   6.485  1.00  0.00    -0.041 N 
ATOM     42 3H10 UNL     1      24.266  49.518   6.282  1.00  0.00     0.277 HD
ATOM     43 2H10 UNL     1      23.737  48.713   7.499  1.00  0.00     0.277 HD
ATOM     44 1H10 UNL     1      24.395  47.839   6.217  1.00  0.00     0.277 HD
ENDBRANCH  36  41
ENDBRANCH  33  36
ENDBRANCH  30  32
ENDBRANCH   4  28
TORSDOF 10
ENDMDL
MODEL 2
REMARK VINA RESULT: -1.850073215      2.416      2.969
REMARK  10 active torsions:
REMARK  status: ('A' for Active; 'I' for Inactive)
REMARK    1  A    between atoms: C4_6  and  N2_7 
REMARK    2  A    between atoms: C5_12  and  N4_13 
REMARK    3  A    between atoms: N6_19  and  C7_20 
REMARK    4  A    between atoms: C8_22  and  C9_23 
REMARK    5  A    between atoms: C9_23  and  O2_24 
REMARK    6  A    between atoms: C10_26  and  C11_27 
REMARK       I    between atoms: C11_27  and  N7_29 
REMARK    7  A    between atoms: N7_29  and  N8_31 
REMARK       I    between atoms: N8_31  and  C12_33 
REMARK    8  A    between atoms: C12_33  and  C13_35 
REMARK    9  A    between atoms: C13_35  and  N9_36 
REMARK   10  A    between atoms: C13_35  and  N10_40 
ROOT
HETATM    1  C7  UNL     1      16.857  51.018   9.341  1.00  0.00     0.381 C 
HETATM    2  O1  UNL     1      17.835  52.017   9.533  1.00  0.00    -0.333 OA
HETATM    3  C8  UNL     1      17.245  52.999   8.695  1.00  0.00     0.188 C 
HETATM    4  C10 UNL     1      17.137  52.154   7.440  1.00  0.00     0.251 C 
HETATM    5  O5  UNL     1      16.800  50.892   7.985  1.00  0.00    -0.326 OA
ENDROOT
BRANCH   1   6
HETATM    6  N6  UNL     1      17.181  49.827  10.070  1.00  0.00    -0.270 N 
HETATM    7  C2  UNL     1      16.827  48.569   9.669  1.00  0.00     0.085 A 
HETATM    8  C1  UNL     1      16.058  48.217   8.440  1.00  0.00     0.089 C 
HETATM    9  N1  UNL     1      17.310  47.742  10.601  1.00  0.00    -0.340 N 
HETATM   10  C3  UNL     1      17.949  48.425  11.564  1.00  0.00     0.123 A 
ATOM     11  H1  UNL     1      17.208  46.727  10.583  1.00  0.00     0.167 HD
HETATM   12  C4  UNL     1      18.610  48.069  12.721  1.00  0.00     0.145 A 
HETATM   13  C6  UNL     1      17.864  49.777  11.219  1.00  0.00     0.159 A 
HETATM   14  N3  UNL     1      19.167  49.006  13.510  1.00  0.00    -0.175 N 
HETATM   15  C5  UNL     1      19.095  50.309  13.193  1.00  0.00     0.679 A 
ATOM     16  H3  UNL     1      19.652  48.721  14.362  1.00  0.00     0.186 HD
HETATM   17  N5  UNL     1      18.444  50.636  12.058  1.00  0.00    -0.174 N 
ATOM     18  H5  UNL     1      18.391  51.626  11.820  1.00  0.00     0.186 HD
BRANCH  12  19
HETATM   19  N2  UNL     1      18.713  46.844  13.074  1.00  0.00    -0.383 N 
ATOM     20  H22 UNL     1      18.592  46.126  12.360  1.00  0.00     0.157 HD
ATOM     21  H21 UNL     1      18.909  46.588  14.042  1.00  0.00     0.157 HD
ENDBRANCH  12  19
BRANCH  15  22
HETATM   22  N4  UNL     1      19.628  51.233  13.954  1.00  0.00    -0.234 N 
ATOM     23  H42 UNL     1      20.615  51.198  14.208  1.00  0.00     0.174 HD
ATOM     24  H41 UNL     1      19.079  52.015  14.313  1.00  0.00     0.174 HD
ENDBRANCH  15  22
ENDBRANCH   1   6
BRANCH   3  25
HETATM   25  C9  UNL     1      18.029  54.237   8.595  1.00  0.00     0.199 C 
BRANCH  25  26
HETATM   26  O2  UNL     1      18.073  54.685   7.291  1.00  0.00    -0.398 OA
ATOM     27  H2  UNL     1      17.419  55.358   7.144  1.00  0.00     0.209 HD
ENDBRANCH  25  26
ENDBRANCH   3  25
BRANCH   4  28
HETATM   28  C11 UNL     1      18.388  51.990   6.699  1.00  0.00     0.268 C 
HETATM   29  O3  UNL     1      19.137  50.978   6.949  1.00  0.00    -0.269 OA
HETATM   30  N7  UNL     1      18.890  52.849   5.694  1.00  0.00    -0.265 N 
ATOM     31  H7  UNL     1      18.344  53.671   5.438  1.00  0.00     0.190 HD
BRANCH  30  32
HETATM   32  N8  UNL     1      20.116  52.616   5.029  1.00  0.00    -0.264 N 
HETATM   33  C12 UNL     1      20.638  53.574   4.153  1.00  0.00     0.294 C 
HETATM   34  O4  UNL     1      20.009  54.667   3.944  1.00  0.00    -0.267 OA
ATOM     35  H8  UNL     1      20.623  51.746   5.190  1.00  0.00     0.190 HD
BRANCH  33  36
HETATM   36  C13 UNL     1      21.908  53.391   3.435  1.00  0.00     0.469 C 
BRANCH  36  37
HETATM   37  N9  UNL     1      22.786  54.521   3.496  1.00  0.00    -0.041 N 
ATOM     38  H93 UNL     1      23.758  54.216   3.545  1.00  0.00     0.277 HD
ATOM     39  H92 UNL     1      22.802  55.009   2.601  1.00  0.00     0.277 HD
ATOM     40  H91 UNL     1      22.578  55.172   4.254  1.00  0.00     0.277 HD
ENDBRANCH  36  37
BRANCH  36  41
HETATM   41  N10 UNL     1      21.694  53.000   2.043  1.00  0.00    -0.041 N 
ATOM     42 3H10 UNL     1      21.239  53.745   1.515  1.00  0.00     0.277 HD
ATOM     43 2H10 UNL     1      22.574  52.954   1.530  1.00  0.00     0.277 HD
ATOM     44 1H10 UNL     1      21.176  52.124   1.971  1.00  0.00     0.277 HD
ENDBRANCH  36  41
ENDBRANCH  33  36
ENDBRANCH  30  32
ENDBRANCH   4  28
TORSDOF 10
ENDMDL
MODEL 3
REMARK VINA RESULT: -1.462534587      2.640      3.431
REMARK  10 active torsions:
REMARK  status: ('A' for Active; 'I' for Inactive)
REMARK    1  A    between atoms: C4_6  and  N2_7 
REMARK    2  A    between atoms: C5_12  and  N4_13 
REMARK    3  A    between atoms: N6_19  and  C7_20 
REMARK    4  A    between atoms: C8_22  and  C9_23 
REMARK    5  A    between atoms: C9_23  and  O2_24 
REMARK    6  A    between atoms: C10_26  and  C11_27 
REMARK       I    between atoms: C11_27  and  N7_29 
REMARK    7  A    between atoms: N7_29  and  N8_31 
REMARK       I    between atoms: N8_31  and  C12_33 
REMARK    8  A    between atoms: C12_33  and  C13_35 
REMARK    9  A    between atoms: C13_35  and  N9_36 
REMARK   10  A    between atoms: C13_35  and  N10_40 
ROOT
HETATM    1  C7  UNL     1      17.829  50.736   9.165  1.00  0.00     0.381 C 
HETATM    2  O1  UNL     1      18.280  52.054   8.935  1.00  0.00    -0.333 OA
HETATM    3  C8  UNL     1      17.129  52.510   8.240  1.00  0.00     0.188 C 
HETATM    4  C10 UNL     1      17.097  51.431   7.174  1.00  0.00     0.251 C 
HETATM    5  O5  UNL     1      17.499  50.296   7.918  1.00  0.00    -0.326 OA
ENDROOT
BRANCH   1   6
HETATM    6  N6  UNL     1      18.814  49.964   9.863  1.00  0.00    -0.270 N 
HETATM    7  C2  UNL     1      19.992  49.549   9.306  1.00  0.00     0.085 A 
HETATM    8  C1  UNL     1      20.450  49.812   7.910  1.00  0.00     0.089 C 
HETATM    9  N1  UNL     1      20.628  48.870  10.266  1.00  0.00    -0.340 N 
HETATM   10  C3  UNL     1      19.902  48.843  11.395  1.00  0.00     0.123 A 
ATOM     11  H1  UNL     1      21.543  48.433  10.156  1.00  0.00     0.167 HD
HETATM   12  C4  UNL     1      20.088  48.293  12.647  1.00  0.00     0.145 A 
HETATM   13  C6  UNL     1      18.727  49.551  11.133  1.00  0.00     0.159 A 
HETATM   14  N3  UNL     1      19.155  48.435  13.605  1.00  0.00    -0.175 N 
HETATM   15  C5  UNL     1      18.019  49.114  13.370  1.00  0.00     0.679 A 
ATOM     16  H3  UNL     1      19.312  48.022  14.524  1.00  0.00     0.186 HD
HETATM   17  N5  UNL     1      17.857  49.643  12.139  1.00  0.00    -0.174 N 
ATOM     18  H5  UNL     1      16.994  50.157  11.964  1.00  0.00     0.186 HD
BRANCH  12  19
HETATM   19  N2  UNL     1      21.150  47.639  12.931  1.00  0.00    -0.383 N 
ATOM     20  H22 UNL     1      21.133  47.026  13.746  1.00  0.00     0.157 HD
ATOM     21  H21 UNL     1      21.992  47.725  12.362  1.00  0.00     0.157 HD
ENDBRANCH  12  19
BRANCH  15  22
HETATM   22  N4  UNL     1      17.099  49.256  14.291  1.00  0.00    -0.234 N 
ATOM     23  H42 UNL     1      16.726  50.178  14.521  1.00  0.00     0.174 HD
ATOM     24  H41 UNL     1      16.725  48.458  14.803  1.00  0.00     0.174 HD
ENDBRANCH  15  22
ENDBRANCH   1   6
BRANCH   3  25
HETATM   25  C9  UNL     1      17.235  53.899   7.775  1.00  0.00     0.199 C 
BRANCH  25  26
HETATM   26  O2  UNL     1      18.541  54.339   7.841  1.00  0.00    -0.398 OA
ATOM     27  H2  UNL     1      18.753  54.880   7.089  1.00  0.00     0.209 HD
ENDBRANCH  25  26
ENDBRANCH   3  25
BRANCH   4  28
HETATM   28  C11 UNL     1      18.065  51.608   6.090  1.00  0.00     0.268 C 
HETATM   29  O3  UNL     1      17.769  51.194   4.912  1.00  0.00    -0.269 OA
HETATM   30  N7  UNL     1      19.340  52.210   6.191  1.00  0.00    -0.265 N 
ATOM     31  H7  UNL     1      19.640  52.569   7.097  1.00  0.00     0.190 HD
BRANCH  30  32
HETATM   32  N8  UNL     1      20.217  52.337   5.088  1.00  0.00    -0.264 N 
HETATM   33  C12 UNL     1      20.210  53.499   4.309  1.00  0.00     0.294 C 
HETATM   34  O4  UNL     1      19.409  54.456   4.586  1.00  0.00    -0.267 OA
ATOM     35  H8  UNL     1      20.858  51.577   4.861  1.00  0.00     0.190 HD
BRANCH  33  36
HETATM   36  C13 UNL     1      21.100  53.690   3.153  1.00  0.00     0.469 C 
BRANCH  36  37
HETATM   37  N9  UNL     1      22.484  53.829   3.494  1.00  0.00    -0.041 N 
ATOM     38  H93 UNL     1      22.883  54.649   3.038  1.00  0.00     0.277 HD
ATOM     39  H92 UNL     1      22.585  54.108   4.470  1.00  0.00     0.277 HD
ATOM     40  H91 UNL     1      23.049  53.002   3.299  1.00  0.00     0.277 HD
ENDBRANCH  36  37
BRANCH  36  41
HETATM   41  N10 UNL     1      20.675  54.814   2.322  1.00  0.00    -0.041 N 
ATOM     42 3H10 UNL     1      21.313  55.604   2.411  1.00  0.00     0.277 HD
ATOM     43 2H10 UNL     1      20.807  54.613   1.330  1.00  0.00     0.277 HD
ATOM     44 1H10 UNL     1      19.712  55.089   2.520  1.00  0.00     0.277 HD
ENDBRANCH  36  41
ENDBRANCH  33  36
ENDBRANCH  30  32
ENDBRANCH   4  28
TORSDOF 10
ENDMDL
MODEL 4
REMARK VINA RESULT: -0.943317626      2.582      3.371
REMARK  10 active torsions:
REMARK  status: ('A' for Active; 'I' for Inactive)
REMARK    1  A    between atoms: C4_6  and  N2_7 
REMARK    2  A    between atoms: C5_12  and  N4_13 
REMARK    3  A    between atoms: N6_19  and  C7_20 
REMARK    4  A    between atoms: C8_22  and  C9_23 
REMARK    5  A    between atoms: C9_23  and  O2_24 
REMARK    6  A    between atoms: C10_26  and  C11_27 
REMARK       I    between atoms: C11_27  and  N7_29 
REMARK    7  A    between atoms: N7_29  and  N8_31 
REMARK       I    between atoms: N8_31  and  C12_33 
REMARK    8  A    between atoms: C12_33  and  C13_35 
REMARK    9  A    between atoms: C13_35  and  N9_36 
REMARK   10  A    between atoms: C13_35  and  N10_40 
ROOT
HETATM    1  C7  UNL     1      18.185  50.528   9.893  1.00  0.00     0.381 C 
HETATM    2  O1  UNL     1      18.459  51.857   9.506  1.00  0.00    -0.333 OA
HETATM    3  C8  UNL     1      17.317  52.036   8.683  1.00  0.00     0.188 C 
HETATM    4  C10 UNL     1      17.528  50.834   7.781  1.00  0.00     0.251 C 
HETATM    5  O5  UNL     1      18.025  49.882   8.703  1.00  0.00    -0.326 OA
ENDROOT
BRANCH   1   6
HETATM    6  N6  UNL     1      19.209  50.015  10.754  1.00  0.00    -0.270 N 
HETATM    7  C2  UNL     1      20.251  49.242  10.321  1.00  0.00     0.085 A 
HETATM    8  C1  UNL     1      20.501  48.801   8.918  1.00  0.00     0.089 C 
HETATM    9  N1  UNL     1      20.980  48.975  11.409  1.00  0.00    -0.340 N 
HETATM   10  C3  UNL     1      20.441  49.544  12.499  1.00  0.00     0.123 A 
ATOM     11  H1  UNL     1      21.832  48.413  11.411  1.00  0.00     0.167 HD
HETATM   12  C4  UNL     1      20.783  49.580  13.835  1.00  0.00     0.145 A 
HETATM   13  C6  UNL     1      19.294  50.218  12.074  1.00  0.00     0.159 A 
HETATM   14  N3  UNL     1      20.026  50.254  14.720  1.00  0.00    -0.175 N 
HETATM   15  C5  UNL     1      18.919  50.907  14.327  1.00  0.00     0.679 A 
ATOM     16  H3  UNL     1      20.296  50.269  15.704  1.00  0.00     0.186 HD
HETATM   17  N5  UNL     1      18.603  50.859  13.017  1.00  0.00    -0.174 N 
ATOM     18  H5  UNL     1      17.763  51.356  12.722  1.00  0.00     0.186 HD
BRANCH  12  19
HETATM   19  N2  UNL     1      21.826  48.980  14.269  1.00  0.00    -0.383 N 
ATOM     20  H22 UNL     1      22.148  49.194  15.213  1.00  0.00     0.157 HD
ATOM     21  H21 UNL     1      22.326  48.305  13.689  1.00  0.00     0.157 HD
ENDBRANCH  12  19
BRANCH  15  22
HETATM   22  N4  UNL     1      18.169  51.563  15.177  1.00  0.00    -0.234 N 
ATOM     23  H42 UNL     1      18.267  52.572  15.293  1.00  0.00     0.174 HD
ATOM     24  H41 UNL     1      17.464  51.092  15.745  1.00  0.00     0.174 HD
ENDBRANCH  15  22
ENDBRANCH   1   6
BRANCH   3  25
HETATM   25  C9  UNL     1      17.260  53.352   8.031  1.00  0.00     0.199 C 
BRANCH  25  26
HETATM   26  O2  UNL     1      18.343  54.125   8.397  1.00  0.00    -0.398 OA
ATOM     27  H2  UNL     1      19.121  53.862   7.920  1.00  0.00     0.209 HD
ENDBRANCH  25  26
ENDBRANCH   3  25
BRANCH   4  28
HETATM   28  C11 UNL     1      18.546  51.013   6.746  1.00  0.00     0.268 C 
HETATM   29  O3  UNL     1      19.005  49.982   6.133  1.00  0.00    -0.269 OA
HETATM   30  N7  UNL     1      19.107  52.239   6.320  1.00  0.00    -0.265 N 
ATOM     31  H7  UNL     1      18.785  53.101   6.758  1.00  0.00     0.190 HD
BRANCH  30  32
HETATM   32  N8  UNL     1      20.094  52.320   5.310  1.00  0.00    -0.264 N 
HETATM   33  C12 UNL     1      20.119  53.410   4.432  1.00  0.00     0.294 C 
HETATM   34  O4  UNL     1      19.249  54.340   4.534  1.00  0.00    -0.267 OA
ATOM     35  H8  UNL     1      20.792  51.582   5.222  1.00  0.00     0.190 HD
BRANCH  33  36
HETATM   36  C13 UNL     1      21.122  53.552   3.365  1.00  0.00     0.469 C 
BRANCH  36  37
HETATM   37  N9  UNL     1      22.440  53.856   3.835  1.00  0.00    -0.041 N 
ATOM     38  H93 UNL     1      22.396  54.397   4.698  1.00  0.00     0.277 HD
ATOM     39  H92 UNL     1      22.899  53.013   4.182  1.00  0.00     0.277 HD
ATOM     40  H91 UNL     1      23.031  54.326   3.149  1.00  0.00     0.277 HD
ENDBRANCH  36  37
BRANCH  36  41
HETATM   41  N10 UNL     1      20.711  54.531   2.362  1.00  0.00    -0.041 N 
ATOM     42 3H10 UNL     1      19.713  54.461   2.162  1.00  0.00     0.277 HD
ATOM     43 2H10 UNL     1      20.733  55.479   2.737  1.00  0.00     0.277 HD
ATOM     44 1H10 UNL     1      21.267  54.456   1.510  1.00  0.00     0.277 HD
ENDBRANCH  36  41
ENDBRANCH  33  36
ENDBRANCH  30  32
ENDBRANCH   4  28
TORSDOF 10
ENDMDL
MODEL 5
REMARK VINA RESULT: -0.674280540      3.050      6.586
REMARK  10 active torsions:
REMARK  status: ('A' for Active; 'I' for Inactive)
REMARK    1  A    between atoms: C4_6  and  N2_7 
REMARK    2  A    between atoms: C5_12  and  N4_13 
REMARK    3  A    between atoms: N6_19  and  C7_20 
REMARK    4  A    between atoms: C8_22  and  C9_23 
REMARK    5  A    between atoms: C9_23  and  O2_24 
REMARK    6  A    between atoms: C10_26  and  C11_27 
REMARK       I    between atoms: C11_27  and  N7_29 
REMARK    7  A    between atoms: N7_29  and  N8_31 
REMARK       I    between atoms: N8_31  and  C12_33 
REMARK    8  A    between atoms: C12_33  and  C13_35 
REMARK    9  A    between atoms: C13_35  and  N9_36 
REMARK   10  A    between atoms: C13_35  and  N10_40 
ROOT
HETATM    1  C7  UNL     1      16.226  49.422   8.688  1.00  0.00     0.381 C 
HETATM    2  O1  UNL     1      17.074  48.387   9.136  1.00  0.00    -0.333 OA
HETATM    3  C8  UNL     1      16.237  47.919  10.182  1.00  0.00     0.188 C 
HETATM    4  C10 UNL     1      16.063  49.240  10.908  1.00  0.00     0.251 C 
HETATM    5  O5  UNL     1      15.988  50.144   9.820  1.00  0.00    -0.326 OA
ENDROOT
BRANCH   1   6
HETATM    6  N6  UNL     1      16.815  50.142   7.598  1.00  0.00    -0.270 N 
HETATM    7  C2  UNL     1      16.987  49.620   6.346  1.00  0.00     0.085 A 
HETATM    8  C1  UNL     1      16.610  48.246   5.901  1.00  0.00     0.089 C 
HETATM    9  N1  UNL     1      17.556  50.590   5.623  1.00  0.00    -0.340 N 
HETATM   10  C3  UNL     1      17.746  51.692   6.366  1.00  0.00     0.123 A 
ATOM     11  H1  UNL     1      17.811  50.505   4.639  1.00  0.00     0.167 HD
HETATM   12  C4  UNL     1      18.279  52.940   6.119  1.00  0.00     0.145 A 
HETATM   13  C6  UNL     1      17.266  51.401   7.646  1.00  0.00     0.159 A 
HETATM   14  N3  UNL     1      18.338  53.867   7.092  1.00  0.00    -0.175 N 
HETATM   15  C5  UNL     1      17.880  53.603   8.328  1.00  0.00     0.679 A 
ATOM     16  H3  UNL     1      18.735  54.785   6.889  1.00  0.00     0.186 HD
HETATM   17  N5  UNL     1      17.363  52.377   8.548  1.00  0.00    -0.174 N 
ATOM     18  H5  UNL     1      17.017  52.180   9.486  1.00  0.00     0.186 HD
BRANCH  12  19
HETATM   19  N2  UNL     1      18.728  53.251   4.962  1.00  0.00    -0.383 N 
ATOM     20  H22 UNL     1      18.175  52.990   4.145  1.00  0.00     0.157 HD
ATOM     21  H21 UNL     1      19.614  53.744   4.855  1.00  0.00     0.157 HD
ENDBRANCH  12  19
BRANCH  15  22
HETATM   22  N4  UNL     1      17.935  54.493   9.287  1.00  0.00    -0.234 N 
ATOM     23  H42 UNL     1      18.456  55.362   9.167  1.00  0.00     0.174 HD
ATOM     24  H41 UNL     1      17.460  54.351  10.178  1.00  0.00     0.174 HD
ENDBRANCH  15  22
ENDBRANCH   1   6
BRANCH   3  25
HETATM   25  C9  UNL     1      16.820  46.811  10.952  1.00  0.00     0.199 C 
BRANCH  25  26
HETATM   26  O2  UNL     1      18.113  47.107  11.332  1.00  0.00    -0.398 OA
ATOM     27  H2  UNL     1      18.450  46.444  11.923  1.00  0.00     0.209 HD
ENDBRANCH  25  26
ENDBRANCH   3  25
BRANCH   4  28
HETATM   28  C11 UNL     1      17.202  49.643  11.733  1.00  0.00     0.268 C 
HETATM   29  O3  UNL     1      18.122  50.375  11.217  1.00  0.00    -0.269 OA
HETATM   30  N7  UNL     1      17.418  49.310  13.090  1.00  0.00    -0.265 N 
ATOM     31  H7  UNL     1      16.724  48.735  13.568  1.00  0.00     0.190 HD
BRANCH  30  32
HETATM   32  N8  UNL     1      18.554  49.741  13.813  1.00  0.00    -0.264 N 
HETATM   33  C12 UNL     1      19.627  48.869  14.029  1.00  0.00     0.294 C 
HETATM   34  O4  UNL     1      19.589  47.675  13.574  1.00  0.00    -0.267 OA
ATOM     35  H8  UNL     1      18.592  50.692  14.180  1.00  0.00     0.190 HD
BRANCH  33  36
HETATM   36  C13 UNL     1      20.836  49.259  14.771  1.00  0.00     0.469 C 
BRANCH  36  37
HETATM   37  N9  UNL     1      20.730  50.518  15.446  1.00  0.00    -0.041 N 
ATOM     38  H93 UNL     1      20.405  50.382  16.403  1.00  0.00     0.277 HD
ATOM     39  H92 UNL     1      21.657  50.903  15.631  1.00  0.00     0.277 HD
ATOM     40  H91 UNL     1      20.147  51.203  14.965  1.00  0.00     0.277 HD
ENDBRANCH  36  37
BRANCH  36  41
HETATM   41  N10 UNL     1      22.023  49.249  13.918  1.00  0.00    -0.041 N 
ATOM     42 3H10 UNL     1      21.837  49.693  13.019  1.00  0.00     0.277 HD
ATOM     43 2H10 UNL     1      22.737  49.887  14.268  1.00  0.00     0.277 HD
ATOM     44 1H10 UNL     1      22.394  48.306  13.798  1.00  0.00     0.277 HD
ENDBRANCH  36  41
ENDBRANCH  33  36
ENDBRANCH  30  32
ENDBRANCH   4  28
TORSDOF 10
ENDMDL
