MODEL 1
REMARK VINA RESULT: -11.021657140      0.000      0.000
REMARK  9 active torsions:
REMARK  status: ('A' for Active; 'I' for Inactive)
REMARK    1  A    between atoms: C2_7  and  C3_8 
REMARK       I    between atoms: C3_8  and  N3_10 
REMARK    2  A    between atoms: N3_10  and  N4_12 
REMARK    3  A    between atoms: C4_13  and  C5_14 
REMARK    4  A    between atoms: N5_15  and  N6_17 
REMARK    5  A    between atoms: C7_19  and  C8_20 
REMARK    6  A    between atoms: C14_26  and  N7_27 
REMARK    7  A    between atoms: C16_36  and  O4_37 
REMARK    8  A    between atoms: N10_39  and  C17_40 
REMARK    9  A    between atoms: C17_40  and  C18_41 
ROOT
HETATM    1  N4  UNL     1     -19.034  10.757  16.569  1.00  0.00    -0.197 N 
HETATM    2  C4  UNL     1     -18.112  11.652  16.891  1.00  0.00     0.129 A 
HETATM    3  C16 UNL     1     -18.714  12.527  17.817  1.00  0.00     0.177 A 
HETATM    4  N10 UNL     1     -19.973  12.166  18.041  1.00  0.00    -0.268 N 
HETATM    5  C19 UNL     1     -20.183  11.089  17.285  1.00  0.00     0.350 A 
HETATM    6  O6  UNL     1     -21.287  10.477  17.249  1.00  0.00    -0.244 OA
ENDROOT
BRANCH   2   7
HETATM    7  C5  UNL     1     -16.759  11.851  16.409  1.00  0.00     0.144 C 
HETATM    8  N5  UNL     1     -16.245  13.042  16.339  1.00  0.00    -0.289 N 
ATOM      9  H5  UNL     1     -16.796  13.852  16.626  1.00  0.00     0.187 HD
BRANCH   8  10
HETATM   10  N6  UNL     1     -14.929  13.218  15.869  1.00  0.00    -0.097 N 
HETATM   11  C6  UNL     1     -14.268  12.170  15.410  1.00  0.00     0.151 A 
HETATM   12  C7  UNL     1     -12.949  12.299  14.929  1.00  0.00     0.043 A 
HETATM   13  C14 UNL     1     -12.324  13.519  14.929  1.00  0.00     0.201 A 
HETATM   14  N8  UNL     1     -13.071  14.567  15.419  1.00  0.00    -0.168 N 
HETATM   15  C15 UNL     1     -14.319  14.408  15.866  1.00  0.00     0.698 A 
ATOM     16  H8  UNL     1     -12.655  15.499  15.442  1.00  0.00     0.186 HD
HETATM   17  N9  UNL     1     -14.974  15.444  16.319  1.00  0.00    -0.233 N 
ATOM     18  H92 UNL     1     -15.928  15.323  16.660  1.00  0.00     0.174 HD
ATOM     19  H91 UNL     1     -14.508  16.352  16.316  1.00  0.00     0.174 HD
BRANCH  12  20
HETATM   20  C8  UNL     1     -12.284  11.119  14.382  1.00  0.00    -0.021 A 
HETATM   21  C9  UNL     1     -10.915  11.012  14.303  1.00  0.00     0.012 A 
HETATM   22  C10 UNL     1     -10.311   9.888  13.781  1.00  0.00     0.001 A 
HETATM   23  C11 UNL     1     -11.102   8.854  13.330  1.00  0.00     0.000 A 
HETATM   24  C12 UNL     1     -12.477   8.929  13.393  1.00  0.00     0.001 A 
HETATM   25  C13 UNL     1     -13.047  10.069  13.922  1.00  0.00     0.012 A 
ENDBRANCH  12  20
BRANCH  13  26
HETATM   26  N7  UNL     1     -11.009  13.753  14.487  1.00  0.00    -0.096 N 
HETATM   27  O2  UNL     1     -10.894  14.433  13.421  1.00  0.00    -0.530 OA
HETATM   28  O3  UNL     1      -9.842  13.350  15.048  1.00  0.00    -0.530 OA
ENDBRANCH  13  26
ENDBRANCH   8  10
ENDBRANCH   2   7
BRANCH   1  29
HETATM   29  N3  UNL     1     -19.015   9.583  15.848  1.00  0.00    -0.253 N 
HETATM   30  C3  UNL     1     -18.487   8.331  16.104  1.00  0.00     0.287 C 
HETATM   31  O1  UNL     1     -17.892   8.002  17.170  1.00  0.00    -0.264 OA
ATOM     32  H3  UNL     1     -19.483   9.652  14.945  1.00  0.00     0.191 HD
BRANCH  30  33
HETATM   33  C2  UNL     1     -18.569   7.224  15.135  1.00  0.00     0.123 A 
HETATM   34  N2  UNL     1     -19.695   6.876  14.523  1.00  0.00    -0.186 N 
HETATM   35  C1  UNL     1     -19.759   5.841  13.620  1.00  0.00     0.679 A 
ATOM     36  H2  UNL     1     -20.546   7.398  14.730  1.00  0.00     0.184 HD
HETATM   37  N1  UNL     1     -20.879   5.546  13.054  1.00  0.00    -0.234 N 
HETATM   38  N12 UNL     1     -18.660   5.136  13.326  1.00  0.00    -0.156 N 
ATOM     39  H12 UNL     1     -21.716   6.083  13.277  1.00  0.00     0.174 HD
ATOM     40  H11 UNL     1     -20.927   4.778  12.384  1.00  0.00     0.174 HD
HETATM   41  C21 UNL     1     -17.491   5.435  13.909  1.00  0.00     0.261 A 
ATOM     42  H12 UNL     1     -18.713   4.369  12.656  1.00  0.00     0.187 HD
HETATM   43  C20 UNL     1     -17.441   6.470  14.807  1.00  0.00     0.110 A 
HETATM   44  O7  UNL     1     -16.442   4.778  13.642  1.00  0.00    -0.268 OA
ENDBRANCH  30  33
ENDBRANCH   1  29
BRANCH   3  45
HETATM   45  O4  UNL     1     -18.096  13.626  18.429  1.00  0.00    -0.344 OA
ATOM     46  H4  UNL     1     -18.046  14.505  18.071  1.00  0.00     0.219 HD
ENDBRANCH   3  45
BRANCH   4  47
HETATM   47  C17 UNL     1     -20.945  12.814  18.939  1.00  0.00     0.235 C 
BRANCH  47  48
HETATM   48  C18 UNL     1     -21.346  14.105  18.367  1.00  0.00     0.249 C 
HETATM   49  N11 UNL     1     -22.327  14.200  17.342  1.00  0.00    -0.061 NA
HETATM   50  O5  UNL     1     -20.801  15.153  18.803  1.00  0.00    -0.275 OA
ENDBRANCH  47  48
ENDBRANCH   4  47
TORSDOF 9
ENDMDL
MODEL 2
REMARK VINA RESULT: -10.914428316      1.253      1.529
REMARK  9 active torsions:
REMARK  status: ('A' for Active; 'I' for Inactive)
REMARK    1  A    between atoms: C2_7  and  C3_8 
REMARK       I    between atoms: C3_8  and  N3_10 
REMARK    2  A    between atoms: N3_10  and  N4_12 
REMARK    3  A    between atoms: C4_13  and  C5_14 
REMARK    4  A    between atoms: N5_15  and  N6_17 
REMARK    5  A    between atoms: C7_19  and  C8_20 
REMARK    6  A    between atoms: C14_26  and  N7_27 
REMARK    7  A    between atoms: C16_36  and  O4_37 
REMARK    8  A    between atoms: N10_39  and  C17_40 
REMARK    9  A    between atoms: C17_40  and  C18_41 
ROOT
HETATM    1  N4  UNL     1     -19.253  10.763  16.683  1.00  0.00    -0.197 N 
HETATM    2  C4  UNL     1     -18.311  11.645  16.983  1.00  0.00     0.129 A 
HETATM    3  C16 UNL     1     -18.901  12.567  17.871  1.00  0.00     0.177 A 
HETATM    4  N10 UNL     1     -20.170  12.247  18.094  1.00  0.00    -0.268 N 
HETATM    5  C19 UNL     1     -20.400  11.149  17.374  1.00  0.00     0.350 A 
HETATM    6  O6  UNL     1     -21.519  10.565  17.347  1.00  0.00    -0.244 OA
ENDROOT
BRANCH   2   7
HETATM    7  C5  UNL     1     -16.948  11.793  16.511  1.00  0.00     0.144 C 
HETATM    8  N5  UNL     1     -16.418  12.969  16.363  1.00  0.00    -0.289 N 
ATOM      9  H5  UNL     1     -16.963  13.804  16.581  1.00  0.00     0.187 HD
BRANCH   8  10
HETATM   10  N6  UNL     1     -15.092  13.095  15.903  1.00  0.00    -0.097 N 
HETATM   11  C6  UNL     1     -14.483  12.031  15.410  1.00  0.00     0.151 A 
HETATM   12  C7  UNL     1     -13.158  12.110  14.937  1.00  0.00     0.043 A 
HETATM   13  C14 UNL     1     -12.472  13.296  14.981  1.00  0.00     0.201 A 
HETATM   14  N8  UNL     1     -13.167  14.363  15.505  1.00  0.00    -0.168 N 
HETATM   15  C15 UNL     1     -14.423  14.252  15.943  1.00  0.00     0.698 A 
ATOM     16  H8  UNL     1     -12.706  15.272  15.561  1.00  0.00     0.186 HD
HETATM   17  N9  UNL     1     -15.028  15.304  16.429  1.00  0.00    -0.233 N 
ATOM     18  H92 UNL     1     -15.988  15.218  16.764  1.00  0.00     0.174 HD
ATOM     19  H91 UNL     1     -14.517  16.187  16.460  1.00  0.00     0.174 HD
BRANCH  12  20
HETATM   20  C8  UNL     1     -12.549  10.918  14.351  1.00  0.00    -0.021 A 
HETATM   21  C9  UNL     1     -11.191  10.786  14.186  1.00  0.00     0.012 A 
HETATM   22  C10 UNL     1     -10.641   9.650  13.628  1.00  0.00     0.001 A 
HETATM   23  C11 UNL     1     -11.478   8.631  13.231  1.00  0.00     0.000 A 
HETATM   24  C12 UNL     1     -12.845   8.730  13.381  1.00  0.00     0.001 A 
HETATM   25  C13 UNL     1     -13.359   9.881  13.942  1.00  0.00     0.012 A 
ENDBRANCH  12  20
BRANCH  13  26
HETATM   26  N7  UNL     1     -11.144  13.479  14.551  1.00  0.00    -0.096 N 
HETATM   27  O2  UNL     1     -10.994  14.157  13.489  1.00  0.00    -0.530 OA
HETATM   28  O3  UNL     1     -10.000  13.028  15.120  1.00  0.00    -0.530 OA
ENDBRANCH  13  26
ENDBRANCH   8  10
ENDBRANCH   2   7
BRANCH   1  29
HETATM   29  N3  UNL     1     -19.256   9.564  16.004  1.00  0.00    -0.253 N 
HETATM   30  C3  UNL     1     -19.180   9.244  14.661  1.00  0.00     0.287 C 
HETATM   31  O1  UNL     1     -19.053  10.084  13.723  1.00  0.00    -0.264 OA
ATOM     32  H3  UNL     1     -19.329   8.750  16.613  1.00  0.00     0.191 HD
BRANCH  30  33
HETATM   33  C2  UNL     1     -19.240   7.855  14.173  1.00  0.00     0.123 A 
HETATM   34  N2  UNL     1     -18.165   7.092  14.019  1.00  0.00    -0.186 N 
HETATM   35  C1  UNL     1     -18.233   5.797  13.563  1.00  0.00     0.679 A 
ATOM     36  H2  UNL     1     -17.252   7.482  14.249  1.00  0.00     0.184 HD
HETATM   37  N1  UNL     1     -17.157   5.099  13.434  1.00  0.00    -0.234 N 
HETATM   38  N12 UNL     1     -19.417   5.255  13.253  1.00  0.00    -0.156 N 
ATOM     39  H12 UNL     1     -16.256   5.512  13.670  1.00  0.00     0.174 HD
ATOM     40  H11 UNL     1     -17.208   4.138  13.095  1.00  0.00     0.174 HD
HETATM   41  C21 UNL     1     -20.543   5.971  13.385  1.00  0.00     0.261 A 
ATOM     42  H12 UNL     1     -19.464   4.294  12.914  1.00  0.00     0.187 HD
HETATM   43  C20 UNL     1     -20.460   7.262  13.840  1.00  0.00     0.110 A 
HETATM   44  O7  UNL     1     -21.671   5.474  13.095  1.00  0.00    -0.268 OA
ENDBRANCH  30  33
ENDBRANCH   1  29
BRANCH   3  45
HETATM   45  O4  UNL     1     -18.261  13.671  18.451  1.00  0.00    -0.344 OA
ATOM     46  H4  UNL     1     -18.684  14.357  18.954  1.00  0.00     0.219 HD
ENDBRANCH   3  45
BRANCH   4  47
HETATM   47  C17 UNL     1     -21.135  12.950  18.957  1.00  0.00     0.235 C 
BRANCH  47  48
HETATM   48  C18 UNL     1     -21.449  14.257  18.367  1.00  0.00     0.249 C 
HETATM   49  N11 UNL     1     -22.388  14.396  17.308  1.00  0.00    -0.061 NA
HETATM   50  O5  UNL     1     -20.865  15.278  18.817  1.00  0.00    -0.275 OA
ENDBRANCH  47  48
ENDBRANCH   4  47
TORSDOF 9
ENDMDL
MODEL 3
REMARK VINA RESULT: -10.876021213      1.001      1.001
REMARK  9 active torsions:
REMARK  status: ('A' for Active; 'I' for Inactive)
REMARK    1  A    between atoms: C2_7  and  C3_8 
REMARK       I    between atoms: C3_8  and  N3_10 
REMARK    2  A    between atoms: N3_10  and  N4_12 
REMARK    3  A    between atoms: C4_13  and  C5_14 
REMARK    4  A    between atoms: N5_15  and  N6_17 
REMARK    5  A    between atoms: C7_19  and  C8_20 
REMARK    6  A    between atoms: C14_26  and  N7_27 
REMARK    7  A    between atoms: C16_36  and  O4_37 
REMARK    8  A    between atoms: N10_39  and  C17_40 
REMARK    9  A    between atoms: C17_40  and  C18_41 
ROOT
HETATM    1  N4  UNL     1     -19.303  10.758  16.675  1.00  0.00    -0.197 N 
HETATM    2  C4  UNL     1     -18.363  11.640  16.979  1.00  0.00     0.129 A 
HETATM    3  C16 UNL     1     -18.960  12.568  17.856  1.00  0.00     0.177 A 
HETATM    4  N10 UNL     1     -20.232  12.250  18.069  1.00  0.00    -0.268 N 
HETATM    5  C19 UNL     1     -20.456  11.149  17.353  1.00  0.00     0.350 A 
HETATM    6  O6  UNL     1     -21.575  10.565  17.319  1.00  0.00    -0.244 OA
ENDROOT
BRANCH   2   7
HETATM    7  C5  UNL     1     -16.996  11.784  16.518  1.00  0.00     0.144 C 
HETATM    8  N5  UNL     1     -16.474  12.960  16.336  1.00  0.00    -0.289 N 
ATOM      9  H5  UNL     1     -17.029  13.797  16.519  1.00  0.00     0.187 HD
BRANCH   8  10
HETATM   10  N6  UNL     1     -15.144  13.081  15.888  1.00  0.00    -0.097 N 
HETATM   11  C6  UNL     1     -14.534  12.017  15.398  1.00  0.00     0.151 A 
HETATM   12  C7  UNL     1     -13.205  12.093  14.937  1.00  0.00     0.043 A 
HETATM   13  C14 UNL     1     -12.514  13.276  14.989  1.00  0.00     0.201 A 
HETATM   14  N8  UNL     1     -13.210  14.344  15.511  1.00  0.00    -0.168 N 
HETATM   15  C15 UNL     1     -14.471  14.236  15.937  1.00  0.00     0.698 A 
ATOM     16  H8  UNL     1     -12.746  15.250  15.573  1.00  0.00     0.186 HD
HETATM   17  N9  UNL     1     -15.076  15.289  16.421  1.00  0.00    -0.233 N 
ATOM     18  H92 UNL     1     -16.039  15.206  16.747  1.00  0.00     0.174 HD
ATOM     19  H91 UNL     1     -14.562  16.170  16.458  1.00  0.00     0.174 HD
BRANCH  12  20
HETATM   20  C8  UNL     1     -12.596  10.899  14.352  1.00  0.00    -0.021 A 
HETATM   21  C9  UNL     1     -11.237  10.768  14.188  1.00  0.00     0.012 A 
HETATM   22  C10 UNL     1     -10.687   9.631  13.633  1.00  0.00     0.001 A 
HETATM   23  C11 UNL     1     -11.523   8.611  13.236  1.00  0.00     0.000 A 
HETATM   24  C12 UNL     1     -12.890   8.710  13.386  1.00  0.00     0.001 A 
HETATM   25  C13 UNL     1     -13.405   9.861  13.945  1.00  0.00     0.012 A 
ENDBRANCH  12  20
BRANCH  13  26
HETATM   26  N7  UNL     1     -11.183  13.455  14.572  1.00  0.00    -0.096 N 
HETATM   27  O2  UNL     1     -11.022  14.109  13.496  1.00  0.00    -0.530 OA
HETATM   28  O3  UNL     1     -10.044  13.021  15.165  1.00  0.00    -0.530 OA
ENDBRANCH  13  26
ENDBRANCH   8  10
ENDBRANCH   2   7
BRANCH   1  29
HETATM   29  N3  UNL     1     -19.301   9.555  16.002  1.00  0.00    -0.253 N 
HETATM   30  C3  UNL     1     -19.110   9.220  14.674  1.00  0.00     0.287 C 
HETATM   31  O1  UNL     1     -18.848  10.045  13.751  1.00  0.00    -0.264 OA
ATOM     32  H3  UNL     1     -19.475   8.751  16.604  1.00  0.00     0.191 HD
BRANCH  30  33
HETATM   33  C2  UNL     1     -19.194   7.833  14.187  1.00  0.00     0.123 A 
HETATM   34  N2  UNL     1     -20.334   7.255  13.829  1.00  0.00    -0.186 N 
HETATM   35  C1  UNL     1     -20.400   5.959  13.375  1.00  0.00     0.679 A 
ATOM     36  H2  UNL     1     -21.197   7.795  13.893  1.00  0.00     0.184 HD
HETATM   37  N1  UNL     1     -21.535   5.448  13.041  1.00  0.00    -0.234 N 
HETATM   38  N12 UNL     1     -19.286   5.223  13.280  1.00  0.00    -0.156 N 
ATOM     39  H12 UNL     1     -22.383   6.008  13.113  1.00  0.00     0.174 HD
ATOM     40  H11 UNL     1     -21.584   4.486  12.704  1.00  0.00     0.174 HD
HETATM   41  C21 UNL     1     -18.101   5.746  13.625  1.00  0.00     0.261 A 
ATOM     42  H12 UNL     1     -19.339   4.262  12.944  1.00  0.00     0.187 HD
HETATM   43  C20 UNL     1     -18.050   7.039  14.076  1.00  0.00     0.110 A 
HETATM   44  O7  UNL     1     -17.037   5.063  13.541  1.00  0.00    -0.268 OA
ENDBRANCH  30  33
ENDBRANCH   1  29
BRANCH   3  45
HETATM   45  O4  UNL     1     -18.324  13.675  18.436  1.00  0.00    -0.344 OA
ATOM     46  H4  UNL     1     -17.644  13.641  19.098  1.00  0.00     0.219 HD
ENDBRANCH   3  45
BRANCH   4  47
HETATM   47  C17 UNL     1     -21.203  12.959  18.919  1.00  0.00     0.235 C 
BRANCH  47  48
HETATM   48  C18 UNL     1     -21.543  14.244  18.297  1.00  0.00     0.249 C 
HETATM   49  N11 UNL     1     -20.961  15.467  18.734  1.00  0.00    -0.061 NA
HETATM   50  O5  UNL     1     -22.375  14.256  17.351  1.00  0.00    -0.275 OA
ENDBRANCH  47  48
ENDBRANCH   4  47
TORSDOF 9
ENDMDL
MODEL 4
REMARK VINA RESULT: -10.869243799      2.783      8.324
REMARK  9 active torsions:
REMARK  status: ('A' for Active; 'I' for Inactive)
REMARK    1  A    between atoms: C2_7  and  C3_8 
REMARK       I    between atoms: C3_8  and  N3_10 
REMARK    2  A    between atoms: N3_10  and  N4_12 
REMARK    3  A    between atoms: C4_13  and  C5_14 
REMARK    4  A    between atoms: N5_15  and  N6_17 
REMARK    5  A    between atoms: C7_19  and  C8_20 
REMARK    6  A    between atoms: C14_26  and  N7_27 
REMARK    7  A    between atoms: C16_36  and  O4_37 
REMARK    8  A    between atoms: N10_39  and  C17_40 
REMARK    9  A    between atoms: C17_40  and  C18_41 
ROOT
HETATM    1  N4  UNL     1     -15.926  11.828  16.811  1.00  0.00    -0.197 N 
HETATM    2  C4  UNL     1     -17.206  11.547  16.615  1.00  0.00     0.129 A 
HETATM    3  C16 UNL     1     -17.935  12.424  17.442  1.00  0.00     0.177 A 
HETATM    4  N10 UNL     1     -17.110  13.210  18.124  1.00  0.00    -0.268 N 
HETATM    5  C19 UNL     1     -15.880  12.857  17.750  1.00  0.00     0.350 A 
HETATM    6  O6  UNL     1     -14.837  13.403  18.207  1.00  0.00    -0.244 OA
ENDROOT
BRANCH   2   7
HETATM    7  C5  UNL     1     -17.853  10.529  15.810  1.00  0.00     0.144 C 
HETATM    8  N5  UNL     1     -17.764   9.273  16.127  1.00  0.00    -0.289 N 
ATOM      9  H5  UNL     1     -17.233   8.992  16.951  1.00  0.00     0.187 HD
BRANCH   8  10
HETATM   10  N6  UNL     1     -18.399   8.297  15.333  1.00  0.00    -0.097 N 
HETATM   11  C6  UNL     1     -19.606   8.546  14.856  1.00  0.00     0.151 A 
HETATM   12  C7  UNL     1     -20.278   7.599  14.058  1.00  0.00     0.043 A 
HETATM   13  C14 UNL     1     -19.692   6.396  13.760  1.00  0.00     0.201 A 
HETATM   14  N8  UNL     1     -18.435   6.204  14.289  1.00  0.00    -0.168 N 
HETATM   15  C15 UNL     1     -17.827   7.124  15.041  1.00  0.00     0.698 A 
ATOM     16  H8  UNL     1     -17.951   5.326  14.099  1.00  0.00     0.186 HD
HETATM   17  N9  UNL     1     -16.633   6.879  15.512  1.00  0.00    -0.233 N 
ATOM     18  H92 UNL     1     -16.168   7.583  16.087  1.00  0.00     0.174 HD
ATOM     19  H91 UNL     1     -16.197   5.984  15.289  1.00  0.00     0.174 HD
BRANCH  12  20
HETATM   20  C8  UNL     1     -21.587   7.948  13.509  1.00  0.00    -0.021 A 
HETATM   21  C9  UNL     1     -21.873   7.860  12.167  1.00  0.00     0.012 A 
HETATM   22  C10 UNL     1     -23.117   8.196  11.674  1.00  0.00     0.001 A 
HETATM   23  C11 UNL     1     -24.087   8.628  12.551  1.00  0.00     0.000 A 
HETATM   24  C12 UNL     1     -23.834   8.728  13.903  1.00  0.00     0.001 A 
HETATM   25  C13 UNL     1     -22.579   8.384  14.360  1.00  0.00     0.012 A 
ENDBRANCH  12  20
BRANCH  13  26
HETATM   26  N7  UNL     1     -20.281   5.379  12.988  1.00  0.00    -0.096 N 
HETATM   27  O2  UNL     1     -19.690   5.094  11.902  1.00  0.00    -0.530 OA
HETATM   28  O3  UNL     1     -21.400   4.659  13.247  1.00  0.00    -0.530 OA
ENDBRANCH  13  26
ENDBRANCH   8  10
ENDBRANCH   2   7
BRANCH   1  29
HETATM   29  N3  UNL     1     -14.758  11.433  16.197  1.00  0.00    -0.253 N 
HETATM   30  C3  UNL     1     -13.897  12.066  15.319  1.00  0.00     0.287 C 
HETATM   31  O1  UNL     1     -14.032  13.253  14.903  1.00  0.00    -0.264 OA
ATOM     32  H3  UNL     1     -14.470  10.486  16.439  1.00  0.00     0.191 HD
BRANCH  30  33
HETATM   33  C2  UNL     1     -12.703  11.403  14.765  1.00  0.00     0.123 A 
HETATM   34  N2  UNL     1     -11.471  11.870  14.929  1.00  0.00    -0.186 N 
HETATM   35  C1  UNL     1     -10.365  11.243  14.407  1.00  0.00     0.679 A 
ATOM     36  H2  UNL     1     -11.341  12.728  15.464  1.00  0.00     0.184 HD
HETATM   37  N1  UNL     1      -9.191  11.739  14.598  1.00  0.00    -0.234 N 
HETATM   38  N12 UNL     1     -10.502  10.115  13.700  1.00  0.00    -0.156 N 
ATOM     39  H12 UNL     1      -9.086  12.598  15.136  1.00  0.00     0.174 HD
ATOM     40  H11 UNL     1      -8.369  11.274  14.210  1.00  0.00     0.174 HD
HETATM   41  C21 UNL     1     -11.718   9.590  13.497  1.00  0.00     0.261 A 
ATOM     42  H12 UNL     1      -9.678   9.653  13.314  1.00  0.00     0.187 HD
HETATM   43  C20 UNL     1     -12.813  10.226  14.022  1.00  0.00     0.110 A 
HETATM   44  O7  UNL     1     -11.866   8.523  12.830  1.00  0.00    -0.268 OA
ENDBRANCH  30  33
ENDBRANCH   1  29
BRANCH   3  45
HETATM   45  O4  UNL     1     -19.332  12.480  17.549  1.00  0.00    -0.344 OA
ATOM     46  H4  UNL     1     -19.892  13.143  17.164  1.00  0.00     0.219 HD
ENDBRANCH   3  45
BRANCH   4  47
HETATM   47  C17 UNL     1     -17.466  14.260  19.094  1.00  0.00     0.235 C 
BRANCH  47  48
HETATM   48  C18 UNL     1     -17.873  15.470  18.370  1.00  0.00     0.249 C 
HETATM   49  N11 UNL     1     -19.226  15.704  17.999  1.00  0.00    -0.061 NA
HETATM   50  O5  UNL     1     -16.992  16.320  18.072  1.00  0.00    -0.275 OA
ENDBRANCH  47  48
ENDBRANCH   4  47
TORSDOF 9
ENDMDL
MODEL 5
REMARK VINA RESULT: -10.651521963      1.403      1.693
REMARK  9 active torsions:
REMARK  status: ('A' for Active; 'I' for Inactive)
REMARK    1  A    between atoms: C2_7  and  C3_8 
REMARK       I    between atoms: C3_8  and  N3_10 
REMARK    2  A    between atoms: N3_10  and  N4_12 
REMARK    3  A    between atoms: C4_13  and  C5_14 
REMARK    4  A    between atoms: N5_15  and  N6_17 
REMARK    5  A    between atoms: C7_19  and  C8_20 
REMARK    6  A    between atoms: C14_26  and  N7_27 
REMARK    7  A    between atoms: C16_36  and  O4_37 
REMARK    8  A    between atoms: N10_39  and  C17_40 
REMARK    9  A    between atoms: C17_40  and  C18_41 
ROOT
HETATM    1  N4  UNL     1     -19.088  11.522  16.704  1.00  0.00    -0.197 N 
HETATM    2  C4  UNL     1     -18.232  12.532  16.742  1.00  0.00     0.129 A 
HETATM    3  C16 UNL     1     -18.849  13.546  17.502  1.00  0.00     0.177 A 
HETATM    4  N10 UNL     1     -20.052  13.154  17.905  1.00  0.00    -0.268 N 
HETATM    5  C19 UNL     1     -20.212  11.922  17.425  1.00  0.00     0.350 A 
HETATM    6  O6  UNL     1     -21.257  11.238  17.618  1.00  0.00    -0.244 OA
ENDROOT
BRANCH   2   7
HETATM    7  C5  UNL     1     -16.937  12.717  16.116  1.00  0.00     0.144 C 
HETATM    8  N5  UNL     1     -15.964  13.292  16.755  1.00  0.00    -0.289 N 
ATOM      9  H5  UNL     1     -16.106  13.621  17.711  1.00  0.00     0.187 HD
BRANCH   8  10
HETATM   10  N6  UNL     1     -14.712  13.463  16.131  1.00  0.00    -0.097 N 
HETATM   11  C6  UNL     1     -14.079  12.401  15.664  1.00  0.00     0.151 A 
HETATM   12  C7  UNL     1     -12.826  12.526  15.032  1.00  0.00     0.043 A 
HETATM   13  C14 UNL     1     -12.235  13.755  14.890  1.00  0.00     0.201 A 
HETATM   14  N8  UNL     1     -12.950  14.817  15.398  1.00  0.00    -0.168 N 
HETATM   15  C15 UNL     1     -14.137  14.662  15.990  1.00  0.00     0.698 A 
ATOM     16  H8  UNL     1     -12.559  15.756  15.319  1.00  0.00     0.186 HD
HETATM   17  N9  UNL     1     -14.764  15.712  16.451  1.00  0.00    -0.233 N 
ATOM     18  H92 UNL     1     -15.671  15.593  16.903  1.00  0.00     0.174 HD
ATOM     19  H91 UNL     1     -14.325  16.626  16.343  1.00  0.00     0.174 HD
BRANCH  12  20
HETATM   20  C8  UNL     1     -12.195  11.327  14.484  1.00  0.00    -0.021 A 
HETATM   21  C9  UNL     1     -10.830  11.176  14.416  1.00  0.00     0.012 A 
HETATM   22  C10 UNL     1     -10.258  10.035  13.893  1.00  0.00     0.001 A 
HETATM   23  C11 UNL     1     -11.079   9.030  13.431  1.00  0.00     0.000 A 
HETATM   24  C12 UNL     1     -12.452   9.149  13.483  1.00  0.00     0.001 A 
HETATM   25  C13 UNL     1     -12.988  10.304  14.013  1.00  0.00     0.012 A 
ENDBRANCH  12  20
BRANCH  13  26
HETATM   26  N7  UNL     1     -10.983  13.987  14.292  1.00  0.00    -0.096 N 
HETATM   27  O2  UNL     1     -11.001  14.644  13.206  1.00  0.00    -0.530 OA
HETATM   28  O3  UNL     1      -9.756  13.601  14.719  1.00  0.00    -0.530 OA
ENDBRANCH  13  26
ENDBRANCH   8  10
ENDBRANCH   2   7
BRANCH   1  29
HETATM   29  N3  UNL     1     -19.010  10.221  16.260  1.00  0.00    -0.253 N 
HETATM   30  C3  UNL     1     -19.552   9.565  15.169  1.00  0.00     0.287 C 
HETATM   31  O1  UNL     1     -20.267  10.111  14.279  1.00  0.00    -0.264 OA
ATOM     32  H3  UNL     1     -18.439   9.620  16.853  1.00  0.00     0.191 HD
BRANCH  30  33
HETATM   33  C2  UNL     1     -19.345   8.127  14.926  1.00  0.00     0.123 A 
HETATM   34  N2  UNL     1     -18.349   7.435  15.466  1.00  0.00    -0.186 N 
HETATM   35  C1  UNL     1     -18.165   6.093  15.232  1.00  0.00     0.679 A 
ATOM     36  H2  UNL     1     -17.694   7.918  16.080  1.00  0.00     0.184 HD
HETATM   37  N1  UNL     1     -17.182   5.469  15.784  1.00  0.00    -0.234 N 
HETATM   38  N12 UNL     1     -19.007   5.429  14.431  1.00  0.00    -0.156 N 
ATOM     39  H12 UNL     1     -16.540   5.974  16.394  1.00  0.00     0.174 HD
ATOM     40  H11 UNL     1     -17.045   4.473  15.610  1.00  0.00     0.174 HD
HETATM   41  C21 UNL     1     -20.034   6.068  13.853  1.00  0.00     0.261 A 
ATOM     42  H12 UNL     1     -18.867   4.433  14.259  1.00  0.00     0.187 HD
HETATM   43  C20 UNL     1     -20.205   7.407  14.095  1.00  0.00     0.110 A 
HETATM   44  O7  UNL     1     -20.840   5.455  13.092  1.00  0.00    -0.268 OA
ENDBRANCH  30  33
ENDBRANCH   1  29
BRANCH   3  45
HETATM   45  O4  UNL     1     -18.294  14.798  17.803  1.00  0.00    -0.344 OA
ATOM     46  H4  UNL     1     -17.851  15.029  18.611  1.00  0.00     0.219 HD
ENDBRANCH   3  45
BRANCH   4  47
HETATM   47  C17 UNL     1     -21.017  13.915  18.718  1.00  0.00     0.235 C 
BRANCH  47  48
HETATM   48  C18 UNL     1     -21.680  14.914  17.873  1.00  0.00     0.249 C 
HETATM   49  N11 UNL     1     -21.199  16.249  17.771  1.00  0.00    -0.061 NA
HETATM   50  O5  UNL     1     -22.703  14.572  17.222  1.00  0.00    -0.275 OA
ENDBRANCH  47  48
ENDBRANCH   4  47
TORSDOF 9
ENDMDL
