MODEL 1
REMARK VINA RESULT: -6.523972274      0.000      0.000
REMARK  6 active torsions:
REMARK  status: ('A' for Active; 'I' for Inactive)
REMARK    1  A    between atoms: C2_2  and  C3_3 
REMARK    2  A    between atoms: C3_3  and  C4_4 
REMARK    3  A    between atoms: C3_3  and  N2_9 
REMARK    4  A    between atoms: C4_4  and  N1_5 
REMARK       I    between atoms: N2_9  and  C5_11 
REMARK       I    between atoms: C5_11  and  N4_21 
REMARK    5  A    between atoms: N3_12  and  C6_14 
REMARK    6  A    between atoms: C6_14  and  C7_15 
ROOT
HETATM    1  N2  UNL     1      35.700  11.820  52.272  1.00  0.00    -0.220 N 
ATOM      2  H2  UNL     1      35.675  12.046  51.278  1.00  0.00     0.178 HD
HETATM    3  C5  UNL     1      36.742  12.301  53.091  1.00  0.00     0.683 C 
HETATM    4  N3  UNL     1      37.935  12.402  52.655  1.00  0.00    -0.222 N 
ATOM      5  H3  UNL     1      38.684  12.751  53.253  1.00  0.00     0.178 HD
HETATM    6  N4  UNL     1      36.470  12.682  54.426  1.00  0.00    -0.126 N 
ATOM      7  H4  UNL     1      36.957  12.194  55.178  1.00  0.00     0.197 HD
HETATM    8  C13 UNL     1      35.566  13.698  54.768  1.00  0.00     0.196 C 
HETATM    9  N5  UNL     1      34.818  14.531  55.066  1.00  0.00    -0.171 NA
ENDROOT
BRANCH   1  10
HETATM   10  C3  UNL     1      34.669  11.000  52.865  1.00  0.00     0.124 C 
BRANCH  10  11
HETATM   11  C2  UNL     1      33.297  11.484  52.452  1.00  0.00     0.023 C 
HETATM   12  C1  UNL     1      32.698  12.217  53.631  1.00  0.00     0.007 C 
ENDBRANCH  10  11
BRANCH  10  13
HETATM   13  C4  UNL     1      34.859   9.544  52.492  1.00  0.00     0.255 C 
BRANCH  13  14
HETATM   14  N1  UNL     1      34.836   9.310  51.083  1.00  0.00    -0.077 N 
ATOM     15  H13 UNL     1      34.315   8.460  50.867  1.00  0.00     0.274 HD
ATOM     16  H12 UNL     1      34.245   9.995  50.613  1.00  0.00     0.274 HD
ATOM     17  H11 UNL     1      35.764   9.282  50.660  1.00  0.00     0.274 HD
ENDBRANCH  13  14
ENDBRANCH  10  13
ENDBRANCH   1  10
BRANCH   4  18
HETATM   18  C6  UNL     1      38.199  12.009  51.288  1.00  0.00     0.176 C 
BRANCH  18  19
HETATM   19  C7  UNL     1      39.430  11.191  51.200  1.00  0.00    -0.040 A 
HETATM   20  C8  UNL     1      39.965  10.660  52.361  1.00  0.00     0.009 A 
HETATM   21  C9  UNL     1      41.110   9.891  52.333  1.00  0.00     0.001 A 
HETATM   22  C10 UNL     1      41.724   9.655  51.117  1.00  0.00     0.000 A 
HETATM   23  C11 UNL     1      41.183  10.188  49.967  1.00  0.00     0.001 A 
HETATM   24  C12 UNL     1      40.051  10.947  49.999  1.00  0.00     0.009 A 
ENDBRANCH  18  19
ENDBRANCH   4  18
TORSDOF 6
ENDMDL
MODEL 2
REMARK VINA RESULT: -6.361570474      4.758      8.088
REMARK  6 active torsions:
REMARK  status: ('A' for Active; 'I' for Inactive)
REMARK    1  A    between atoms: C2_2  and  C3_3 
REMARK    2  A    between atoms: C3_3  and  C4_4 
REMARK    3  A    between atoms: C3_3  and  N2_9 
REMARK    4  A    between atoms: C4_4  and  N1_5 
REMARK       I    between atoms: N2_9  and  C5_11 
REMARK       I    between atoms: C5_11  and  N4_21 
REMARK    5  A    between atoms: N3_12  and  C6_14 
REMARK    6  A    between atoms: C6_14  and  C7_15 
ROOT
HETATM    1  N2  UNL     1      42.277   7.406  50.342  1.00  0.00    -0.220 N 
ATOM      2  H2  UNL     1      41.378   7.490  49.868  1.00  0.00     0.178 HD
HETATM    3  C5  UNL     1      42.588   8.231  51.443  1.00  0.00     0.683 C 
HETATM    4  N3  UNL     1      42.200   9.445  51.492  1.00  0.00    -0.222 N 
ATOM      5  H3  UNL     1      42.429  10.036  52.291  1.00  0.00     0.178 HD
HETATM    6  N4  UNL     1      43.344   7.714  52.521  1.00  0.00    -0.126 N 
ATOM      7  H4  UNL     1      44.235   8.157  52.744  1.00  0.00     0.197 HD
HETATM    8  C13 UNL     1      42.930   6.622  53.298  1.00  0.00     0.196 C 
HETATM    9  N5  UNL     1      42.603   5.719  53.945  1.00  0.00    -0.171 NA
ENDROOT
BRANCH   1  10
HETATM   10  C3  UNL     1      43.255   6.441  49.896  1.00  0.00     0.124 C 
BRANCH  10  11
HETATM   11  C2  UNL     1      42.578   5.179  49.413  1.00  0.00     0.023 C 
HETATM   12  C1  UNL     1      43.293   4.006  50.046  1.00  0.00     0.007 C 
ENDBRANCH  10  11
BRANCH  10  13
HETATM   13  C4  UNL     1      44.135   7.028  48.811  1.00  0.00     0.255 C 
BRANCH  13  14
HETATM   14  N1  UNL     1      43.724   6.670  47.491  1.00  0.00    -0.077 N 
ATOM     15  H13 UNL     1      44.454   6.137  47.019  1.00  0.00     0.274 HD
ATOM     16  H12 UNL     1      42.990   5.963  47.521  1.00  0.00     0.274 HD
ATOM     17  H11 UNL     1      43.435   7.468  46.925  1.00  0.00     0.274 HD
ENDBRANCH  13  14
ENDBRANCH  10  13
ENDBRANCH   1  10
BRANCH   4  18
HETATM   18  C6  UNL     1      41.428   9.962  50.383  1.00  0.00     0.176 C 
BRANCH  18  19
HETATM   19  C7  UNL     1      40.173  10.589  50.859  1.00  0.00    -0.040 A 
HETATM   20  C8  UNL     1      38.963  10.040  50.474  1.00  0.00     0.009 A 
HETATM   21  C9  UNL     1      37.766  10.586  50.890  1.00  0.00     0.001 A 
HETATM   22  C10 UNL     1      37.792  11.702  51.704  1.00  0.00     0.000 A 
HETATM   23  C11 UNL     1      39.002  12.242  52.082  1.00  0.00     0.001 A 
HETATM   24  C12 UNL     1      40.183  11.698  51.668  1.00  0.00     0.009 A 
ENDBRANCH  18  19
ENDBRANCH   4  18
TORSDOF 6
ENDMDL
MODEL 3
REMARK VINA RESULT: -6.349180584      2.982      6.896
REMARK  6 active torsions:
REMARK  status: ('A' for Active; 'I' for Inactive)
REMARK    1  A    between atoms: C2_2  and  C3_3 
REMARK    2  A    between atoms: C3_3  and  C4_4 
REMARK    3  A    between atoms: C3_3  and  N2_9 
REMARK    4  A    between atoms: C4_4  and  N1_5 
REMARK       I    between atoms: N2_9  and  C5_11 
REMARK       I    between atoms: C5_11  and  N4_21 
REMARK    5  A    between atoms: N3_12  and  C6_14 
REMARK    6  A    between atoms: C6_14  and  C7_15 
ROOT
HETATM    1  N2  UNL     1      40.244   9.454  50.641  1.00  0.00    -0.220 N 
ATOM      2  H2  UNL     1      39.546   9.226  49.934  1.00  0.00     0.178 HD
HETATM    3  C5  UNL     1      39.865   9.656  51.985  1.00  0.00     0.683 C 
HETATM    4  N3  UNL     1      38.763  10.223  52.284  1.00  0.00    -0.222 N 
ATOM      5  H3  UNL     1      38.495  10.365  53.258  1.00  0.00     0.178 HD
HETATM    6  N4  UNL     1      40.715   9.224  53.030  1.00  0.00    -0.126 N 
ATOM      7  H4  UNL     1      41.068   9.920  53.686  1.00  0.00     0.197 HD
HETATM    8  C13 UNL     1      41.097   7.886  53.208  1.00  0.00     0.196 C 
HETATM    9  N5  UNL     1      41.424   6.787  53.366  1.00  0.00    -0.171 NA
ENDROOT
BRANCH   1  10
HETATM   10  C3  UNL     1      41.638   9.579  50.284  1.00  0.00     0.124 C 
BRANCH  10  11
HETATM   11  C2  UNL     1      42.344  10.540  51.214  1.00  0.00     0.023 C 
HETATM   12  C1  UNL     1      43.805  10.150  51.249  1.00  0.00     0.007 C 
ENDBRANCH  10  11
BRANCH  10  13
HETATM   13  C4  UNL     1      42.318   8.225  50.294  1.00  0.00     0.255 C 
BRANCH  13  14
HETATM   14  N1  UNL     1      41.425   7.138  50.049  1.00  0.00    -0.077 N 
ATOM     15  H13 UNL     1      41.448   6.471  50.820  1.00  0.00     0.274 HD
ATOM     16  H12 UNL     1      40.455   7.445  50.119  1.00  0.00     0.274 HD
ATOM     17  H11 UNL     1      41.591   6.668  49.158  1.00  0.00     0.274 HD
ENDBRANCH  13  14
ENDBRANCH  10  13
ENDBRANCH   1  10
BRANCH   4  18
HETATM   18  C6  UNL     1      37.903  10.660  51.206  1.00  0.00     0.176 C 
BRANCH  18  19
HETATM   19  C7  UNL     1      36.534  10.937  51.699  1.00  0.00    -0.040 A 
HETATM   20  C8  UNL     1      36.260  12.176  52.251  1.00  0.00     0.009 A 
HETATM   21  C9  UNL     1      35.002  12.484  52.725  1.00  0.00     0.001 A 
HETATM   22  C10 UNL     1      34.007  11.528  52.640  1.00  0.00     0.000 A 
HETATM   23  C11 UNL     1      34.290  10.297  52.090  1.00  0.00     0.001 A 
HETATM   24  C12 UNL     1      35.535   9.997  51.623  1.00  0.00     0.009 A 
ENDBRANCH  18  19
ENDBRANCH   4  18
TORSDOF 6
ENDMDL
MODEL 4
REMARK VINA RESULT: -6.347168162      2.996      6.921
REMARK  6 active torsions:
REMARK  status: ('A' for Active; 'I' for Inactive)
REMARK    1  A    between atoms: C2_2  and  C3_3 
REMARK    2  A    between atoms: C3_3  and  C4_4 
REMARK    3  A    between atoms: C3_3  and  N2_9 
REMARK    4  A    between atoms: C4_4  and  N1_5 
REMARK       I    between atoms: N2_9  and  C5_11 
REMARK       I    between atoms: C5_11  and  N4_21 
REMARK    5  A    between atoms: N3_12  and  C6_14 
REMARK    6  A    between atoms: C6_14  and  C7_15 
ROOT
HETATM    1  N2  UNL     1      40.277   9.446  50.644  1.00  0.00    -0.220 N 
ATOM      2  H2  UNL     1      39.584   9.216  49.931  1.00  0.00     0.178 HD
HETATM    3  C5  UNL     1      39.888   9.640  51.986  1.00  0.00     0.683 C 
HETATM    4  N3  UNL     1      38.782  10.199  52.282  1.00  0.00    -0.222 N 
ATOM      5  H3  UNL     1      38.507  10.336  53.255  1.00  0.00     0.178 HD
HETATM    6  N4  UNL     1      40.735   9.209  53.034  1.00  0.00    -0.126 N 
ATOM      7  H4  UNL     1      41.080   9.905  53.695  1.00  0.00     0.197 HD
HETATM    8  C13 UNL     1      41.124   7.873  53.210  1.00  0.00     0.196 C 
HETATM    9  N5  UNL     1      41.458   6.775  53.365  1.00  0.00    -0.171 NA
ENDROOT
BRANCH   1  10
HETATM   10  C3  UNL     1      41.672   9.581  50.296  1.00  0.00     0.124 C 
BRANCH  10  11
HETATM   11  C2  UNL     1      42.367  10.543  51.233  1.00  0.00     0.023 C 
HETATM   12  C1  UNL     1      43.836  10.185  51.247  1.00  0.00     0.007 C 
ENDBRANCH  10  11
BRANCH  10  13
HETATM   13  C4  UNL     1      42.360   8.231  50.304  1.00  0.00     0.255 C 
BRANCH  13  14
HETATM   14  N1  UNL     1      41.476   7.140  50.043  1.00  0.00    -0.077 N 
ATOM     15  H13 UNL     1      41.869   6.266  50.392  1.00  0.00     0.274 HD
ATOM     16  H12 UNL     1      40.646   7.200  50.632  1.00  0.00     0.274 HD
ATOM     17  H11 UNL     1      41.217   7.053  49.060  1.00  0.00     0.274 HD
ENDBRANCH  13  14
ENDBRANCH  10  13
ENDBRANCH   1  10
BRANCH   4  18
HETATM   18  C6  UNL     1      37.925  10.635  51.200  1.00  0.00     0.176 C 
BRANCH  18  19
HETATM   19  C7  UNL     1      36.569  10.965  51.698  1.00  0.00    -0.040 A 
HETATM   20  C8  UNL     1      35.574  10.007  51.612  1.00  0.00     0.009 A 
HETATM   21  C9  UNL     1      34.295  10.264  52.061  1.00  0.00     0.001 A 
HETATM   22  C10 UNL     1      34.018  11.505  52.604  1.00  0.00     0.000 A 
HETATM   23  C11 UNL     1      35.016  12.451  52.686  1.00  0.00     0.001 A 
HETATM   24  C12 UNL     1      36.279  12.192  52.240  1.00  0.00     0.009 A 
ENDBRANCH  18  19
ENDBRANCH   4  18
TORSDOF 6
ENDMDL
MODEL 5
REMARK VINA RESULT: -6.321578572      5.673      9.318
REMARK  6 active torsions:
REMARK  status: ('A' for Active; 'I' for Inactive)
REMARK    1  A    between atoms: C2_2  and  C3_3 
REMARK    2  A    between atoms: C3_3  and  C4_4 
REMARK    3  A    between atoms: C3_3  and  N2_9 
REMARK    4  A    between atoms: C4_4  and  N1_5 
REMARK       I    between atoms: N2_9  and  C5_11 
REMARK       I    between atoms: C5_11  and  N4_21 
REMARK    5  A    between atoms: N3_12  and  C6_14 
REMARK    6  A    between atoms: C6_14  and  C7_15 
ROOT
HETATM    1  N2  UNL     1      43.942   6.717  50.791  1.00  0.00    -0.220 N 
ATOM      2  H2  UNL     1      44.177   7.360  51.547  1.00  0.00     0.178 HD
HETATM    3  C5  UNL     1      43.150   7.145  49.705  1.00  0.00     0.683 C 
HETATM    4  N3  UNL     1      42.189   7.967  49.870  1.00  0.00    -0.222 N 
ATOM      5  H3  UNL     1      41.620   8.272  49.080  1.00  0.00     0.178 HD
HETATM    6  N4  UNL     1      43.416   6.660  48.404  1.00  0.00    -0.126 N 
ATOM      7  H4  UNL     1      42.681   6.145  47.919  1.00  0.00     0.197 HD
HETATM    8  C13 UNL     1      44.639   6.851  47.746  1.00  0.00     0.196 C 
HETATM    9  N5  UNL     1      45.646   6.997  47.192  1.00  0.00    -0.171 NA
ENDROOT
BRANCH   1  10
HETATM   10  C3  UNL     1      44.415   5.352  50.814  1.00  0.00     0.124 C 
BRANCH  10  11
HETATM   11  C2  UNL     1      45.784   5.271  51.450  1.00  0.00     0.023 C 
HETATM   12  C1  UNL     1      46.627   6.382  50.864  1.00  0.00     0.007 C 
ENDBRANCH  10  11
BRANCH  10  13
HETATM   13  C4  UNL     1      43.432   4.455  51.537  1.00  0.00     0.255 C 
BRANCH  13  14
HETATM   14  N1  UNL     1      42.672   3.621  50.661  1.00  0.00    -0.077 N 
ATOM     15  H13 UNL     1      42.740   2.644  50.944  1.00  0.00     0.274 HD
ATOM     16  H12 UNL     1      41.673   3.769  50.801  1.00  0.00     0.274 HD
ATOM     17  H11 UNL     1      42.920   3.732  49.678  1.00  0.00     0.274 HD
ENDBRANCH  13  14
ENDBRANCH  10  13
ENDBRANCH   1  10
BRANCH   4  18
HETATM   18  C6  UNL     1      41.928   8.455  51.206  1.00  0.00     0.176 C 
BRANCH  18  19
HETATM   19  C7  UNL     1      41.026   9.630  51.174  1.00  0.00    -0.040 A 
HETATM   20  C8  UNL     1      40.500  10.102  52.364  1.00  0.00     0.009 A 
HETATM   21  C9  UNL     1      39.655  11.192  52.388  1.00  0.00     0.001 A 
HETATM   22  C10 UNL     1      39.337  11.814  51.195  1.00  0.00     0.000 A 
HETATM   23  C11 UNL     1      39.866  11.336  50.016  1.00  0.00     0.001 A 
HETATM   24  C12 UNL     1      40.700  10.258  49.997  1.00  0.00     0.009 A 
ENDBRANCH  18  19
ENDBRANCH   4  18
TORSDOF 6
ENDMDL
