MODEL 1
REMARK VINA RESULT: -8.879349331      0.000      0.000
REMARK  7 active torsions:
REMARK  status: ('A' for Active; 'I' for Inactive)
REMARK    1  A    between atoms: N1_2  and  C2_4 
REMARK    2  A    between atoms: C9_12  and  C10_13 
REMARK       I    between atoms: C10_13  and  N2_15 
REMARK    3  A    between atoms: N3_19  and  C14_20 
REMARK    4  A    between atoms: C14_20  and  C15_21 
REMARK       I    between atoms: C15_21  and  N4_23 
REMARK    5  A    between atoms: N4_23  and  C16_25 
REMARK    6  A    between atoms: C16_25  and  C17_26 
REMARK    7  A    between atoms: C17_26  and  C18_27 
ROOT
HETATM    1  C2  UNL     1       5.236  16.661  47.502  1.00  0.00     0.118 A 
HETATM    2  C3  UNL     1       4.202  17.376  46.941  1.00  0.00     0.022 A 
HETATM    3  C4  UNL     1       4.071  17.367  45.575  1.00  0.00     0.016 A 
HETATM    4  C5  UNL     1       3.047  18.076  44.987  1.00  0.00     0.004 A 
HETATM    5  C6  UNL     1       2.156  18.791  45.725  1.00  0.00     0.043 A 
HETATM    6  C7  UNL     1       2.268  18.814  47.084  1.00  0.00     0.128 A 
HETATM    7  F1  UNL     1       1.370  19.541  47.834  1.00  0.00    -0.205 F 
HETATM    8  C8  UNL     1       3.281  18.115  47.713  1.00  0.00     0.034 A 
HETATM    9  C9  UNL     1       3.429  18.114  49.072  1.00  0.00     0.061 A 
HETATM   10  C13 UNL     1       4.484  17.382  49.625  1.00  0.00     0.111 A 
HETATM   11  N3  UNL     1       5.334  16.698  48.879  1.00  0.00    -0.333 N 
ENDROOT
BRANCH  11  12
HETATM   12  C14 UNL     1       6.394  15.972  49.549  1.00  0.00     0.232 C 
BRANCH  12  13
HETATM   13  C15 UNL     1       7.666  16.691  49.570  1.00  0.00     0.235 C 
HETATM   14  O2  UNL     1       8.573  16.329  48.781  1.00  0.00    -0.272 OA
HETATM   15  N4  UNL     1       7.925  17.779  50.438  1.00  0.00    -0.359 N 
ATOM     16  H4  UNL     1       7.177  18.060  51.071  1.00  0.00     0.162 HD
BRANCH  15  17
HETATM   17  C16 UNL     1       9.151  18.518  50.501  1.00  0.00     0.127 C 
BRANCH  17  18
HETATM   18  C17 UNL     1       9.076  19.799  51.279  1.00  0.00     0.058 C 
BRANCH  18  19
HETATM   19  C18 UNL     1       9.284  20.921  50.329  1.00  0.00    -0.054 A 
HETATM   20  C19 UNL     1       8.584  22.090  50.484  1.00  0.00     0.010 A 
HETATM   21  C20 UNL     1       8.834  23.098  49.553  1.00  0.00     0.040 A 
HETATM   22  C21 UNL     1       9.737  22.939  48.526  1.00  0.00     0.105 A 
HETATM   23  C22 UNL     1      10.431  21.768  48.381  1.00  0.00     0.105 A 
HETATM   24  O4  UNL     1      10.139  23.805  47.495  1.00  0.00    -0.323 OA
HETATM   25  C23 UNL     1      10.189  20.750  49.308  1.00  0.00     0.047 A 
HETATM   26  O3  UNL     1      11.248  21.904  47.281  1.00  0.00    -0.323 OA
HETATM   27  C24 UNL     1      11.305  23.270  46.940  1.00  0.00     0.352 C 
ENDBRANCH  18  19
ENDBRANCH  17  18
ENDBRANCH  15  17
ENDBRANCH  12  13
ENDBRANCH  11  12
BRANCH   1  28
HETATM   28  N1  UNL     1       6.060  16.008  46.927  1.00  0.00    -0.361 N 
HETATM   29  C1  UNL     1       6.576  14.857  46.403  1.00  0.00     0.120 C 
ATOM     30  H1  UNL     1       6.778  16.698  46.704  1.00  0.00     0.165 HD
ENDBRANCH   1  28
BRANCH   9  31
HETATM   31  C10 UNL     1       2.522  18.834  49.936  1.00  0.00     0.255 C 
HETATM   32  O1  UNL     1       1.466  18.267  50.312  1.00  0.00    -0.267 OA
HETATM   33  N2  UNL     1       2.753  20.163  50.390  1.00  0.00    -0.357 N 
HETATM   34  C11 UNL     1       1.816  20.844  51.258  1.00  0.00     0.152 C 
HETATM   35  C12 UNL     1       3.940  20.935  50.008  1.00  0.00     0.152 C 
ENDBRANCH   9  31
TORSDOF 7
ENDMDL
MODEL 2
REMARK VINA RESULT: -8.686648640      2.389      3.642
REMARK  7 active torsions:
REMARK  status: ('A' for Active; 'I' for Inactive)
REMARK    1  A    between atoms: N1_2  and  C2_4 
REMARK    2  A    between atoms: C9_12  and  C10_13 
REMARK       I    between atoms: C10_13  and  N2_15 
REMARK    3  A    between atoms: N3_19  and  C14_20 
REMARK    4  A    between atoms: C14_20  and  C15_21 
REMARK       I    between atoms: C15_21  and  N4_23 
REMARK    5  A    between atoms: N4_23  and  C16_25 
REMARK    6  A    between atoms: C16_25  and  C17_26 
REMARK    7  A    between atoms: C17_26  and  C18_27 
ROOT
HETATM    1  C2  UNL     1       4.412  17.997  49.794  1.00  0.00     0.118 A 
HETATM    2  C3  UNL     1       3.607  18.918  50.425  1.00  0.00     0.022 A 
HETATM    3  C4  UNL     1       2.256  18.869  50.191  1.00  0.00     0.016 A 
HETATM    4  C5  UNL     1       1.427  19.779  50.807  1.00  0.00     0.004 A 
HETATM    5  C6  UNL     1       1.910  20.734  51.647  1.00  0.00     0.043 A 
HETATM    6  C7  UNL     1       3.251  20.801  51.893  1.00  0.00     0.128 A 
HETATM    7  F1  UNL     1       3.745  21.770  52.739  1.00  0.00    -0.205 F 
HETATM    8  C8  UNL     1       4.116  19.905  51.295  1.00  0.00     0.034 A 
HETATM    9  C9  UNL     1       5.465  19.940  51.513  1.00  0.00     0.061 A 
HETATM   10  C13 UNL     1       6.268  18.997  50.865  1.00  0.00     0.111 A 
HETATM   11  N3  UNL     1       5.766  18.082  50.054  1.00  0.00    -0.333 N 
ENDROOT
BRANCH  11  12
HETATM   12  C14 UNL     1       6.684  17.151  49.430  1.00  0.00     0.232 C 
BRANCH  12  13
HETATM   13  C15 UNL     1       8.089  17.469  49.675  1.00  0.00     0.235 C 
HETATM   14  O2  UNL     1       8.746  16.729  50.447  1.00  0.00    -0.272 OA
HETATM   15  N4  UNL     1       8.746  18.573  49.082  1.00  0.00    -0.359 N 
ATOM     16  H4  UNL     1       8.198  19.163  48.457  1.00  0.00     0.162 HD
BRANCH  15  17
HETATM   17  C16 UNL     1      10.118  18.931  49.287  1.00  0.00     0.127 C 
BRANCH  17  18
HETATM   18  C17 UNL     1      10.337  20.072  50.238  1.00  0.00     0.058 C 
BRANCH  18  19
HETATM   19  C18 UNL     1      10.047  21.333  49.510  1.00  0.00    -0.054 A 
HETATM   20  C19 UNL     1       9.067  22.179  49.966  1.00  0.00     0.010 A 
HETATM   21  C20 UNL     1       8.853  23.343  49.229  1.00  0.00     0.040 A 
HETATM   22  C21 UNL     1       9.581  23.641  48.099  1.00  0.00     0.105 A 
HETATM   23  C22 UNL     1      10.556  22.789  47.653  1.00  0.00     0.105 A 
HETATM   24  O4  UNL     1       9.535  24.735  47.220  1.00  0.00    -0.323 OA
HETATM   25  C23 UNL     1      10.781  21.619  48.382  1.00  0.00     0.047 A 
HETATM   26  O3  UNL     1      11.105  23.346  46.519  1.00  0.00    -0.323 OA
HETATM   27  C24 UNL     1      10.700  24.693  46.448  1.00  0.00     0.352 C 
ENDBRANCH  18  19
ENDBRANCH  17  18
ENDBRANCH  15  17
ENDBRANCH  12  13
ENDBRANCH  11  12
BRANCH   1  28
HETATM   28  N1  UNL     1       4.068  17.128  49.043  1.00  0.00    -0.361 N 
HETATM   29  C1  UNL     1       3.550  16.639  47.878  1.00  0.00     0.120 C 
ATOM     30  H1  UNL     1       4.281  16.280  49.568  1.00  0.00     0.165 HD
ENDBRANCH   1  28
BRANCH   9  31
HETATM   31  C10 UNL     1       6.067  20.911  52.399  1.00  0.00     0.255 C 
HETATM   32  O1  UNL     1       6.187  22.098  52.005  1.00  0.00    -0.267 OA
HETATM   33  N2  UNL     1       6.540  20.600  53.704  1.00  0.00    -0.357 N 
HETATM   34  C11 UNL     1       7.133  21.607  54.558  1.00  0.00     0.152 C 
HETATM   35  C12 UNL     1       6.470  19.249  54.272  1.00  0.00     0.152 C 
ENDBRANCH   9  31
TORSDOF 7
ENDMDL
MODEL 3
REMARK VINA RESULT: -8.636933290      1.025      1.199
REMARK  7 active torsions:
REMARK  status: ('A' for Active; 'I' for Inactive)
REMARK    1  A    between atoms: N1_2  and  C2_4 
REMARK    2  A    between atoms: C9_12  and  C10_13 
REMARK       I    between atoms: C10_13  and  N2_15 
REMARK    3  A    between atoms: N3_19  and  C14_20 
REMARK    4  A    between atoms: C14_20  and  C15_21 
REMARK       I    between atoms: C15_21  and  N4_23 
REMARK    5  A    between atoms: N4_23  and  C16_25 
REMARK    6  A    between atoms: C16_25  and  C17_26 
REMARK    7  A    between atoms: C17_26  and  C18_27 
ROOT
HETATM    1  C2  UNL     1       5.511  16.558  47.278  1.00  0.00     0.118 A 
HETATM    2  C3  UNL     1       4.544  17.303  46.641  1.00  0.00     0.022 A 
HETATM    3  C4  UNL     1       4.287  17.041  45.319  1.00  0.00     0.016 A 
HETATM    4  C5  UNL     1       3.327  17.772  44.656  1.00  0.00     0.004 A 
HETATM    5  C6  UNL     1       2.620  18.754  45.278  1.00  0.00     0.043 A 
HETATM    6  C7  UNL     1       2.860  19.031  46.592  1.00  0.00     0.128 A 
HETATM    7  F1  UNL     1       2.149  20.028  47.223  1.00  0.00    -0.205 F 
HETATM    8  C8  UNL     1       3.815  18.319  47.293  1.00  0.00     0.034 A 
HETATM    9  C9  UNL     1       4.087  18.567  48.609  1.00  0.00     0.061 A 
HETATM   10  C13 UNL     1       5.071  17.801  49.241  1.00  0.00     0.111 A 
HETATM   11  N3  UNL     1       5.741  16.854  48.607  1.00  0.00    -0.333 N 
ENDROOT
BRANCH  11  12
HETATM   12  C14 UNL     1       6.743  16.118  49.351  1.00  0.00     0.232 C 
BRANCH  12  13
HETATM   13  C15 UNL     1       8.095  16.644  49.181  1.00  0.00     0.235 C 
HETATM   14  O2  UNL     1       8.969  15.901  48.672  1.00  0.00    -0.272 OA
HETATM   15  N4  UNL     1       8.468  17.955  49.564  1.00  0.00    -0.359 N 
ATOM     16  H4  UNL     1       7.745  18.545  49.975  1.00  0.00     0.162 HD
BRANCH  15  17
HETATM   17  C16 UNL     1       9.776  18.522  49.422  1.00  0.00     0.127 C 
BRANCH  17  18
HETATM   18  C17 UNL     1      10.095  19.623  50.391  1.00  0.00     0.058 C 
BRANCH  18  19
HETATM   19  C18 UNL     1       9.939  20.916  49.679  1.00  0.00    -0.054 A 
HETATM   20  C19 UNL     1       9.045  21.850  50.139  1.00  0.00     0.010 A 
HETATM   21  C20 UNL     1       8.956  23.040  49.417  1.00  0.00     0.040 A 
HETATM   22  C21 UNL     1       9.720  23.277  48.297  1.00  0.00     0.105 A 
HETATM   23  C22 UNL     1      10.608  22.337  47.846  1.00  0.00     0.105 A 
HETATM   24  O4  UNL     1       9.791  24.382  47.433  1.00  0.00    -0.323 OA
HETATM   25  C23 UNL     1      10.708  21.141  48.561  1.00  0.00     0.047 A 
HETATM   26  O3  UNL     1      11.220  22.851  46.724  1.00  0.00    -0.323 OA
HETATM   27  C24 UNL     1      10.953  24.233  46.669  1.00  0.00     0.352 C 
ENDBRANCH  18  19
ENDBRANCH  17  18
ENDBRANCH  15  17
ENDBRANCH  12  13
ENDBRANCH  11  12
BRANCH   1  28
HETATM   28  N1  UNL     1       6.177  15.680  46.805  1.00  0.00    -0.361 N 
HETATM   29  C1  UNL     1       6.418  14.399  46.397  1.00  0.00     0.120 C 
ATOM     30  H1  UNL     1       7.052  16.154  46.586  1.00  0.00     0.165 HD
ENDBRANCH   1  28
BRANCH   9  31
HETATM   31  C10 UNL     1       3.376  19.582  49.354  1.00  0.00     0.255 C 
HETATM   32  O1  UNL     1       3.864  20.738  49.417  1.00  0.00    -0.267 OA
HETATM   33  N2  UNL     1       2.147  19.348  50.030  1.00  0.00    -0.357 N 
HETATM   34  C11 UNL     1       1.469  20.398  50.762  1.00  0.00     0.152 C 
HETATM   35  C12 UNL     1       1.487  18.039  50.044  1.00  0.00     0.152 C 
ENDBRANCH   9  31
TORSDOF 7
ENDMDL
MODEL 4
REMARK VINA RESULT: -8.635079629      1.942      3.631
REMARK  7 active torsions:
REMARK  status: ('A' for Active; 'I' for Inactive)
REMARK    1  A    between atoms: N1_2  and  C2_4 
REMARK    2  A    between atoms: C9_12  and  C10_13 
REMARK       I    between atoms: C10_13  and  N2_15 
REMARK    3  A    between atoms: N3_19  and  C14_20 
REMARK    4  A    between atoms: C14_20  and  C15_21 
REMARK       I    between atoms: C15_21  and  N4_23 
REMARK    5  A    between atoms: N4_23  and  C16_25 
REMARK    6  A    between atoms: C16_25  and  C17_26 
REMARK    7  A    between atoms: C17_26  and  C18_27 
ROOT
HETATM    1  C2  UNL     1       4.951  19.181  50.916  1.00  0.00     0.118 A 
HETATM    2  C3  UNL     1       3.655  19.639  50.835  1.00  0.00     0.022 A 
HETATM    3  C4  UNL     1       3.245  20.591  51.734  1.00  0.00     0.016 A 
HETATM    4  C5  UNL     1       1.953  21.064  51.678  1.00  0.00     0.004 A 
HETATM    5  C6  UNL     1       1.065  20.613  50.751  1.00  0.00     0.043 A 
HETATM    6  C7  UNL     1       1.453  19.667  49.848  1.00  0.00     0.128 A 
HETATM    7  F1  UNL     1       0.555  19.204  48.912  1.00  0.00    -0.205 F 
HETATM    8  C8  UNL     1       2.741  19.166  49.871  1.00  0.00     0.034 A 
HETATM    9  C9  UNL     1       3.168  18.217  48.986  1.00  0.00     0.061 A 
HETATM   10  C13 UNL     1       4.487  17.763  49.082  1.00  0.00     0.111 A 
HETATM   11  N3  UNL     1       5.325  18.222  49.996  1.00  0.00    -0.333 N 
ENDROOT
BRANCH  11  12
HETATM   12  C14 UNL     1       6.671  17.687  50.012  1.00  0.00     0.232 C 
BRANCH  12  13
HETATM   13  C15 UNL     1       7.672  18.620  49.499  1.00  0.00     0.235 C 
HETATM   14  O2  UNL     1       7.282  19.698  48.987  1.00  0.00    -0.272 OA
HETATM   15  N4  UNL     1       9.064  18.367  49.552  1.00  0.00    -0.359 N 
ATOM     16  H4  UNL     1       9.362  17.487  49.973  1.00  0.00     0.162 HD
BRANCH  15  17
HETATM   17  C16 UNL     1      10.087  19.243  49.065  1.00  0.00     0.127 C 
BRANCH  17  18
HETATM   18  C17 UNL     1      10.443  20.372  49.988  1.00  0.00     0.058 C 
BRANCH  18  19
HETATM   19  C18 UNL     1      10.070  21.643  49.317  1.00  0.00    -0.054 A 
HETATM   20  C19 UNL     1       9.075  22.429  49.841  1.00  0.00     0.010 A 
HETATM   21  C20 UNL     1       8.782  23.607  49.155  1.00  0.00     0.040 A 
HETATM   22  C21 UNL     1       9.450  23.974  48.008  1.00  0.00     0.105 A 
HETATM   23  C22 UNL     1      10.442  23.181  47.495  1.00  0.00     0.105 A 
HETATM   24  O4  UNL     1       9.322  25.094  47.172  1.00  0.00    -0.323 OA
HETATM   25  C23 UNL     1      10.746  21.998  48.173  1.00  0.00     0.047 A 
HETATM   26  O3  UNL     1      10.920  23.799  46.361  1.00  0.00    -0.323 OA
HETATM   27  C24 UNL     1      10.456  25.130  46.353  1.00  0.00     0.352 C 
ENDBRANCH  18  19
ENDBRANCH  17  18
ENDBRANCH  15  17
ENDBRANCH  12  13
ENDBRANCH  11  12
BRANCH   1  28
HETATM   28  N1  UNL     1       5.793  19.525  51.698  1.00  0.00    -0.361 N 
HETATM   29  C1  UNL     1       6.357  19.623  52.938  1.00  0.00     0.120 C 
ATOM     30  H1  UNL     1       6.460  20.020  51.107  1.00  0.00     0.165 HD
ENDBRANCH   1  28
BRANCH   9  31
HETATM   31  C10 UNL     1       2.299  17.688  47.959  1.00  0.00     0.255 C 
HETATM   32  O1  UNL     1       1.612  16.667  48.214  1.00  0.00    -0.267 OA
HETATM   33  N2  UNL     1       2.174  18.258  46.662  1.00  0.00    -0.357 N 
HETATM   34  C11 UNL     1       1.287  17.695  45.666  1.00  0.00     0.152 C 
HETATM   35  C12 UNL     1       2.933  19.439  46.239  1.00  0.00     0.152 C 
ENDBRANCH   9  31
TORSDOF 7
ENDMDL
MODEL 5
REMARK VINA RESULT: -8.611115060      2.871      7.695
REMARK  7 active torsions:
REMARK  status: ('A' for Active; 'I' for Inactive)
REMARK    1  A    between atoms: N1_2  and  C2_4 
REMARK    2  A    between atoms: C9_12  and  C10_13 
REMARK       I    between atoms: C10_13  and  N2_15 
REMARK    3  A    between atoms: N3_19  and  C14_20 
REMARK    4  A    between atoms: C14_20  and  C15_21 
REMARK       I    between atoms: C15_21  and  N4_23 
REMARK    5  A    between atoms: N4_23  and  C16_25 
REMARK    6  A    between atoms: C16_25  and  C17_26 
REMARK    7  A    between atoms: C17_26  and  C18_27 
ROOT
HETATM    1  C2  UNL     1       3.230  17.649  49.320  1.00  0.00     0.118 A 
HETATM    2  C3  UNL     1       3.088  18.793  50.073  1.00  0.00     0.022 A 
HETATM    3  C4  UNL     1       1.843  19.102  50.560  1.00  0.00     0.016 A 
HETATM    4  C5  UNL     1       1.673  20.241  51.313  1.00  0.00     0.004 A 
HETATM    5  C6  UNL     1       2.709  21.077  51.593  1.00  0.00     0.043 A 
HETATM    6  C7  UNL     1       3.956  20.788  51.119  1.00  0.00     0.128 A 
HETATM    7  F1  UNL     1       5.007  21.635  51.395  1.00  0.00    -0.205 F 
HETATM    8  C8  UNL     1       4.169  19.654  50.359  1.00  0.00     0.034 A 
HETATM    9  C9  UNL     1       5.401  19.331  49.863  1.00  0.00     0.061 A 
HETATM   10  C13 UNL     1       5.527  18.166  49.101  1.00  0.00     0.111 A 
HETATM   11  N3  UNL     1       4.498  17.376  48.847  1.00  0.00    -0.333 N 
ENDROOT
BRANCH  11  12
HETATM   12  C14 UNL     1       4.733  16.192  48.047  1.00  0.00     0.232 C 
BRANCH  12  13
HETATM   13  C15 UNL     1       4.110  16.251  46.726  1.00  0.00     0.235 C 
HETATM   14  O2  UNL     1       3.419  15.275  46.343  1.00  0.00    -0.272 OA
HETATM   15  N4  UNL     1       4.248  17.359  45.856  1.00  0.00    -0.359 N 
ATOM     16  H4  UNL     1       4.811  18.143  46.183  1.00  0.00     0.162 HD
BRANCH  15  17
HETATM   17  C16 UNL     1       3.661  17.471  44.553  1.00  0.00     0.127 C 
BRANCH  17  18
HETATM   18  C17 UNL     1       2.678  18.594  44.399  1.00  0.00     0.058 C 
BRANCH  18  19
HETATM   19  C18 UNL     1       1.519  18.309  45.282  1.00  0.00    -0.054 A 
HETATM   20  C19 UNL     1       1.195  19.179  46.291  1.00  0.00     0.010 A 
HETATM   21  C20 UNL     1       0.093  18.843  47.077  1.00  0.00     0.040 A 
HETATM   22  C21 UNL     1      -0.641  17.698  46.862  1.00  0.00     0.105 A 
HETATM   23  C22 UNL     1      -0.307  16.837  45.850  1.00  0.00     0.105 A 
HETATM   24  O4  UNL     1      -1.766  17.173  47.518  1.00  0.00    -0.323 OA
HETATM   25  C23 UNL     1       0.794  17.162  45.055  1.00  0.00     0.047 A 
HETATM   26  O3  UNL     1      -1.210  15.796  45.879  1.00  0.00    -0.323 OA
HETATM   27  C24 UNL     1      -2.296  16.176  46.693  1.00  0.00     0.352 C 
ENDBRANCH  18  19
ENDBRANCH  17  18
ENDBRANCH  15  17
ENDBRANCH  12  13
ENDBRANCH  11  12
BRANCH   1  28
HETATM   28  N1  UNL     1       2.372  16.863  49.029  1.00  0.00    -0.361 N 
HETATM   29  C1  UNL     1       1.441  15.901  49.295  1.00  0.00     0.120 C 
ATOM     30  H1  UNL     1       2.295  16.978  48.019  1.00  0.00     0.165 HD
ENDBRANCH   1  28
BRANCH   9  31
HETATM   31  C10 UNL     1       6.563  20.152  50.120  1.00  0.00     0.255 C 
HETATM   32  O1  UNL     1       6.875  21.037  49.284  1.00  0.00    -0.267 OA
HETATM   33  N2  UNL     1       7.386  20.016  51.272  1.00  0.00    -0.357 N 
HETATM   34  C11 UNL     1       8.539  20.864  51.488  1.00  0.00     0.152 C 
HETATM   35  C12 UNL     1       7.135  19.011  52.310  1.00  0.00     0.152 C 
ENDBRANCH   9  31
TORSDOF 7
ENDMDL
