MODEL 1
REMARK VINA RESULT: -9.000175273      0.000      0.000
REMARK  9 active torsions:
REMARK  status: ('A' for Active; 'I' for Inactive)
REMARK    1  A    between atoms: C4_4  and  C5_5 
REMARK    2  A    between atoms: C5_5  and  O1_6 
REMARK    3  A    between atoms: C5_5  and  N1_8 
REMARK    4  A    between atoms: N1_8  and  C6_9 
REMARK    5  A    between atoms: N1_8  and  S1_17 
REMARK    6  A    between atoms: C6_9  and  C7_10 
REMARK    7  A    between atoms: S1_17  and  C12_20 
REMARK    8  A    between atoms: C20_29  and  S2_30 
REMARK    9  A    between atoms: S2_30  and  N3_31 
ROOT
HETATM    1  N1  UNL     1       7.306  21.677  52.169  1.00  0.00    -0.246 N 
ENDROOT
BRANCH   1   2
HETATM    2  C5  UNL     1       6.330  21.807  51.208  1.00  0.00     0.162 C 
BRANCH   2   3
HETATM    3  C4  UNL     1       5.300  20.977  50.675  1.00  0.00     0.016 A 
HETATM    4  C3  UNL     1       4.013  21.055  51.211  1.00  0.00     0.024 A 
HETATM    5  C2  UNL     1       2.933  20.316  50.775  1.00  0.00    -0.038 A 
HETATM    6  C1  UNL     1       1.591  20.466  51.411  1.00  0.00     0.050 C 
HETATM    7  C20 UNL     1       3.176  19.450  49.734  1.00  0.00     0.085 A 
HETATM    8  C19 UNL     1       4.406  19.320  49.161  1.00  0.00     0.027 A 
HETATM    9  C18 UNL     1       5.472  20.099  49.646  1.00  0.00     0.017 A 
BRANCH   7  10
HETATM   10  S2  UNL     1       1.849  18.470  49.115  1.00  0.00     0.257 S 
HETATM   11  O4  UNL     1       0.685  19.343  48.778  1.00  0.00    -0.201 OA
HETATM   12  O5  UNL     1       1.393  17.482  50.173  1.00  0.00    -0.201 OA
BRANCH  10  13
HETATM   13  N3  UNL     1       2.363  17.535  47.752  1.00  0.00    -0.324 N 
ATOM     14  H32 UNL     1       2.561  16.534  47.792  1.00  0.00     0.169 HD
ATOM     15  H31 UNL     1       2.437  18.120  46.920  1.00  0.00     0.169 HD
ENDBRANCH  10  13
ENDBRANCH   7  10
ENDBRANCH   2   3
BRANCH   2  16
HETATM   16  O1  UNL     1       6.344  23.002  50.625  1.00  0.00    -0.345 OA
ATOM     17  H1  UNL     1       7.081  23.092  50.033  1.00  0.00     0.219 HD
ENDBRANCH   2  16
ENDBRANCH   1   2
BRANCH   1  18
HETATM   18  C6  UNL     1       8.710  21.560  51.993  1.00  0.00     0.182 C 
BRANCH  18  19
HETATM   19  C7  UNL     1       9.167  20.769  50.852  1.00  0.00    -0.037 A 
HETATM   20  C8  UNL     1       9.711  21.399  49.760  1.00  0.00     0.026 A 
HETATM   21  C9  UNL     1      10.159  20.665  48.660  1.00  0.00     0.088 A 
HETATM   22  N2  UNL     1      10.065  19.321  48.645  1.00  0.00    -0.375 N 
HETATM   23  C10 UNL     1       9.533  18.711  49.714  1.00  0.00     0.088 A 
ATOM     24  H2  UNL     1      10.391  18.782  47.842  1.00  0.00     0.164 HD
HETATM   25  C11 UNL     1       9.074  19.399  50.832  1.00  0.00     0.026 A 
ENDBRANCH  18  19
ENDBRANCH   1  18
BRANCH   1  26
HETATM   26  S1  UNL     1       6.795  21.654  53.857  1.00  0.00     0.267 S 
HETATM   27  O2  UNL     1       7.855  22.382  54.676  1.00  0.00    -0.200 OA
HETATM   28  O3  UNL     1       5.545  22.479  54.040  1.00  0.00    -0.200 OA
BRANCH  26  29
HETATM   29  C12 UNL     1       6.613  20.071  54.503  1.00  0.00     0.080 A 
HETATM   30  C13 UNL     1       6.261  19.860  55.817  1.00  0.00     0.028 A 
HETATM   31  C14 UNL     1       6.164  18.563  56.313  1.00  0.00     0.044 A 
HETATM   32  C15 UNL     1       6.419  17.472  55.504  1.00  0.00     0.116 A 
HETATM   33  F1  UNL     1       6.305  16.246  56.053  1.00  0.00    -0.206 F 
HETATM   34  C16 UNL     1       6.770  17.675  54.191  1.00  0.00     0.044 A 
HETATM   35  C17 UNL     1       6.859  18.969  53.723  1.00  0.00     0.028 A 
ENDBRANCH  26  29
ENDBRANCH   1  26
TORSDOF 9
ENDMDL
MODEL 2
REMARK VINA RESULT: -8.925355861      0.058      1.195
REMARK  9 active torsions:
REMARK  status: ('A' for Active; 'I' for Inactive)
REMARK    1  A    between atoms: C4_4  and  C5_5 
REMARK    2  A    between atoms: C5_5  and  O1_6 
REMARK    3  A    between atoms: C5_5  and  N1_8 
REMARK    4  A    between atoms: N1_8  and  C6_9 
REMARK    5  A    between atoms: N1_8  and  S1_17 
REMARK    6  A    between atoms: C6_9  and  C7_10 
REMARK    7  A    between atoms: S1_17  and  C12_20 
REMARK    8  A    between atoms: C20_29  and  S2_30 
REMARK    9  A    between atoms: S2_30  and  N3_31 
ROOT
HETATM    1  N1  UNL     1       7.311  21.672  52.141  1.00  0.00    -0.246 N 
ENDROOT
BRANCH   1   2
HETATM    2  C5  UNL     1       6.332  21.796  51.181  1.00  0.00     0.162 C 
BRANCH   2   3
HETATM    3  C4  UNL     1       5.301  20.962  50.657  1.00  0.00     0.016 A 
HETATM    4  C3  UNL     1       4.007  21.068  51.174  1.00  0.00     0.024 A 
HETATM    5  C2  UNL     1       2.926  20.328  50.744  1.00  0.00    -0.038 A 
HETATM    6  C1  UNL     1       1.577  20.508  51.358  1.00  0.00     0.050 C 
HETATM    7  C20 UNL     1       3.173  19.431  49.731  1.00  0.00     0.085 A 
HETATM    8  C19 UNL     1       4.409  19.273  49.178  1.00  0.00     0.027 A 
HETATM    9  C18 UNL     1       5.477  20.054  49.655  1.00  0.00     0.017 A 
BRANCH   7  10
HETATM   10  S2  UNL     1       1.845  18.448  49.120  1.00  0.00     0.257 S 
HETATM   11  O4  UNL     1       0.689  19.322  48.756  1.00  0.00    -0.201 OA
HETATM   12  O5  UNL     1       1.373  17.485  50.195  1.00  0.00    -0.201 OA
BRANCH  10  13
HETATM   13  N3  UNL     1       2.363  17.482  47.781  1.00  0.00    -0.324 N 
ATOM     14  H32 UNL     1       2.846  16.588  47.879  1.00  0.00     0.169 HD
ATOM     15  H31 UNL     1       2.119  17.929  46.898  1.00  0.00     0.169 HD
ENDBRANCH  10  13
ENDBRANCH   7  10
ENDBRANCH   2   3
BRANCH   2  16
HETATM   16  O1  UNL     1       6.345  22.986  50.589  1.00  0.00    -0.345 OA
ATOM     17  H1  UNL     1       7.163  23.139  50.132  1.00  0.00     0.219 HD
ENDBRANCH   2  16
ENDBRANCH   1   2
BRANCH   1  18
HETATM   18  C6  UNL     1       8.717  21.591  51.964  1.00  0.00     0.182 C 
BRANCH  18  19
HETATM   19  C7  UNL     1       9.193  20.809  50.824  1.00  0.00    -0.037 A 
HETATM   20  C8  UNL     1       9.081  19.441  50.841  1.00  0.00     0.026 A 
HETATM   21  C9  UNL     1       9.525  18.674  49.763  1.00  0.00     0.088 A 
HETATM   22  N2  UNL     1      10.075  19.259  48.681  1.00  0.00    -0.375 N 
HETATM   23  C10 UNL     1      10.182  20.595  48.670  1.00  0.00     0.088 A 
ATOM     24  H2  UNL     1      10.401  18.700  47.892  1.00  0.00     0.164 HD
HETATM   25  C11 UNL     1       9.755  21.402  49.720  1.00  0.00     0.026 A 
ENDBRANCH  18  19
ENDBRANCH   1  18
BRANCH   1  26
HETATM   26  S1  UNL     1       6.800  21.611  53.828  1.00  0.00     0.267 S 
HETATM   27  O2  UNL     1       7.828  22.373  54.656  1.00  0.00    -0.200 OA
HETATM   28  O3  UNL     1       5.517  22.381  54.018  1.00  0.00    -0.200 OA
BRANCH  26  29
HETATM   29  C12 UNL     1       6.683  20.015  54.457  1.00  0.00     0.080 A 
HETATM   30  C13 UNL     1       6.912  18.908  53.671  1.00  0.00     0.028 A 
HETATM   31  C14 UNL     1       6.766  17.630  54.207  1.00  0.00     0.044 A 
HETATM   32  C15 UNL     1       6.391  17.451  55.524  1.00  0.00     0.116 A 
HETATM   33  F1  UNL     1       6.270  16.186  55.974  1.00  0.00    -0.206 F 
HETATM   34  C16 UNL     1       6.161  18.552  56.315  1.00  0.00     0.044 A 
HETATM   35  C17 UNL     1       6.312  19.806  55.762  1.00  0.00     0.028 A 
ENDBRANCH  26  29
ENDBRANCH   1  26
TORSDOF 9
ENDMDL
MODEL 3
REMARK VINA RESULT: -8.651741174      3.119      5.571
REMARK  9 active torsions:
REMARK  status: ('A' for Active; 'I' for Inactive)
REMARK    1  A    between atoms: C4_4  and  C5_5 
REMARK    2  A    between atoms: C5_5  and  O1_6 
REMARK    3  A    between atoms: C5_5  and  N1_8 
REMARK    4  A    between atoms: N1_8  and  C6_9 
REMARK    5  A    between atoms: N1_8  and  S1_17 
REMARK    6  A    between atoms: C6_9  and  C7_10 
REMARK    7  A    between atoms: S1_17  and  C12_20 
REMARK    8  A    between atoms: C20_29  and  S2_30 
REMARK    9  A    between atoms: S2_30  and  N3_31 
ROOT
HETATM    1  N1  UNL     1       7.728  21.269  51.216  1.00  0.00    -0.246 N 
ENDROOT
BRANCH   1   2
HETATM    2  C5  UNL     1       6.488  21.527  50.678  1.00  0.00     0.162 C 
BRANCH   2   3
HETATM    3  C4  UNL     1       5.389  20.745  50.217  1.00  0.00     0.016 A 
HETATM    4  C3  UNL     1       4.197  20.743  50.947  1.00  0.00     0.024 A 
HETATM    5  C2  UNL     1       3.063  20.039  50.599  1.00  0.00    -0.038 A 
HETATM    6  C1  UNL     1       1.833  20.097  51.442  1.00  0.00     0.050 C 
HETATM    7  C20 UNL     1       3.145  19.297  49.444  1.00  0.00     0.085 A 
HETATM    8  C19 UNL     1       4.274  19.250  48.681  1.00  0.00     0.027 A 
HETATM    9  C18 UNL     1       5.402  19.988  49.083  1.00  0.00     0.017 A 
BRANCH   7  10
HETATM   10  S2  UNL     1       1.739  18.370  48.926  1.00  0.00     0.257 S 
HETATM   11  O4  UNL     1       0.575  19.283  48.718  1.00  0.00    -0.201 OA
HETATM   12  O5  UNL     1       1.352  17.368  49.998  1.00  0.00    -0.201 OA
BRANCH  10  13
HETATM   13  N3  UNL     1       2.098  17.457  47.500  1.00  0.00    -0.324 N 
ATOM     14  H32 UNL     1       3.040  17.167  47.234  1.00  0.00     0.169 HD
ATOM     15  H31 UNL     1       1.246  17.256  46.976  1.00  0.00     0.169 HD
ENDBRANCH  10  13
ENDBRANCH   7  10
ENDBRANCH   2   3
BRANCH   2  16
HETATM   16  O1  UNL     1       6.247  22.829  50.552  1.00  0.00    -0.345 OA
ATOM     17  H1  UNL     1       6.009  23.054  49.661  1.00  0.00     0.219 HD
ENDBRANCH   2  16
ENDBRANCH   1   2
BRANCH   1  18
HETATM   18  C6  UNL     1       8.194  21.534  52.531  1.00  0.00     0.182 C 
BRANCH  18  19
HETATM   19  C7  UNL     1       7.470  20.893  53.628  1.00  0.00    -0.037 A 
HETATM   20  C8  UNL     1       7.057  21.643  54.702  1.00  0.00     0.026 A 
HETATM   21  C9  UNL     1       6.361  21.053  55.759  1.00  0.00     0.088 A 
HETATM   22  N2  UNL     1       6.079  19.736  55.750  1.00  0.00    -0.375 N 
HETATM   23  C10 UNL     1       6.485  19.010  54.698  1.00  0.00     0.088 A 
ATOM     24  H2  UNL     1       5.571  19.303  56.521  1.00  0.00     0.164 HD
HETATM   25  C11 UNL     1       7.181  19.551  53.623  1.00  0.00     0.026 A 
ENDBRANCH  18  19
ENDBRANCH   1  18
BRANCH   1  26
HETATM   26  S1  UNL     1       8.929  20.501  50.177  1.00  0.00     0.267 S 
HETATM   27  O2  UNL     1      10.005  19.898  51.072  1.00  0.00    -0.200 OA
HETATM   28  O3  UNL     1       8.326  19.318  49.462  1.00  0.00    -0.200 OA
BRANCH  26  29
HETATM   29  C12 UNL     1       9.689  21.587  49.081  1.00  0.00     0.080 A 
HETATM   30  C13 UNL     1       9.252  22.883  48.925  1.00  0.00     0.028 A 
HETATM   31  C14 UNL     1       9.869  23.719  47.997  1.00  0.00     0.044 A 
HETATM   32  C15 UNL     1      10.919  23.267  47.221  1.00  0.00     0.116 A 
HETATM   33  F1  UNL     1      11.466  24.133  46.344  1.00  0.00    -0.206 F 
HETATM   34  C16 UNL     1      11.360  21.974  47.372  1.00  0.00     0.044 A 
HETATM   35  C17 UNL     1      10.734  21.166  48.297  1.00  0.00     0.028 A 
ENDBRANCH  26  29
ENDBRANCH   1  26
TORSDOF 9
ENDMDL
MODEL 4
REMARK VINA RESULT: -8.394891726      3.175      5.579
REMARK  9 active torsions:
REMARK  status: ('A' for Active; 'I' for Inactive)
REMARK    1  A    between atoms: C4_4  and  C5_5 
REMARK    2  A    between atoms: C5_5  and  O1_6 
REMARK    3  A    between atoms: C5_5  and  N1_8 
REMARK    4  A    between atoms: N1_8  and  C6_9 
REMARK    5  A    between atoms: N1_8  and  S1_17 
REMARK    6  A    between atoms: C6_9  and  C7_10 
REMARK    7  A    between atoms: S1_17  and  C12_20 
REMARK    8  A    between atoms: C20_29  and  S2_30 
REMARK    9  A    between atoms: S2_30  and  N3_31 
ROOT
HETATM    1  N1  UNL     1       7.058  21.167  50.768  1.00  0.00    -0.246 N 
ENDROOT
BRANCH   1   2
HETATM    2  C5  UNL     1       6.627  20.370  49.732  1.00  0.00     0.162 C 
BRANCH   2   3
HETATM    3  C4  UNL     1       5.381  19.817  49.314  1.00  0.00     0.016 A 
HETATM    4  C3  UNL     1       4.280  19.890  50.170  1.00  0.00     0.024 A 
HETATM    5  C2  UNL     1       3.023  19.405  49.877  1.00  0.00    -0.038 A 
HETATM    6  C1  UNL     1       1.903  19.527  50.857  1.00  0.00     0.050 C 
HETATM    7  C20 UNL     1       2.877  18.812  48.644  1.00  0.00     0.085 A 
HETATM    8  C19 UNL     1       3.907  18.705  47.757  1.00  0.00     0.027 A 
HETATM    9  C18 UNL     1       5.168  19.218  48.109  1.00  0.00     0.017 A 
BRANCH   7  10
HETATM   10  S2  UNL     1       1.302  18.168  48.189  1.00  0.00     0.257 S 
HETATM   11  O4  UNL     1       0.257  19.227  48.331  1.00  0.00    -0.201 OA
HETATM   12  O5  UNL     1       0.923  17.021  49.109  1.00  0.00    -0.201 OA
BRANCH  10  13
HETATM   13  N3  UNL     1       1.344  17.523  46.584  1.00  0.00    -0.324 N 
ATOM     14  H32 UNL     1       1.448  16.530  46.373  1.00  0.00     0.169 HD
ATOM     15  H31 UNL     1       1.252  18.268  45.893  1.00  0.00     0.169 HD
ENDBRANCH  10  13
ENDBRANCH   7  10
ENDBRANCH   2   3
BRANCH   2  16
HETATM   16  O1  UNL     1       7.614  20.025  48.910  1.00  0.00    -0.345 OA
ATOM     17  H1  UNL     1       7.375  20.163  48.001  1.00  0.00     0.219 HD
ENDBRANCH   2  16
ENDBRANCH   1   2
BRANCH   1  18
HETATM   18  C6  UNL     1       6.284  21.802  51.775  1.00  0.00     0.182 C 
BRANCH  18  19
HETATM   19  C7  UNL     1       6.204  21.125  53.069  1.00  0.00    -0.037 A 
HETATM   20  C8  UNL     1       5.706  21.796  54.158  1.00  0.00     0.026 A 
HETATM   21  C9  UNL     1       5.616  21.170  55.403  1.00  0.00     0.088 A 
HETATM   22  N2  UNL     1       6.018  19.894  55.564  1.00  0.00    -0.375 N 
HETATM   23  C10 UNL     1       6.503  19.245  54.496  1.00  0.00     0.088 A 
ATOM     24  H2  UNL     1       5.954  19.435  56.472  1.00  0.00     0.164 HD
HETATM   25  C11 UNL     1       6.613  19.825  53.237  1.00  0.00     0.026 A 
ENDBRANCH  18  19
ENDBRANCH   1  18
BRANCH   1  26
HETATM   26  S1  UNL     1       8.791  21.461  50.910  1.00  0.00     0.267 S 
HETATM   27  O2  UNL     1       9.019  22.321  52.147  1.00  0.00    -0.200 OA
HETATM   28  O3  UNL     1       9.521  20.174  51.205  1.00  0.00    -0.200 OA
BRANCH  26  29
HETATM   29  C12 UNL     1       9.466  22.279  49.557  1.00  0.00     0.080 A 
HETATM   30  C13 UNL     1       8.960  23.478  49.108  1.00  0.00     0.028 A 
HETATM   31  C14 UNL     1       9.508  24.089  47.983  1.00  0.00     0.044 A 
HETATM   32  C15 UNL     1      10.560  23.508  47.300  1.00  0.00     0.116 A 
HETATM   33  F1  UNL     1      11.039  24.157  46.220  1.00  0.00    -0.206 F 
HETATM   34  C16 UNL     1      11.070  22.311  47.743  1.00  0.00     0.044 A 
HETATM   35  C17 UNL     1      10.511  21.726  48.860  1.00  0.00     0.028 A 
ENDBRANCH  26  29
ENDBRANCH   1  26
TORSDOF 9
ENDMDL
MODEL 5
REMARK VINA RESULT: -8.306954891      3.842      7.156
REMARK  9 active torsions:
REMARK  status: ('A' for Active; 'I' for Inactive)
REMARK    1  A    between atoms: C4_4  and  C5_5 
REMARK    2  A    between atoms: C5_5  and  O1_6 
REMARK    3  A    between atoms: C5_5  and  N1_8 
REMARK    4  A    between atoms: N1_8  and  C6_9 
REMARK    5  A    between atoms: N1_8  and  S1_17 
REMARK    6  A    between atoms: C6_9  and  C7_10 
REMARK    7  A    between atoms: S1_17  and  C12_20 
REMARK    8  A    between atoms: C20_29  and  S2_30 
REMARK    9  A    between atoms: S2_30  and  N3_31 
ROOT
HETATM    1  N1  UNL     1       7.766  18.974  50.534  1.00  0.00    -0.246 N 
ENDROOT
BRANCH   1   2
HETATM    2  C5  UNL     1       7.580  18.690  51.869  1.00  0.00     0.162 C 
BRANCH   2   3
HETATM    3  C4  UNL     1       7.185  19.422  53.026  1.00  0.00     0.016 A 
HETATM    4  C3  UNL     1       6.831  18.729  54.186  1.00  0.00     0.024 A 
HETATM    5  C2  UNL     1       6.444  19.323  55.369  1.00  0.00    -0.038 A 
HETATM    6  C1  UNL     1       6.083  18.499  56.561  1.00  0.00     0.050 C 
HETATM    7  C20 UNL     1       6.416  20.698  55.374  1.00  0.00     0.085 A 
HETATM    8  C19 UNL     1       6.748  21.441  54.280  1.00  0.00     0.027 A 
HETATM    9  C18 UNL     1       7.135  20.783  53.099  1.00  0.00     0.017 A 
BRANCH   7  10
HETATM   10  S2  UNL     1       5.936  21.536  56.847  1.00  0.00     0.257 S 
HETATM   11  O4  UNL     1       5.003  20.679  57.640  1.00  0.00    -0.201 OA
HETATM   12  O5  UNL     1       5.201  22.818  56.501  1.00  0.00    -0.201 OA
BRANCH  10  13
HETATM   13  N3  UNL     1       7.325  21.994  57.772  1.00  0.00    -0.324 N 
ATOM     14  H32 UNL     1       7.909  21.332  58.285  1.00  0.00     0.169 HD
ATOM     15  H31 UNL     1       7.470  23.002  57.730  1.00  0.00     0.169 HD
ENDBRANCH  10  13
ENDBRANCH   7  10
ENDBRANCH   2   3
BRANCH   2  16
HETATM   16  O1  UNL     1       7.831  17.417  52.159  1.00  0.00    -0.345 OA
ATOM     17  H1  UNL     1       7.029  16.920  52.270  1.00  0.00     0.219 HD
ENDBRANCH   2  16
ENDBRANCH   1   2
BRANCH   1  18
HETATM   18  C6  UNL     1       6.786  19.119  49.517  1.00  0.00     0.182 C 
BRANCH  18  19
HETATM   19  C7  UNL     1       5.522  19.745  49.904  1.00  0.00    -0.037 A 
HETATM   20  C8  UNL     1       4.435  18.960  50.197  1.00  0.00     0.026 A 
HETATM   21  C9  UNL     1       3.220  19.535  50.573  1.00  0.00     0.088 A 
HETATM   22  N2  UNL     1       3.086  20.873  50.655  1.00  0.00    -0.375 N 
HETATM   23  C10 UNL     1       4.152  21.634  50.367  1.00  0.00     0.088 A 
ATOM     24  H2  UNL     1       2.198  21.295  50.928  1.00  0.00     0.164 HD
HETATM   25  C11 UNL     1       5.382  21.108  49.989  1.00  0.00     0.026 A 
ENDBRANCH  18  19
ENDBRANCH   1  18
BRANCH   1  26
HETATM   26  S1  UNL     1       9.421  19.203  49.969  1.00  0.00     0.267 S 
HETATM   27  O2  UNL     1      10.351  19.025  51.162  1.00  0.00    -0.200 OA
HETATM   28  O3  UNL     1       9.810  18.097  49.019  1.00  0.00    -0.200 OA
BRANCH  26  29
HETATM   29  C12 UNL     1       9.710  20.756  49.290  1.00  0.00     0.080 A 
HETATM   30  C13 UNL     1       8.942  21.848  49.626  1.00  0.00     0.028 A 
HETATM   31  C14 UNL     1       9.182  23.081  49.024  1.00  0.00     0.044 A 
HETATM   32  C15 UNL     1      10.184  23.229  48.084  1.00  0.00     0.116 A 
HETATM   33  F1  UNL     1      10.358  24.452  47.543  1.00  0.00    -0.206 F 
HETATM   34  C16 UNL     1      10.955  22.143  47.744  1.00  0.00     0.044 A 
HETATM   35  C17 UNL     1      10.698  20.933  48.355  1.00  0.00     0.028 A 
ENDBRANCH  26  29
ENDBRANCH   1  26
TORSDOF 9
ENDMDL
