MODEL 1
REMARK VINA RESULT: -8.503344349      0.000      0.000
REMARK  7 active torsions:
REMARK  status: ('A' for Active; 'I' for Inactive)
REMARK    1  A    between atoms: C2_2  and  O1_3 
REMARK    2  A    between atoms: O1_3  and  C3_4 
REMARK    3  A    between atoms: C6_7  and  C7_8 
REMARK    4  A    between atoms: C7_8  and  C8_9 
REMARK    5  A    between atoms: C16_22  and  C17_23 
REMARK    6  A    between atoms: C18_27  and  O4_28 
REMARK    7  A    between atoms: O4_28  and  C19_29 
ROOT
HETATM    1  C8  UNL     1       6.799  19.985  50.912  1.00  0.00     0.105 A 
HETATM    2  N1  UNL     1       6.919  18.813  50.245  1.00  0.00    -0.316 N 
ATOM      3  H1  UNL     1       7.855  18.462  50.043  1.00  0.00     0.169 HD
HETATM    4  C9  UNL     1       5.862  18.092  49.835  1.00  0.00     0.290 A 
HETATM    5  O2  UNL     1       5.973  17.005  49.215  1.00  0.00    -0.264 OA
HETATM    6  C10 UNL     1       4.564  18.555  50.102  1.00  0.00     0.181 A 
HETATM    7  N2  UNL     1       4.451  19.728  50.771  1.00  0.00    -0.262 N 
HETATM    8  C11 UNL     1       5.522  20.427  51.169  1.00  0.00     0.280 A 
HETATM    9  O3  UNL     1       5.366  21.530  51.797  1.00  0.00    -0.265 OA
HETATM   10  C12 UNL     1       3.119  20.218  51.070  1.00  0.00     0.024 A 
HETATM   11  C13 UNL     1       2.279  20.886  51.767  1.00  0.00     0.000 A 
HETATM   12  C14 UNL     1       1.158  20.498  50.904  1.00  0.00     0.042 A 
HETATM   13  C15 UNL     1       2.108  19.817  50.043  1.00  0.00     0.063 A 
HETATM   14  C16 UNL     1       2.145  18.299  49.965  1.00  0.00     0.103 C 
HETATM   15  N3  UNL     1       3.537  17.890  49.729  1.00  0.00    -0.365 N 
ATOM     16  H3  UNL     1       3.694  17.013  49.233  1.00  0.00     0.161 HD
ENDROOT
BRANCH   1  17
HETATM   17  C7  UNL     1       7.834  20.687  51.311  1.00  0.00     0.049 C 
BRANCH  17  18
HETATM   18  C6  UNL     1       8.688  21.404  50.369  1.00  0.00    -0.000 A 
HETATM   19  C5  UNL     1       8.397  22.672  49.944  1.00  0.00     0.017 A 
HETATM   20  C4  UNL     1       9.232  23.340  49.039  1.00  0.00     0.038 A 
HETATM   21  C3  UNL     1      10.374  22.773  48.531  1.00  0.00     0.071 A 
HETATM   22  C21 UNL     1      10.661  21.472  48.973  1.00  0.00     0.074 A 
HETATM   23  C18 UNL     1       9.849  20.811  49.861  1.00  0.00     0.081 A 
BRANCH  21  24
HETATM   24  O1  UNL     1      11.225  23.393  47.637  1.00  0.00    -0.351 OA
BRANCH  24  25
HETATM   25  C2  UNL     1      10.829  23.849  46.373  1.00  0.00     0.171 C 
HETATM   26  C1  UNL     1      10.483  25.298  46.294  1.00  0.00     0.034 C 
ENDBRANCH  24  25
ENDBRANCH  21  24
BRANCH  23  27
HETATM   27  O4  UNL     1      10.115  19.546  50.299  1.00  0.00    -0.351 OA
BRANCH  27  28
HETATM   28  C19 UNL     1      10.153  18.393  49.522  1.00  0.00     0.171 C 
HETATM   29  C20 UNL     1      10.190  17.103  50.278  1.00  0.00     0.034 C 
ENDBRANCH  27  28
ENDBRANCH  23  27
ENDBRANCH  17  18
ENDBRANCH   1  17
BRANCH  14  30
HETATM   30  C17 UNL     1       1.326  17.781  48.828  1.00  0.00     0.111 C 
HETATM   31 BR1  UNL     1       1.413  18.900  47.270  1.00  0.00    -0.094 Br
ENDBRANCH  14  30
TORSDOF 7
ENDMDL
MODEL 2
REMARK VINA RESULT: -8.244114089      2.954      7.775
REMARK  7 active torsions:
REMARK  status: ('A' for Active; 'I' for Inactive)
REMARK    1  A    between atoms: C2_2  and  O1_3 
REMARK    2  A    between atoms: O1_3  and  C3_4 
REMARK    3  A    between atoms: C6_7  and  C7_8 
REMARK    4  A    between atoms: C7_8  and  C8_9 
REMARK    5  A    between atoms: C16_22  and  C17_23 
REMARK    6  A    between atoms: C18_27  and  O4_28 
REMARK    7  A    between atoms: O4_28  and  C19_29 
ROOT
HETATM    1  C8  UNL     1       5.138  19.052  50.278  1.00  0.00     0.105 A 
HETATM    2  N1  UNL     1       4.856  20.215  50.913  1.00  0.00    -0.316 N 
ATOM      3  H1  UNL     1       3.902  20.373  51.237  1.00  0.00     0.169 HD
HETATM    4  C9  UNL     1       5.774  21.169  51.135  1.00  0.00     0.290 A 
HETATM    5  O2  UNL     1       5.514  22.248  51.723  1.00  0.00    -0.264 OA
HETATM    6  C10 UNL     1       7.094  20.974  50.698  1.00  0.00     0.181 A 
HETATM    7  N2  UNL     1       7.370  19.808  50.064  1.00  0.00    -0.262 N 
HETATM    8  C11 UNL     1       6.435  18.872  49.856  1.00  0.00     0.280 A 
HETATM    9  O3  UNL     1       6.741  17.788  49.252  1.00  0.00    -0.265 OA
HETATM   10  C12 UNL     1       8.730  19.579  49.617  1.00  0.00     0.024 A 
HETATM   11  C13 UNL     1       9.719  18.826  49.309  1.00  0.00     0.000 A 
HETATM   12  C14 UNL     1      10.579  19.974  49.002  1.00  0.00     0.042 A 
HETATM   13  C15 UNL     1       9.442  20.842  49.249  1.00  0.00     0.063 A 
HETATM   14  C16 UNL     1       9.396  21.740  50.475  1.00  0.00     0.103 C 
HETATM   15  N3  UNL     1       7.994  21.862  50.898  1.00  0.00    -0.365 N 
ATOM     16  H3  UNL     1       7.718  22.714  51.385  1.00  0.00     0.161 HD
ENDROOT
BRANCH   1  17
HETATM   17  C7  UNL     1       4.238  18.122  50.063  1.00  0.00     0.049 C 
BRANCH  17  18
HETATM   18  C6  UNL     1       3.253  18.234  48.990  1.00  0.00    -0.000 A 
HETATM   19  C5  UNL     1       3.516  17.811  47.716  1.00  0.00     0.017 A 
HETATM   20  C4  UNL     1       2.555  17.930  46.704  1.00  0.00     0.038 A 
HETATM   21  C3  UNL     1       1.312  18.469  46.923  1.00  0.00     0.071 A 
HETATM   22  C21 UNL     1       1.056  18.901  48.235  1.00  0.00     0.074 A 
HETATM   23  C18 UNL     1       1.991  18.787  49.233  1.00  0.00     0.081 A 
BRANCH  21  24
HETATM   24  O1  UNL     1       0.336  18.607  45.956  1.00  0.00    -0.351 OA
BRANCH  24  25
HETATM   25  C2  UNL     1       0.609  18.756  44.590  1.00  0.00     0.171 C 
HETATM   26  C1  UNL     1       1.403  19.965  44.223  1.00  0.00     0.034 C 
ENDBRANCH  24  25
ENDBRANCH  21  24
BRANCH  23  27
HETATM   27  O4  UNL     1       1.756  19.202  50.512  1.00  0.00    -0.351 OA
BRANCH  27  28
HETATM   28  C19 UNL     1       1.405  20.487  50.912  1.00  0.00     0.171 C 
HETATM   29  C20 UNL     1       1.667  20.813  52.348  1.00  0.00     0.034 C 
ENDBRANCH  27  28
ENDBRANCH  23  27
ENDBRANCH  17  18
ENDBRANCH   1  17
BRANCH  14  30
HETATM   30  C17 UNL     1       9.895  23.117  50.175  1.00  0.00     0.111 C 
HETATM   31 BR1  UNL     1       9.948  23.501  48.294  1.00  0.00    -0.094 Br
ENDBRANCH  14  30
TORSDOF 7
ENDMDL
MODEL 3
REMARK VINA RESULT: -7.844751037      1.748      2.258
REMARK  7 active torsions:
REMARK  status: ('A' for Active; 'I' for Inactive)
REMARK    1  A    between atoms: C2_2  and  O1_3 
REMARK    2  A    between atoms: O1_3  and  C3_4 
REMARK    3  A    between atoms: C6_7  and  C7_8 
REMARK    4  A    between atoms: C7_8  and  C8_9 
REMARK    5  A    between atoms: C16_22  and  C17_23 
REMARK    6  A    between atoms: C18_27  and  O4_28 
REMARK    7  A    between atoms: O4_28  and  C19_29 
ROOT
HETATM    1  C8  UNL     1       6.075  18.316  49.545  1.00  0.00     0.105 A 
HETATM    2  N1  UNL     1       6.367  17.360  48.632  1.00  0.00    -0.316 N 
ATOM      3  H1  UNL     1       7.325  17.016  48.576  1.00  0.00     0.169 HD
HETATM    4  C9  UNL     1       5.452  16.844  47.795  1.00  0.00     0.290 A 
HETATM    5  O2  UNL     1       5.721  15.957  46.947  1.00  0.00    -0.264 OA
HETATM    6  C10 UNL     1       4.126  17.301  47.853  1.00  0.00     0.181 A 
HETATM    7  N2  UNL     1       3.841  18.257  48.770  1.00  0.00    -0.262 N 
HETATM    8  C11 UNL     1       4.773  18.755  49.593  1.00  0.00     0.280 A 
HETATM    9  O3  UNL     1       4.457  19.658  50.442  1.00  0.00    -0.265 OA
HETATM   10  C12 UNL     1       2.474  18.734  48.857  1.00  0.00     0.024 A 
HETATM   11  C13 UNL     1       1.481  19.244  49.484  1.00  0.00     0.000 A 
HETATM   12  C14 UNL     1       0.617  19.173  48.301  1.00  0.00     0.042 A 
HETATM   13  C15 UNL     1       1.757  18.687  47.545  1.00  0.00     0.063 A 
HETATM   14  C16 UNL     1       1.821  17.246  47.065  1.00  0.00     0.103 C 
HETATM   15  N3  UNL     1       3.229  16.826  47.073  1.00  0.00    -0.365 N 
ATOM     16  H3  UNL     1       3.512  16.105  46.410  1.00  0.00     0.161 HD
ENDROOT
BRANCH   1  17
HETATM   17  C7  UNL     1       6.972  18.818  50.361  1.00  0.00     0.049 C 
BRANCH  17  18
HETATM   18  C6  UNL     1       7.966  19.790  49.912  1.00  0.00    -0.000 A 
HETATM   19  C5  UNL     1       7.740  21.138  49.965  1.00  0.00     0.017 A 
HETATM   20  C4  UNL     1       8.708  22.051  49.528  1.00  0.00     0.038 A 
HETATM   21  C3  UNL     1       9.924  21.655  49.026  1.00  0.00     0.071 A 
HETATM   22  C21 UNL     1      10.143  20.269  48.976  1.00  0.00     0.074 A 
HETATM   23  C18 UNL     1       9.200  19.369  49.403  1.00  0.00     0.081 A 
BRANCH  21  24
HETATM   24  O1  UNL     1      10.906  22.518  48.583  1.00  0.00    -0.351 OA
BRANCH  24  25
HETATM   25  C2  UNL     1      11.122  22.826  47.233  1.00  0.00     0.171 C 
HETATM   26  C1  UNL     1      10.558  24.129  46.775  1.00  0.00     0.034 C 
ENDBRANCH  24  25
ENDBRANCH  21  24
BRANCH  23  27
HETATM   27  O4  UNL     1       9.399  18.019  49.360  1.00  0.00    -0.351 OA
BRANCH  27  28
HETATM   28  C19 UNL     1      10.347  17.300  50.080  1.00  0.00     0.171 C 
HETATM   29  C20 UNL     1      10.361  17.543  51.556  1.00  0.00     0.034 C 
ENDBRANCH  27  28
ENDBRANCH  23  27
ENDBRANCH  17  18
ENDBRANCH   1  17
BRANCH  14  30
HETATM   30  C17 UNL     1       1.318  17.103  45.665  1.00  0.00     0.111 C 
HETATM   31 BR1  UNL     1       1.625  18.668  44.596  1.00  0.00    -0.094 Br
ENDBRANCH  14  30
TORSDOF 7
ENDMDL
MODEL 4
REMARK VINA RESULT: -7.707460490      1.960      2.888
REMARK  7 active torsions:
REMARK  status: ('A' for Active; 'I' for Inactive)
REMARK    1  A    between atoms: C2_2  and  O1_3 
REMARK    2  A    between atoms: O1_3  and  C3_4 
REMARK    3  A    between atoms: C6_7  and  C7_8 
REMARK    4  A    between atoms: C7_8  and  C8_9 
REMARK    5  A    between atoms: C16_22  and  C17_23 
REMARK    6  A    between atoms: C18_27  and  O4_28 
REMARK    7  A    between atoms: O4_28  and  C19_29 
ROOT
HETATM    1  C8  UNL     1       7.633  20.747  51.586  1.00  0.00     0.105 A 
HETATM    2  N1  UNL     1       7.215  21.395  52.698  1.00  0.00    -0.316 N 
ATOM      3  H1  UNL     1       7.917  21.743  53.352  1.00  0.00     0.169 HD
HETATM    4  C9  UNL     1       5.919  21.602  52.982  1.00  0.00     0.290 A 
HETATM    5  O2  UNL     1       5.530  22.202  54.015  1.00  0.00    -0.264 OA
HETATM    6  C10 UNL     1       4.934  21.132  52.098  1.00  0.00     0.181 A 
HETATM    7  N2  UNL     1       5.359  20.485  50.986  1.00  0.00    -0.262 N 
HETATM    8  C11 UNL     1       6.659  20.293  50.727  1.00  0.00     0.280 A 
HETATM    9  O3  UNL     1       7.013  19.676  49.665  1.00  0.00    -0.265 OA
HETATM   10  C12 UNL     1       4.360  20.005  50.052  1.00  0.00     0.024 A 
HETATM   11  C13 UNL     1       3.957  19.668  48.884  1.00  0.00     0.000 A 
HETATM   12  C14 UNL     1       2.611  19.348  49.370  1.00  0.00     0.042 A 
HETATM   13  C15 UNL     1       3.074  19.628  50.717  1.00  0.00     0.063 A 
HETATM   14  C16 UNL     1       2.596  20.860  51.469  1.00  0.00     0.103 C 
HETATM   15  N3  UNL     1       3.690  21.317  52.337  1.00  0.00    -0.365 N 
ATOM     16  H3  UNL     1       3.441  21.816  53.191  1.00  0.00     0.161 HD
ENDROOT
BRANCH   1  17
HETATM   17  C7  UNL     1       8.901  20.548  51.312  1.00  0.00     0.049 C 
BRANCH  17  18
HETATM   18  C6  UNL     1       9.578  21.260  50.231  1.00  0.00    -0.000 A 
HETATM   19  C5  UNL     1       9.414  22.604  50.033  1.00  0.00     0.017 A 
HETATM   20  C4  UNL     1      10.074  23.265  48.990  1.00  0.00     0.038 A 
HETATM   21  C3  UNL     1      10.911  22.617  48.115  1.00  0.00     0.071 A 
HETATM   22  C21 UNL     1      11.069  21.238  48.329  1.00  0.00     0.074 A 
HETATM   23  C18 UNL     1      10.427  20.583  49.350  1.00  0.00     0.081 A 
BRANCH  21  24
HETATM   24  O1  UNL     1      11.580  23.227  47.073  1.00  0.00    -0.351 OA
BRANCH  24  25
HETATM   25  C2  UNL     1      10.940  23.909  46.029  1.00  0.00     0.171 C 
HETATM   26  C1  UNL     1      10.567  25.323  46.322  1.00  0.00     0.034 C 
ENDBRANCH  24  25
ENDBRANCH  21  24
BRANCH  23  27
HETATM   27  O4  UNL     1      10.572  19.244  49.569  1.00  0.00    -0.351 OA
BRANCH  27  28
HETATM   28  C19 UNL     1       9.758  18.232  49.069  1.00  0.00     0.171 C 
HETATM   29  C20 UNL     1       9.611  17.027  49.942  1.00  0.00     0.034 C 
ENDBRANCH  27  28
ENDBRANCH  23  27
ENDBRANCH  17  18
ENDBRANCH   1  17
BRANCH  14  30
HETATM   30  C17 UNL     1       1.424  20.557  52.346  1.00  0.00     0.111 C 
HETATM   31 BR1  UNL     1       1.625  21.244  54.128  1.00  0.00    -0.094 Br
ENDBRANCH  14  30
TORSDOF 7
ENDMDL
MODEL 5
REMARK VINA RESULT: -7.673586812      1.302      2.087
REMARK  7 active torsions:
REMARK  status: ('A' for Active; 'I' for Inactive)
REMARK    1  A    between atoms: C2_2  and  O1_3 
REMARK    2  A    between atoms: O1_3  and  C3_4 
REMARK    3  A    between atoms: C6_7  and  C7_8 
REMARK    4  A    between atoms: C7_8  and  C8_9 
REMARK    5  A    between atoms: C16_22  and  C17_23 
REMARK    6  A    between atoms: C18_27  and  O4_28 
REMARK    7  A    between atoms: O4_28  and  C19_29 
ROOT
HETATM    1  C8  UNL     1       6.917  18.836  50.361  1.00  0.00     0.105 A 
HETATM    2  N1  UNL     1       6.912  17.779  49.515  1.00  0.00    -0.316 N 
ATOM      3  H1  UNL     1       7.804  17.353  49.263  1.00  0.00     0.169 HD
HETATM    4  C9  UNL     1       5.787  17.264  48.992  1.00  0.00     0.290 A 
HETATM    5  O2  UNL     1       5.782  16.284  48.207  1.00  0.00    -0.264 OA
HETATM    6  C10 UNL     1       4.547  17.833  49.325  1.00  0.00     0.181 A 
HETATM    7  N2  UNL     1       4.559  18.890  50.173  1.00  0.00    -0.262 N 
HETATM    8  C11 UNL     1       5.696  19.383  50.680  1.00  0.00     0.280 A 
HETATM    9  O3  UNL     1       5.658  20.383  51.476  1.00  0.00    -0.265 OA
HETATM   10  C12 UNL     1       3.289  19.484  50.541  1.00  0.00     0.024 A 
HETATM   11  C13 UNL     1       2.518  20.130  51.333  1.00  0.00     0.000 A 
HETATM   12  C14 UNL     1       1.379  20.022  50.416  1.00  0.00     0.042 A 
HETATM   13  C15 UNL     1       2.260  19.376  49.461  1.00  0.00     0.063 A 
HETATM   14  C16 UNL     1       2.119  17.896  49.142  1.00  0.00     0.103 C 
HETATM   15  N3  UNL     1       3.457  17.363  48.848  1.00  0.00    -0.365 N 
ATOM     16  H3  UNL     1       3.520  16.563  48.219  1.00  0.00     0.161 HD
ENDROOT
BRANCH   1  17
HETATM   17  C7  UNL     1       8.019  19.335  50.870  1.00  0.00     0.049 C 
BRANCH  17  18
HETATM   18  C6  UNL     1       8.841  20.296  50.138  1.00  0.00    -0.000 A 
HETATM   19  C5  UNL     1       9.629  19.923  49.084  1.00  0.00     0.017 A 
HETATM   20  C4  UNL     1      10.409  20.862  48.398  1.00  0.00     0.038 A 
HETATM   21  C3  UNL     1      10.431  22.193  48.735  1.00  0.00     0.071 A 
HETATM   22  C21 UNL     1       9.618  22.562  49.819  1.00  0.00     0.074 A 
HETATM   23  C18 UNL     1       8.850  21.648  50.496  1.00  0.00     0.081 A 
BRANCH  21  24
HETATM   24  O1  UNL     1      11.185  23.152  48.089  1.00  0.00    -0.351 OA
BRANCH  24  25
HETATM   25  C2  UNL     1      11.027  23.487  46.737  1.00  0.00     0.171 C 
HETATM   26  C1  UNL     1      10.459  24.842  46.475  1.00  0.00     0.034 C 
ENDBRANCH  24  25
ENDBRANCH  21  24
BRANCH  23  27
HETATM   27  O4  UNL     1       8.056  21.993  51.551  1.00  0.00    -0.351 OA
BRANCH  27  28
HETATM   28  C19 UNL     1       8.465  22.176  52.868  1.00  0.00     0.171 C 
HETATM   29  C20 UNL     1       7.506  21.709  53.916  1.00  0.00     0.034 C 
ENDBRANCH  27  28
ENDBRANCH  23  27
ENDBRANCH  17  18
ENDBRANCH   1  17
BRANCH  14  30
HETATM   30  C17 UNL     1       1.269  17.666  47.933  1.00  0.00     0.111 C 
HETATM   31 BR1  UNL     1       1.420  19.071  46.634  1.00  0.00    -0.094 Br
ENDBRANCH  14  30
TORSDOF 7
ENDMDL
