MODEL 1
REMARK VINA RESULT: -9.130556072      0.000      0.000
REMARK  7 active torsions:
REMARK  status: ('A' for Active; 'I' for Inactive)
REMARK    1  A    between atoms: C4_4  and  O1_5 
REMARK    2  A    between atoms: O1_5  and  C5_6 
REMARK    3  A    between atoms: C5_6  and  C6_7 
REMARK       I    between atoms: C6_7  and  N1_9 
REMARK    4  A    between atoms: C8_11  and  O3_12 
REMARK    5  A    between atoms: O3_12  and  C9_13 
REMARK    6  A    between atoms: C12_16  and  C13_17 
REMARK       I    between atoms: C13_17  and  N2_19 
REMARK    7  A    between atoms: N2_19  and  C14_21 
ROOT
HETATM    1  O3  UNL     1       3.186  19.975  49.018  1.00  0.00    -0.343 OA
ENDROOT
BRANCH   1   2
HETATM    2  C8  UNL     1       4.375  19.798  49.715  1.00  0.00     0.163 C 
HETATM    3  C7  UNL     1       4.637  21.017  50.574  1.00  0.00     0.180 C 
HETATM    4  N1  UNL     1       6.077  20.956  50.736  1.00  0.00    -0.276 N 
HETATM    5  C6  UNL     1       6.816  21.583  51.745  1.00  0.00     0.258 C 
HETATM    6  N5  UNL     1       6.653  20.168  49.725  1.00  0.00    -0.228 NA
HETATM    7  O2  UNL     1       6.213  22.265  52.615  1.00  0.00    -0.270 OA
HETATM    8  C20 UNL     1       5.597  19.866  48.790  1.00  0.00     0.147 C 
HETATM    9  C21 UNL     1       7.139  18.896  50.235  1.00  0.00     0.136 C 
BRANCH   5  10
HETATM   10  C5  UNL     1       8.303  21.465  51.821  1.00  0.00     0.280 C 
BRANCH  10  11
HETATM   11  O1  UNL     1       8.950  22.577  51.255  1.00  0.00    -0.342 OA
BRANCH  11  12
HETATM   12  C4  UNL     1       9.627  22.366  50.048  1.00  0.00     0.070 A 
HETATM   13  C3  UNL     1       9.723  23.361  49.077  1.00  0.00     0.046 A 
HETATM   14  C2  UNL     1      10.380  23.189  47.881  1.00  0.00    -0.021 A 
HETATM   15  C1  UNL     1      10.451  24.287  46.878  1.00  0.00     0.051 C 
HETATM   16  C24 UNL     1      10.980  21.979  47.609  1.00  0.00     0.122 A 
HETATM   17  C23 UNL     1      10.902  20.973  48.555  1.00  0.00     0.045 A 
HETATM   18  F1  UNL     1      11.638  21.761  46.447  1.00  0.00    -0.206 F 
HETATM   19  C22 UNL     1      10.234  21.162  49.760  1.00  0.00     0.040 A 
ENDBRANCH  11  12
ENDBRANCH  10  11
ENDBRANCH   5  10
ENDBRANCH   1   2
BRANCH   1  20
HETATM   20  C9  UNL     1       2.411  19.040  48.399  1.00  0.00     0.069 A 
HETATM   21  C10 UNL     1       2.126  19.192  47.058  1.00  0.00     0.038 A 
HETATM   22  C11 UNL     1       1.342  18.268  46.375  1.00  0.00     0.020 A 
HETATM   23  C12 UNL     1       0.825  17.170  47.020  1.00  0.00     0.032 A 
HETATM   24  C18 UNL     1       1.101  17.005  48.360  1.00  0.00     0.020 A 
HETATM   25  C19 UNL     1       1.888  17.937  49.034  1.00  0.00     0.038 A 
BRANCH  23  26
HETATM   26  C13 UNL     1      -0.004  16.181  46.308  1.00  0.00     0.257 C 
HETATM   27  O4  UNL     1       0.479  15.111  45.875  1.00  0.00    -0.267 OA
HETATM   28  N2  UNL     1      -1.385  16.407  46.086  1.00  0.00    -0.308 N 
ATOM     29  H2  UNL     1      -1.672  16.748  45.168  1.00  0.00     0.170 HD
BRANCH  28  30
HETATM   30  C14 UNL     1      -2.303  16.210  46.971  1.00  0.00     0.123 A 
HETATM   31  C15 UNL     1      -3.176  17.179  47.375  1.00  0.00     0.136 A 
HETATM   32  N3  UNL     1      -4.128  16.992  48.288  1.00  0.00    -0.371 N 
HETATM   33  C16 UNL     1      -4.237  15.755  48.854  1.00  0.00     0.104 A 
ATOM     34  H3  UNL     1      -4.756  17.750  48.556  1.00  0.00     0.164 HD
HETATM   35  C17 UNL     1      -3.372  14.759  48.467  1.00  0.00     0.106 A 
HETATM   36  N4  UNL     1      -2.430  14.997  47.544  1.00  0.00    -0.350 N 
ATOM     37  H4  UNL     1      -1.797  14.246  47.270  1.00  0.00     0.166 HD
ENDBRANCH  28  30
ENDBRANCH  23  26
ENDBRANCH   1  20
TORSDOF 7
ENDMDL
MODEL 2
REMARK VINA RESULT: -8.923444802      1.553      2.031
REMARK  7 active torsions:
REMARK  status: ('A' for Active; 'I' for Inactive)
REMARK    1  A    between atoms: C4_4  and  O1_5 
REMARK    2  A    between atoms: O1_5  and  C5_6 
REMARK    3  A    between atoms: C5_6  and  C6_7 
REMARK       I    between atoms: C6_7  and  N1_9 
REMARK    4  A    between atoms: C8_11  and  O3_12 
REMARK    5  A    between atoms: O3_12  and  C9_13 
REMARK    6  A    between atoms: C12_16  and  C13_17 
REMARK       I    between atoms: C13_17  and  N2_19 
REMARK    7  A    between atoms: N2_19  and  C14_21 
ROOT
HETATM    1  O3  UNL     1       5.259  17.656  48.966  1.00  0.00    -0.343 OA
ENDROOT
BRANCH   1   2
HETATM    2  C8  UNL     1       5.982  18.306  49.959  1.00  0.00     0.163 C 
HETATM    3  C7  UNL     1       5.963  19.797  49.696  1.00  0.00     0.180 C 
HETATM    4  N1  UNL     1       7.162  20.231  50.389  1.00  0.00    -0.276 N 
HETATM    5  C6  UNL     1       7.434  21.534  50.819  1.00  0.00     0.258 C 
HETATM    6  N5  UNL     1       8.039  19.150  50.579  1.00  0.00    -0.228 NA
HETATM    7  O2  UNL     1       6.584  22.440  50.611  1.00  0.00    -0.270 OA
HETATM    8  C20 UNL     1       7.488  18.041  49.839  1.00  0.00     0.147 C 
HETATM    9  C21 UNL     1       8.100  18.736  51.972  1.00  0.00     0.136 C 
BRANCH   5  10
HETATM   10  C5  UNL     1       8.705  21.883  51.520  1.00  0.00     0.280 C 
BRANCH  10  11
HETATM   11  O1  UNL     1       9.355  22.977  50.922  1.00  0.00    -0.342 OA
BRANCH  11  12
HETATM   12  C4  UNL     1       9.927  22.759  49.663  1.00  0.00     0.070 A 
HETATM   13  C3  UNL     1       9.947  23.751  48.685  1.00  0.00     0.046 A 
HETATM   14  C2  UNL     1      10.500  23.573  47.438  1.00  0.00    -0.021 A 
HETATM   15  C1  UNL     1      10.492  24.668  46.430  1.00  0.00     0.051 C 
HETATM   16  C24 UNL     1      11.070  22.359  47.121  1.00  0.00     0.122 A 
HETATM   17  C23 UNL     1      11.067  21.356  48.073  1.00  0.00     0.045 A 
HETATM   18  F1  UNL     1      11.627  22.135  45.909  1.00  0.00    -0.206 F 
HETATM   19  C22 UNL     1      10.503  21.551  49.329  1.00  0.00     0.040 A 
ENDBRANCH  11  12
ENDBRANCH  10  11
ENDBRANCH   5  10
ENDBRANCH   1   2
BRANCH   1  20
HETATM   20  C9  UNL     1       4.060  18.003  48.418  1.00  0.00     0.069 A 
HETATM   21  C10 UNL     1       3.995  18.254  47.063  1.00  0.00     0.038 A 
HETATM   22  C11 UNL     1       2.799  18.612  46.449  1.00  0.00     0.020 A 
HETATM   23  C12 UNL     1       1.640  18.725  47.180  1.00  0.00     0.032 A 
HETATM   24  C18 UNL     1       1.690  18.477  48.534  1.00  0.00     0.020 A 
HETATM   25  C19 UNL     1       2.894  18.120  49.138  1.00  0.00     0.038 A 
BRANCH  23  26
HETATM   26  C13 UNL     1       0.364  19.099  46.542  1.00  0.00     0.257 C 
HETATM   27  O4  UNL     1       0.331  19.736  45.465  1.00  0.00    -0.267 OA
HETATM   28  N2  UNL     1      -0.877  18.748  47.128  1.00  0.00    -0.308 N 
ATOM     29  H2  UNL     1      -1.371  19.462  47.664  1.00  0.00     0.170 HD
BRANCH  28  30
HETATM   30  C14 UNL     1      -1.423  17.584  47.027  1.00  0.00     0.123 A 
HETATM   31  C15 UNL     1      -0.755  16.479  46.582  1.00  0.00     0.136 A 
HETATM   32  N3  UNL     1      -1.304  15.269  46.471  1.00  0.00    -0.371 N 
HETATM   33  C16 UNL     1      -2.615  15.128  46.824  1.00  0.00     0.104 A 
ATOM     34  H3  UNL     1      -0.762  14.475  46.132  1.00  0.00     0.164 HD
HETATM   35  C17 UNL     1      -3.313  16.222  47.276  1.00  0.00     0.106 A 
HETATM   36  N4  UNL     1      -2.715  17.419  47.369  1.00  0.00    -0.350 N 
ATOM     37  H4  UNL     1      -3.250  18.219  47.707  1.00  0.00     0.166 HD
ENDBRANCH  28  30
ENDBRANCH  23  26
ENDBRANCH   1  20
TORSDOF 7
ENDMDL
MODEL 3
REMARK VINA RESULT: -8.860982314      2.274      2.606
REMARK  7 active torsions:
REMARK  status: ('A' for Active; 'I' for Inactive)
REMARK    1  A    between atoms: C4_4  and  O1_5 
REMARK    2  A    between atoms: O1_5  and  C5_6 
REMARK    3  A    between atoms: C5_6  and  C6_7 
REMARK       I    between atoms: C6_7  and  N1_9 
REMARK    4  A    between atoms: C8_11  and  O3_12 
REMARK    5  A    between atoms: O3_12  and  C9_13 
REMARK    6  A    between atoms: C12_16  and  C13_17 
REMARK       I    between atoms: C13_17  and  N2_19 
REMARK    7  A    between atoms: N2_19  and  C14_21 
ROOT
HETATM    1  O3  UNL     1       3.459  19.249  50.162  1.00  0.00    -0.343 OA
ENDROOT
BRANCH   1   2
HETATM    2  C8  UNL     1       4.813  19.333  50.462  1.00  0.00     0.163 C 
HETATM    3  C7  UNL     1       5.055  20.531  51.356  1.00  0.00     0.180 C 
HETATM    4  N1  UNL     1       6.451  20.818  51.089  1.00  0.00    -0.276 N 
HETATM    5  C6  UNL     1       7.309  21.552  51.915  1.00  0.00     0.258 C 
HETATM    6  N5  UNL     1       6.846  20.251  49.866  1.00  0.00    -0.228 NA
HETATM    7  O2  UNL     1       6.870  22.018  52.999  1.00  0.00    -0.270 OA
HETATM    8  C20 UNL     1       5.646  19.748  49.242  1.00  0.00     0.147 C 
HETATM    9  C21 UNL     1       7.731  19.112  50.053  1.00  0.00     0.136 C 
BRANCH   5  10
HETATM   10  C5  UNL     1       8.735  21.800  51.548  1.00  0.00     0.280 C 
BRANCH  10  11
HETATM   11  O1  UNL     1       8.882  22.942  50.740  1.00  0.00    -0.342 OA
BRANCH  11  12
HETATM   12  C4  UNL     1       9.599  22.784  49.549  1.00  0.00     0.070 A 
HETATM   13  C3  UNL     1       9.669  23.797  48.595  1.00  0.00     0.046 A 
HETATM   14  C2  UNL     1      10.364  23.678  47.414  1.00  0.00    -0.021 A 
HETATM   15  C1  UNL     1      10.404  24.793  46.429  1.00  0.00     0.051 C 
HETATM   16  C24 UNL     1      11.033  22.504  47.142  1.00  0.00     0.122 A 
HETATM   17  C23 UNL     1      10.983  21.481  48.071  1.00  0.00     0.045 A 
HETATM   18  F1  UNL     1      11.730  22.339  45.994  1.00  0.00    -0.206 F 
HETATM   19  C22 UNL     1      10.275  21.617  49.260  1.00  0.00     0.040 A 
ENDBRANCH  11  12
ENDBRANCH  10  11
ENDBRANCH   5  10
ENDBRANCH   1   2
BRANCH   1  20
HETATM   20  C9  UNL     1       2.857  19.195  48.940  1.00  0.00     0.069 A 
HETATM   21  C10 UNL     1       1.489  19.029  48.879  1.00  0.00     0.038 A 
HETATM   22  C11 UNL     1       0.822  18.967  47.660  1.00  0.00     0.020 A 
HETATM   23  C12 UNL     1       1.510  19.069  46.475  1.00  0.00     0.032 A 
HETATM   24  C18 UNL     1       2.877  19.234  46.521  1.00  0.00     0.020 A 
HETATM   25  C19 UNL     1       3.536  19.295  47.748  1.00  0.00     0.038 A 
BRANCH  23  26
HETATM   26  C13 UNL     1       0.815  19.010  45.176  1.00  0.00     0.257 C 
HETATM   27  O4  UNL     1       1.201  19.683  44.194  1.00  0.00    -0.267 OA
HETATM   28  N2  UNL     1      -0.321  18.184  44.991  1.00  0.00    -0.308 N 
ATOM     29  H2  UNL     1      -1.242  18.621  45.036  1.00  0.00     0.170 HD
BRANCH  28  30
HETATM   30  C14 UNL     1      -0.265  16.914  44.768  1.00  0.00     0.123 A 
HETATM   31  C15 UNL     1       0.798  16.136  45.128  1.00  0.00     0.136 A 
HETATM   32  N3  UNL     1       0.872  14.824  44.905  1.00  0.00    -0.371 N 
HETATM   33  C16 UNL     1      -0.181  14.222  44.278  1.00  0.00     0.104 A 
ATOM     34  H3  UNL     1       1.689  14.286  45.194  1.00  0.00     0.164 HD
HETATM   35  C17 UNL     1      -1.265  14.980  43.904  1.00  0.00     0.106 A 
HETATM   36  N4  UNL     1      -1.291  16.298  44.151  1.00  0.00    -0.350 N 
ATOM     37  H4  UNL     1      -2.104  16.843  43.865  1.00  0.00     0.166 HD
ENDBRANCH  28  30
ENDBRANCH  23  26
ENDBRANCH   1  20
TORSDOF 7
ENDMDL
MODEL 4
REMARK VINA RESULT: -8.649341594      1.511      2.155
REMARK  7 active torsions:
REMARK  status: ('A' for Active; 'I' for Inactive)
REMARK    1  A    between atoms: C4_4  and  O1_5 
REMARK    2  A    between atoms: O1_5  and  C5_6 
REMARK    3  A    between atoms: C5_6  and  C6_7 
REMARK       I    between atoms: C6_7  and  N1_9 
REMARK    4  A    between atoms: C8_11  and  O3_12 
REMARK    5  A    between atoms: O3_12  and  C9_13 
REMARK    6  A    between atoms: C12_16  and  C13_17 
REMARK       I    between atoms: C13_17  and  N2_19 
REMARK    7  A    between atoms: N2_19  and  C14_21 
ROOT
HETATM    1  O3  UNL     1       2.928  19.256  50.796  1.00  0.00    -0.343 OA
ENDROOT
BRANCH   1   2
HETATM    2  C8  UNL     1       4.155  19.904  50.726  1.00  0.00     0.163 C 
HETATM    3  C7  UNL     1       5.263  18.871  50.681  1.00  0.00     0.180 C 
HETATM    4  N1  UNL     1       6.389  19.628  51.195  1.00  0.00    -0.276 N 
HETATM    5  C6  UNL     1       7.739  19.317  51.006  1.00  0.00     0.258 C 
HETATM    6  N5  UNL     1       5.941  20.741  51.925  1.00  0.00    -0.228 NA
HETATM    7  O2  UNL     1       8.048  18.301  50.329  1.00  0.00    -0.270 OA
HETATM    8  C20 UNL     1       4.510  20.605  52.044  1.00  0.00     0.147 C 
HETATM    9  C21 UNL     1       6.187  21.990  51.221  1.00  0.00     0.136 C 
BRANCH   5  10
HETATM   10  C5  UNL     1       8.830  20.158  51.584  1.00  0.00     0.280 C 
BRANCH  10  11
HETATM   11  O1  UNL     1       9.953  20.220  50.740  1.00  0.00    -0.342 OA
BRANCH  11  12
HETATM   12  C4  UNL     1      10.012  21.296  49.847  1.00  0.00     0.070 A 
HETATM   13  C3  UNL     1      10.698  21.208  48.637  1.00  0.00     0.046 A 
HETATM   14  C2  UNL     1      10.778  22.244  47.736  1.00  0.00    -0.021 A 
HETATM   15  C1  UNL     1      11.526  22.094  46.458  1.00  0.00     0.051 C 
HETATM   16  C24 UNL     1      10.154  23.438  48.025  1.00  0.00     0.122 A 
HETATM   17  C23 UNL     1       9.465  23.554  49.218  1.00  0.00     0.045 A 
HETATM   18  F1  UNL     1      10.204  24.486  47.171  1.00  0.00    -0.206 F 
HETATM   19  C22 UNL     1       9.394  22.497  50.120  1.00  0.00     0.040 A 
ENDBRANCH  11  12
ENDBRANCH  10  11
ENDBRANCH   5  10
ENDBRANCH   1   2
BRANCH   1  20
HETATM   20  C9  UNL     1       2.204  18.688  49.790  1.00  0.00     0.069 A 
HETATM   21  C10 UNL     1       1.352  19.482  49.052  1.00  0.00     0.038 A 
HETATM   22  C11 UNL     1       0.589  18.957  48.014  1.00  0.00     0.020 A 
HETATM   23  C12 UNL     1       0.664  17.623  47.692  1.00  0.00     0.032 A 
HETATM   24  C18 UNL     1       1.511  16.817  48.420  1.00  0.00     0.020 A 
HETATM   25  C19 UNL     1       2.270  17.354  49.459  1.00  0.00     0.038 A 
BRANCH  23  26
HETATM   26  C13 UNL     1      -0.134  17.053  46.591  1.00  0.00     0.257 C 
HETATM   27  O4  UNL     1       0.388  16.346  45.699  1.00  0.00    -0.267 OA
HETATM   28  N2  UNL     1      -1.529  17.286  46.502  1.00  0.00    -0.308 N 
ATOM     29  H2  UNL     1      -1.852  18.009  45.859  1.00  0.00     0.170 HD
BRANCH  28  30
HETATM   30  C14 UNL     1      -2.416  16.643  47.183  1.00  0.00     0.123 A 
HETATM   31  C15 UNL     1      -2.341  15.302  47.435  1.00  0.00     0.136 A 
HETATM   32  N3  UNL     1      -3.249  14.623  48.135  1.00  0.00    -0.371 N 
HETATM   33  C16 UNL     1      -4.319  15.310  48.630  1.00  0.00     0.104 A 
ATOM     34  H3  UNL     1      -3.147  13.621  48.295  1.00  0.00     0.164 HD
HETATM   35  C17 UNL     1      -4.421  16.660  48.393  1.00  0.00     0.106 A 
HETATM   36  N4  UNL     1      -3.481  17.298  47.682  1.00  0.00    -0.350 N 
ATOM     37  H4  UNL     1      -3.575  18.300  47.516  1.00  0.00     0.166 HD
ENDBRANCH  28  30
ENDBRANCH  23  26
ENDBRANCH   1  20
TORSDOF 7
ENDMDL
MODEL 5
REMARK VINA RESULT: -8.637624286      3.713     11.818
REMARK  7 active torsions:
REMARK  status: ('A' for Active; 'I' for Inactive)
REMARK    1  A    between atoms: C4_4  and  O1_5 
REMARK    2  A    between atoms: O1_5  and  C5_6 
REMARK    3  A    between atoms: C5_6  and  C6_7 
REMARK       I    between atoms: C6_7  and  N1_9 
REMARK    4  A    between atoms: C8_11  and  O3_12 
REMARK    5  A    between atoms: O3_12  and  C9_13 
REMARK    6  A    between atoms: C12_16  and  C13_17 
REMARK       I    between atoms: C13_17  and  N2_19 
REMARK    7  A    between atoms: N2_19  and  C14_21 
ROOT
HETATM    1  O3  UNL     1       3.506  20.186  49.123  1.00  0.00    -0.343 OA
ENDROOT
BRANCH   1   2
HETATM    2  C8  UNL     1       2.986  18.935  48.815  1.00  0.00     0.163 C 
HETATM    3  C7  UNL     1       2.623  18.893  47.345  1.00  0.00     0.180 C 
HETATM    4  N1  UNL     1       1.615  17.850  47.323  1.00  0.00    -0.276 N 
HETATM    5  C6  UNL     1       1.219  17.115  46.201  1.00  0.00     0.258 C 
HETATM    6  N5  UNL     1       1.071  17.664  48.605  1.00  0.00    -0.228 NA
HETATM    7  O2  UNL     1       1.769  17.345  45.091  1.00  0.00    -0.270 OA
HETATM    8  C20 UNL     1       1.597  18.723  49.431  1.00  0.00     0.147 C 
HETATM    9  C21 UNL     1       1.501  16.411  49.205  1.00  0.00     0.136 C 
BRANCH   5  10
HETATM   10  C5  UNL     1       0.163  16.063  46.279  1.00  0.00     0.280 C 
BRANCH  10  11
HETATM   11  O1  UNL     1      -1.130  16.614  46.307  1.00  0.00    -0.342 OA
BRANCH  11  12
HETATM   12  C4  UNL     1      -2.030  16.065  47.228  1.00  0.00     0.070 A 
HETATM   13  C3  UNL     1      -1.699  14.957  48.006  1.00  0.00     0.046 A 
HETATM   14  C2  UNL     1      -2.556  14.392  48.921  1.00  0.00    -0.021 A 
HETATM   15  C1  UNL     1      -2.150  13.207  49.725  1.00  0.00     0.051 C 
HETATM   16  C24 UNL     1      -3.812  14.934  49.092  1.00  0.00     0.122 A 
HETATM   17  C23 UNL     1      -4.168  16.035  48.335  1.00  0.00     0.045 A 
HETATM   18  F1  UNL     1      -4.691  14.414  49.979  1.00  0.00    -0.206 F 
HETATM   19  C22 UNL     1      -3.289  16.595  47.414  1.00  0.00     0.040 A 
ENDBRANCH  11  12
ENDBRANCH  10  11
ENDBRANCH   5  10
ENDBRANCH   1   2
BRANCH   1  20
HETATM   20  C9  UNL     1       4.757  20.506  49.560  1.00  0.00     0.069 A 
HETATM   21  C10 UNL     1       5.832  19.780  49.091  1.00  0.00     0.038 A 
HETATM   22  C11 UNL     1       7.131  20.062  49.502  1.00  0.00     0.020 A 
HETATM   23  C12 UNL     1       7.382  21.079  50.393  1.00  0.00     0.032 A 
HETATM   24  C18 UNL     1       6.318  21.812  50.869  1.00  0.00     0.020 A 
HETATM   25  C19 UNL     1       5.021  21.521  50.451  1.00  0.00     0.038 A 
BRANCH  23  26
HETATM   26  C13 UNL     1       8.753  21.392  50.833  1.00  0.00     0.257 C 
HETATM   27  O4  UNL     1       9.334  20.709  51.707  1.00  0.00    -0.267 OA
HETATM   28  N2  UNL     1       9.468  22.484  50.282  1.00  0.00    -0.308 N 
ATOM     29  H2  UNL     1       9.502  23.352  50.817  1.00  0.00     0.170 HD
BRANCH  28  30
HETATM   30  C14 UNL     1      10.078  22.451  49.146  1.00  0.00     0.123 A 
HETATM   31  C15 UNL     1      10.871  21.411  48.750  1.00  0.00     0.136 A 
HETATM   32  N3  UNL     1      11.509  21.362  47.581  1.00  0.00    -0.371 N 
HETATM   33  C16 UNL     1      11.360  22.416  46.727  1.00  0.00     0.104 A 
ATOM     34  H3  UNL     1      12.090  20.561  47.333  1.00  0.00     0.164 HD
HETATM   35  C17 UNL     1      10.568  23.476  47.097  1.00  0.00     0.106 A 
HETATM   36  N4  UNL     1       9.947  23.479  48.286  1.00  0.00    -0.350 N 
ATOM     37  H4  UNL     1       9.364  24.275  48.543  1.00  0.00     0.166 HD
ENDBRANCH  28  30
ENDBRANCH  23  26
ENDBRANCH   1  20
TORSDOF 7
ENDMDL
