MODEL 1
REMARK VINA RESULT: -7.158645149      0.000      0.000
REMARK  13 active torsions:
REMARK  status: ('A' for Active; 'I' for Inactive)
REMARK    1  A    between atoms: C2_2  and  O1_3 
REMARK    2  A    between atoms: O1_3  and  C3_4 
REMARK       I    between atoms: N1_6  and  C5_7 
REMARK    3  A    between atoms: C5_7  and  C6_9 
REMARK    4  A    between atoms: C6_9  and  C7_10 
REMARK    5  A    between atoms: C12_15  and  C13_17 
REMARK    6  A    between atoms: C14_18  and  C15_19 
REMARK    7  A    between atoms: C15_19  and  N2_20 
REMARK    8  A    between atoms: N2_20  and  O3_21 
REMARK    9  A    between atoms: N2_20  and  C16_23 
REMARK   10  A    between atoms: C16_23  and  C17_24 
REMARK   11  A    between atoms: C17_24  and  N3_25 
REMARK       I    between atoms: N3_25  and  C18_27 
REMARK   12  A    between atoms: C18_27  and  O5_29 
REMARK   13  A    between atoms: O5_29  and  C19_30 
ROOT
HETATM    1  C3  UNL     1       3.883  19.404  49.828  1.00  0.00     0.282 C 
HETATM    2  C4  UNL     1       3.675  19.220  48.334  1.00  0.00     0.186 C 
HETATM    3  N1  UNL     1       3.200  17.857  48.129  1.00  0.00    -0.341 N 
HETATM    4  C5  UNL     1       2.025  17.601  47.389  1.00  0.00     0.220 C 
HETATM    5  O2  UNL     1       1.636  16.430  47.224  1.00  0.00    -0.273 OA
HETATM    6  C11 UNL     1       3.947  16.737  48.697  1.00  0.00     0.214 C 
HETATM    7  C12 UNL     1       4.496  17.176  50.039  1.00  0.00     0.289 C 
HETATM    8  F1  UNL     1       4.390  16.148  50.965  1.00  0.00    -0.195 F 
HETATM    9  O6  UNL     1       3.715  18.212  50.514  1.00  0.00    -0.308 OA
ENDROOT
BRANCH   7  10
HETATM   10  C13 UNL     1       5.879  17.643  49.940  1.00  0.00    -0.031 C 
HETATM   11  C14 UNL     1       7.019  18.026  49.881  1.00  0.00    -0.084 C 
BRANCH  11  12
HETATM   12  C15 UNL     1       8.427  18.497  49.837  1.00  0.00     0.214 C 
BRANCH  12  13
HETATM   13  N2  UNL     1       8.477  19.764  49.166  1.00  0.00    -0.187 NA
BRANCH  13  14
HETATM   14  O3  UNL     1       7.255  20.253  48.904  1.00  0.00    -0.312 OA
ATOM     15  H3  UNL     1       7.223  21.201  48.968  1.00  0.00     0.237 HD
ENDBRANCH  13  14
BRANCH  13  16
HETATM   16  C16 UNL     1       9.316  20.747  49.798  1.00  0.00     0.141 C 
BRANCH  16  17
HETATM   17  C17 UNL     1       8.567  21.971  50.227  1.00  0.00     0.141 C 
BRANCH  17  18
HETATM   18  N3  UNL     1       8.126  21.836  51.589  1.00  0.00    -0.336 N 
HETATM   19  C18 UNL     1       6.762  21.833  51.924  1.00  0.00     0.361 C 
HETATM   20  O4  UNL     1       5.801  21.936  51.137  1.00  0.00    -0.238 OA
ATOM     21  H3  UNL     1       8.821  21.742  52.330  1.00  0.00     0.164 HD
BRANCH  19  22
HETATM   22  O5  UNL     1       6.392  21.703  53.279  1.00  0.00    -0.294 OA
BRANCH  22  23
HETATM   23  C19 UNL     1       5.738  20.590  53.793  1.00  0.00     0.061 C 
HETATM   24  C20 UNL     1       6.008  20.595  55.305  1.00  0.00     0.046 C 
HETATM   25  C21 UNL     1       4.258  20.601  53.604  1.00  0.00     0.046 C 
HETATM   26  C22 UNL     1       6.270  19.270  53.288  1.00  0.00     0.046 C 
ENDBRANCH  22  23
ENDBRANCH  19  22
ENDBRANCH  17  18
ENDBRANCH  16  17
ENDBRANCH  13  16
ENDBRANCH  12  13
ENDBRANCH  11  12
ENDBRANCH   7  10
BRANCH   1  27
HETATM   27  O1  UNL     1       2.965  20.307  50.360  1.00  0.00    -0.360 OA
BRANCH  27  28
HETATM   28  C2  UNL     1       1.847  19.645  50.886  1.00  0.00     0.166 C 
HETATM   29  C1  UNL     1       1.063  20.510  51.817  1.00  0.00     0.033 C 
ENDBRANCH  27  28
ENDBRANCH   1  27
BRANCH   4  30
HETATM   30  C6  UNL     1       1.258  18.717  46.810  1.00  0.00     0.111 C 
BRANCH  30  31
HETATM   31  C7  UNL     1       1.344  18.658  45.283  1.00  0.00    -0.043 C 
HETATM   32  C8  UNL     1       2.609  18.005  44.830  1.00  0.00     0.015 C 
HETATM   33  C9  UNL     1       0.158  17.850  44.757  1.00  0.00     0.015 C 
HETATM   34  C10 UNL     1       1.221  20.053  44.718  1.00  0.00     0.015 C 
ENDBRANCH  30  31
ENDBRANCH   4  30
TORSDOF 13
ENDMDL
MODEL 2
REMARK VINA RESULT: -7.038473516      1.688      3.374
REMARK  13 active torsions:
REMARK  status: ('A' for Active; 'I' for Inactive)
REMARK    1  A    between atoms: C2_2  and  O1_3 
REMARK    2  A    between atoms: O1_3  and  C3_4 
REMARK       I    between atoms: N1_6  and  C5_7 
REMARK    3  A    between atoms: C5_7  and  C6_9 
REMARK    4  A    between atoms: C6_9  and  C7_10 
REMARK    5  A    between atoms: C12_15  and  C13_17 
REMARK    6  A    between atoms: C14_18  and  C15_19 
REMARK    7  A    between atoms: C15_19  and  N2_20 
REMARK    8  A    between atoms: N2_20  and  O3_21 
REMARK    9  A    between atoms: N2_20  and  C16_23 
REMARK   10  A    between atoms: C16_23  and  C17_24 
REMARK   11  A    between atoms: C17_24  and  N3_25 
REMARK       I    between atoms: N3_25  and  C18_27 
REMARK   12  A    between atoms: C18_27  and  O5_29 
REMARK   13  A    between atoms: O5_29  and  C19_30 
ROOT
HETATM    1  C3  UNL     1       2.856  19.280  50.345  1.00  0.00     0.282 C 
HETATM    2  C4  UNL     1       3.375  19.772  49.004  1.00  0.00     0.186 C 
HETATM    3  N1  UNL     1       3.909  18.613  48.298  1.00  0.00    -0.341 N 
HETATM    4  C5  UNL     1       3.493  18.310  46.983  1.00  0.00     0.220 C 
HETATM    5  O2  UNL     1       3.960  17.317  46.395  1.00  0.00    -0.273 OA
HETATM    6  C11 UNL     1       4.888  17.752  48.956  1.00  0.00     0.214 C 
HETATM    7  C12 UNL     1       4.521  17.667  50.423  1.00  0.00     0.289 C 
HETATM    8  F1  UNL     1       4.699  16.373  50.892  1.00  0.00    -0.195 F 
HETATM    9  O6  UNL     1       3.176  17.949  50.556  1.00  0.00    -0.308 OA
ENDROOT
BRANCH   7  10
HETATM   10  C13 UNL     1       5.280  18.619  51.234  1.00  0.00    -0.031 C 
HETATM   11  C14 UNL     1       5.907  19.416  51.883  1.00  0.00    -0.084 C 
BRANCH  11  12
HETATM   12  C15 UNL     1       6.684  20.415  52.660  1.00  0.00     0.214 C 
BRANCH  12  13
HETATM   13  N2  UNL     1       6.990  21.533  51.814  1.00  0.00    -0.187 NA
BRANCH  13  14
HETATM   14  O3  UNL     1       8.262  21.939  51.943  1.00  0.00    -0.312 OA
ATOM     15  H3  UNL     1       8.366  22.590  52.627  1.00  0.00     0.237 HD
ENDBRANCH  13  14
BRANCH  13  16
HETATM   16  C16 UNL     1       6.626  21.361  50.433  1.00  0.00     0.141 C 
BRANCH  16  17
HETATM   17  C17 UNL     1       7.806  21.367  49.510  1.00  0.00     0.141 C 
BRANCH  17  18
HETATM   18  N3  UNL     1       8.166  20.024  49.146  1.00  0.00    -0.336 N 
HETATM   19  C18 UNL     1       9.273  19.378  49.720  1.00  0.00     0.361 C 
HETATM   20  O4  UNL     1      10.049  19.847  50.576  1.00  0.00    -0.238 OA
ATOM     21  H3  UNL     1       7.604  19.528  48.454  1.00  0.00     0.164 HD
BRANCH  19  22
HETATM   22  O5  UNL     1       9.578  18.061  49.319  1.00  0.00    -0.294 OA
BRANCH  22  23
HETATM   23  C19 UNL     1       9.204  16.933  50.037  1.00  0.00     0.061 C 
HETATM   24  C20 UNL     1      10.464  16.062  50.158  1.00  0.00     0.046 C 
HETATM   25  C21 UNL     1       8.722  17.213  51.421  1.00  0.00     0.046 C 
HETATM   26  C22 UNL     1       8.178  16.068  49.344  1.00  0.00     0.046 C 
ENDBRANCH  22  23
ENDBRANCH  19  22
ENDBRANCH  17  18
ENDBRANCH  16  17
ENDBRANCH  13  16
ENDBRANCH  12  13
ENDBRANCH  11  12
ENDBRANCH   7  10
BRANCH   1  27
HETATM   27  O1  UNL     1       1.469  19.378  50.417  1.00  0.00    -0.360 OA
BRANCH  27  28
HETATM   28  C2  UNL     1       1.076  20.459  51.219  1.00  0.00     0.166 C 
HETATM   29  C1  UNL     1       1.484  20.284  52.644  1.00  0.00     0.033 C 
ENDBRANCH  27  28
ENDBRANCH   1  27
BRANCH   4  30
HETATM   30  C6  UNL     1       2.506  19.167  46.303  1.00  0.00     0.111 C 
BRANCH  30  31
HETATM   31  C7  UNL     1       1.194  18.397  46.130  1.00  0.00    -0.043 C 
HETATM   32  C8  UNL     1       0.821  17.663  47.378  1.00  0.00     0.015 C 
HETATM   33  C9  UNL     1       0.084  19.393  45.796  1.00  0.00     0.015 C 
HETATM   34  C10 UNL     1       1.315  17.452  44.960  1.00  0.00     0.015 C 
ENDBRANCH  30  31
ENDBRANCH   4  30
TORSDOF 13
ENDMDL
MODEL 3
REMARK VINA RESULT: -6.866097566      1.111      1.365
REMARK  13 active torsions:
REMARK  status: ('A' for Active; 'I' for Inactive)
REMARK    1  A    between atoms: C2_2  and  O1_3 
REMARK    2  A    between atoms: O1_3  and  C3_4 
REMARK       I    between atoms: N1_6  and  C5_7 
REMARK    3  A    between atoms: C5_7  and  C6_9 
REMARK    4  A    between atoms: C6_9  and  C7_10 
REMARK    5  A    between atoms: C12_15  and  C13_17 
REMARK    6  A    between atoms: C14_18  and  C15_19 
REMARK    7  A    between atoms: C15_19  and  N2_20 
REMARK    8  A    between atoms: N2_20  and  O3_21 
REMARK    9  A    between atoms: N2_20  and  C16_23 
REMARK   10  A    between atoms: C16_23  and  C17_24 
REMARK   11  A    between atoms: C17_24  and  N3_25 
REMARK       I    between atoms: N3_25  and  C18_27 
REMARK   12  A    between atoms: C18_27  and  O5_29 
REMARK   13  A    between atoms: O5_29  and  C19_30 
ROOT
HETATM    1  C3  UNL     1       4.226  18.930  49.893  1.00  0.00     0.282 C 
HETATM    2  C4  UNL     1       3.956  18.834  48.401  1.00  0.00     0.186 C 
HETATM    3  N1  UNL     1       3.304  17.551  48.162  1.00  0.00    -0.341 N 
HETATM    4  C5  UNL     1       2.087  17.477  47.451  1.00  0.00     0.220 C 
HETATM    5  O2  UNL     1       1.545  16.373  47.255  1.00  0.00    -0.273 OA
HETATM    6  C11 UNL     1       3.916  16.324  48.664  1.00  0.00     0.214 C 
HETATM    7  C12 UNL     1       4.552  16.636  50.003  1.00  0.00     0.289 C 
HETATM    8  F1  UNL     1       4.340  15.593  50.895  1.00  0.00    -0.195 F 
HETATM    9  O6  UNL     1       3.925  17.743  50.540  1.00  0.00    -0.308 OA
ENDROOT
BRANCH   7  10
HETATM   10  C13 UNL     1       5.981  16.925  49.877  1.00  0.00    -0.031 C 
HETATM   11  C14 UNL     1       7.162  17.143  49.783  1.00  0.00    -0.084 C 
BRANCH  11  12
HETATM   12  C15 UNL     1       8.622  17.385  49.677  1.00  0.00     0.214 C 
BRANCH  12  13
HETATM   13  N2  UNL     1       8.920  18.692  50.190  1.00  0.00    -0.187 NA
BRANCH  13  14
HETATM   14  O3  UNL     1       9.637  18.646  51.323  1.00  0.00    -0.312 OA
ATOM     15  H3  UNL     1       9.097  18.745  52.098  1.00  0.00     0.237 HD
ENDBRANCH  13  14
BRANCH  13  16
HETATM   16  C16 UNL     1       9.497  19.598  49.233  1.00  0.00     0.141 C 
BRANCH  16  17
HETATM   17  C17 UNL     1       8.753  20.893  49.127  1.00  0.00     0.141 C 
BRANCH  17  18
HETATM   18  N3  UNL     1       7.571  20.861  49.944  1.00  0.00    -0.336 N 
HETATM   19  C18 UNL     1       7.475  21.609  51.129  1.00  0.00     0.361 C 
HETATM   20  O4  UNL     1       8.345  22.363  51.607  1.00  0.00    -0.238 OA
ATOM     21  H3  UNL     1       6.783  20.280  49.657  1.00  0.00     0.164 HD
BRANCH  19  22
HETATM   22  O5  UNL     1       6.290  21.533  51.891  1.00  0.00    -0.294 OA
BRANCH  22  23
HETATM   23  C19 UNL     1       6.182  20.814  53.074  1.00  0.00     0.061 C 
HETATM   24  C20 UNL     1       4.687  20.788  53.427  1.00  0.00     0.046 C 
HETATM   25  C21 UNL     1       6.643  19.398  52.981  1.00  0.00     0.046 C 
HETATM   26  C22 UNL     1       6.868  21.458  54.256  1.00  0.00     0.046 C 
ENDBRANCH  22  23
ENDBRANCH  19  22
ENDBRANCH  17  18
ENDBRANCH  16  17
ENDBRANCH  13  16
ENDBRANCH  12  13
ENDBRANCH  11  12
ENDBRANCH   7  10
BRANCH   1  27
HETATM   27  O1  UNL     1       3.447  19.920  50.485  1.00  0.00    -0.360 OA
BRANCH  27  28
HETATM   28  C2  UNL     1       2.221  19.406  50.929  1.00  0.00     0.166 C 
HETATM   29  C1  UNL     1       1.315  20.472  51.450  1.00  0.00     0.033 C 
ENDBRANCH  27  28
ENDBRANCH   1  27
BRANCH   4  30
HETATM   30  C6  UNL     1       1.454  18.704  46.937  1.00  0.00     0.111 C 
BRANCH  30  31
HETATM   31  C7  UNL     1       1.417  18.658  45.407  1.00  0.00    -0.043 C 
HETATM   32  C8  UNL     1       2.640  18.005  44.849  1.00  0.00     0.015 C 
HETATM   33  C9  UNL     1       0.190  17.857  44.972  1.00  0.00     0.015 C 
HETATM   34  C10 UNL     1       1.253  20.057  44.865  1.00  0.00     0.015 C 
ENDBRANCH  30  31
ENDBRANCH   4  30
TORSDOF 13
ENDMDL
MODEL 4
REMARK VINA RESULT: -6.733759775      2.123      3.717
REMARK  13 active torsions:
REMARK  status: ('A' for Active; 'I' for Inactive)
REMARK    1  A    between atoms: C2_2  and  O1_3 
REMARK    2  A    between atoms: O1_3  and  C3_4 
REMARK       I    between atoms: N1_6  and  C5_7 
REMARK    3  A    between atoms: C5_7  and  C6_9 
REMARK    4  A    between atoms: C6_9  and  C7_10 
REMARK    5  A    between atoms: C12_15  and  C13_17 
REMARK    6  A    between atoms: C14_18  and  C15_19 
REMARK    7  A    between atoms: C15_19  and  N2_20 
REMARK    8  A    between atoms: N2_20  and  O3_21 
REMARK    9  A    between atoms: N2_20  and  C16_23 
REMARK   10  A    between atoms: C16_23  and  C17_24 
REMARK   11  A    between atoms: C17_24  and  N3_25 
REMARK       I    between atoms: N3_25  and  C18_27 
REMARK   12  A    between atoms: C18_27  and  O5_29 
REMARK   13  A    between atoms: O5_29  and  C19_30 
ROOT
HETATM    1  C3  UNL     1       3.938  20.827  50.380  1.00  0.00     0.282 C 
HETATM    2  C4  UNL     1       3.731  20.301  48.970  1.00  0.00     0.186 C 
HETATM    3  N1  UNL     1       4.227  18.930  48.944  1.00  0.00    -0.341 N 
HETATM    4  C5  UNL     1       3.419  17.875  48.465  1.00  0.00     0.220 C 
HETATM    5  O2  UNL     1       3.859  16.711  48.450  1.00  0.00    -0.273 OA
HETATM    6  C11 UNL     1       5.577  18.638  49.420  1.00  0.00     0.214 C 
HETATM    7  C12 UNL     1       5.859  19.546  50.600  1.00  0.00     0.289 C 
HETATM    8  F1  UNL     1       6.545  18.855  51.589  1.00  0.00    -0.195 F 
HETATM    9  O6  UNL     1       4.655  19.931  51.156  1.00  0.00    -0.308 OA
ENDROOT
BRANCH   7  10
HETATM   10  C13 UNL     1       6.595  20.747  50.204  1.00  0.00    -0.031 C 
HETATM   11  C14 UNL     1       7.212  21.735  49.898  1.00  0.00    -0.084 C 
BRANCH  11  12
HETATM   12  C15 UNL     1       7.987  22.951  49.546  1.00  0.00     0.214 C 
BRANCH  12  13
HETATM   13  N2  UNL     1       9.383  22.622  49.503  1.00  0.00    -0.187 NA
BRANCH  13  14
HETATM   14  O3  UNL     1       9.795  21.993  50.615  1.00  0.00    -0.312 OA
ATOM     15  H3  UNL     1      10.262  21.188  50.424  1.00  0.00     0.237 HD
ENDBRANCH  13  14
BRANCH  13  16
HETATM   16  C16 UNL     1       9.803  21.927  48.316  1.00  0.00     0.141 C 
BRANCH  16  17
HETATM   17  C17 UNL     1      10.663  20.736  48.605  1.00  0.00     0.141 C 
BRANCH  17  18
HETATM   18  N3  UNL     1       9.886  19.528  48.538  1.00  0.00    -0.336 N 
HETATM   19  C18 UNL     1       9.532  18.816  49.696  1.00  0.00     0.361 C 
HETATM   20  O4  UNL     1       9.821  19.113  50.872  1.00  0.00    -0.238 OA
ATOM     21  H3  UNL     1       9.584  19.180  47.628  1.00  0.00     0.164 HD
BRANCH  19  22
HETATM   22  O5  UNL     1       8.772  17.635  49.566  1.00  0.00    -0.294 OA
BRANCH  22  23
HETATM   23  C19 UNL     1       9.125  16.426  50.151  1.00  0.00     0.061 C 
HETATM   24  C20 UNL     1       8.435  15.330  49.323  1.00  0.00     0.046 C 
HETATM   25  C21 UNL     1      10.588  16.137  50.141  1.00  0.00     0.046 C 
HETATM   26  C22 UNL     1       8.618  16.248  51.562  1.00  0.00     0.046 C 
ENDBRANCH  22  23
ENDBRANCH  19  22
ENDBRANCH  17  18
ENDBRANCH  16  17
ENDBRANCH  13  16
ENDBRANCH  12  13
ENDBRANCH  11  12
ENDBRANCH   7  10
BRANCH   1  27
HETATM   27  O1  UNL     1       2.722  21.035  51.026  1.00  0.00    -0.360 OA
BRANCH  27  28
HETATM   28  C2  UNL     1       2.561  20.154  52.104  1.00  0.00     0.166 C 
HETATM   29  C1  UNL     1       1.292  20.399  52.851  1.00  0.00     0.033 C 
ENDBRANCH  27  28
ENDBRANCH   1  27
BRANCH   4  30
HETATM   30  C6  UNL     1       2.055  18.149  47.981  1.00  0.00     0.111 C 
BRANCH  30  31
HETATM   31  C7  UNL     1       2.060  18.224  46.452  1.00  0.00    -0.043 C 
HETATM   32  C8  UNL     1       3.447  18.131  45.904  1.00  0.00     0.015 C 
HETATM   33  C9  UNL     1       1.236  17.059  45.904  1.00  0.00     0.015 C 
HETATM   34  C10 UNL     1       1.385  19.499  46.008  1.00  0.00     0.015 C 
ENDBRANCH  30  31
ENDBRANCH   4  30
TORSDOF 13
ENDMDL
MODEL 5
REMARK VINA RESULT: -6.709533541      1.688      2.579
REMARK  13 active torsions:
REMARK  status: ('A' for Active; 'I' for Inactive)
REMARK    1  A    between atoms: C2_2  and  O1_3 
REMARK    2  A    between atoms: O1_3  and  C3_4 
REMARK       I    between atoms: N1_6  and  C5_7 
REMARK    3  A    between atoms: C5_7  and  C6_9 
REMARK    4  A    between atoms: C6_9  and  C7_10 
REMARK    5  A    between atoms: C12_15  and  C13_17 
REMARK    6  A    between atoms: C14_18  and  C15_19 
REMARK    7  A    between atoms: C15_19  and  N2_20 
REMARK    8  A    between atoms: N2_20  and  O3_21 
REMARK    9  A    between atoms: N2_20  and  C16_23 
REMARK   10  A    between atoms: C16_23  and  C17_24 
REMARK   11  A    between atoms: C17_24  and  N3_25 
REMARK       I    between atoms: N3_25  and  C18_27 
REMARK   12  A    between atoms: C18_27  and  O5_29 
REMARK   13  A    between atoms: O5_29  and  C19_30 
ROOT
HETATM    1  C3  UNL     1       2.953  19.432  49.754  1.00  0.00     0.282 C 
HETATM    2  C4  UNL     1       2.843  19.412  48.239  1.00  0.00     0.186 C 
HETATM    3  N1  UNL     1       3.057  18.035  47.808  1.00  0.00    -0.341 N 
HETATM    4  C5  UNL     1       2.131  17.388  46.962  1.00  0.00     0.220 C 
HETATM    5  O2  UNL     1       2.330  16.212  46.604  1.00  0.00    -0.273 OA
HETATM    6  C11 UNL     1       4.244  17.312  48.258  1.00  0.00     0.214 C 
HETATM    7  C12 UNL     1       4.535  17.736  49.683  1.00  0.00     0.289 C 
HETATM    8  F1  UNL     1       4.927  16.643  50.443  1.00  0.00    -0.195 F 
HETATM    9  O6  UNL     1       3.365  18.206  50.248  1.00  0.00    -0.308 OA
ENDROOT
BRANCH   7  10
HETATM   10  C13 UNL     1       5.541  18.796  49.745  1.00  0.00    -0.031 C 
HETATM   11  C14 UNL     1       6.382  19.656  49.809  1.00  0.00    -0.084 C 
BRANCH  11  12
HETATM   12  C15 UNL     1       7.436  20.697  49.903  1.00  0.00     0.214 C 
BRANCH  12  13
HETATM   13  N2  UNL     1       7.072  21.643  50.919  1.00  0.00    -0.187 NA
BRANCH  13  14
HETATM   14  O3  UNL     1       5.958  22.323  50.609  1.00  0.00    -0.312 OA
ATOM     15  H3  UNL     1       5.278  22.222  51.265  1.00  0.00     0.237 HD
ENDBRANCH  13  14
BRANCH  13  16
HETATM   16  C16 UNL     1       7.010  21.103  52.251  1.00  0.00     0.141 C 
BRANCH  16  17
HETATM   17  C17 UNL     1       5.677  21.302  52.904  1.00  0.00     0.141 C 
BRANCH  17  18
HETATM   18  N3  UNL     1       5.844  21.726  54.267  1.00  0.00    -0.336 N 
HETATM   19  C18 UNL     1       4.843  21.518  55.230  1.00  0.00     0.361 C 
HETATM   20  O4  UNL     1       3.740  20.966  55.051  1.00  0.00    -0.238 OA
ATOM     21  H3  UNL     1       6.710  22.190  54.541  1.00  0.00     0.164 HD
BRANCH  19  22
HETATM   22  O5  UNL     1       5.064  21.961  56.551  1.00  0.00    -0.294 OA
BRANCH  22  23
HETATM   23  C19 UNL     1       5.821  21.259  57.480  1.00  0.00     0.061 C 
HETATM   24  C20 UNL     1       5.355  21.738  58.864  1.00  0.00     0.046 C 
HETATM   25  C21 UNL     1       5.637  19.779  57.436  1.00  0.00     0.046 C 
HETATM   26  C22 UNL     1       7.301  21.554  57.426  1.00  0.00     0.046 C 
ENDBRANCH  22  23
ENDBRANCH  19  22
ENDBRANCH  17  18
ENDBRANCH  16  17
ENDBRANCH  13  16
ENDBRANCH  12  13
ENDBRANCH  11  12
ENDBRANCH   7  10
BRANCH   1  27
HETATM   27  O1  UNL     1       1.725  19.713  50.347  1.00  0.00    -0.360 OA
BRANCH  27  28
HETATM   28  C2  UNL     1       1.730  19.380  51.709  1.00  0.00     0.166 C 
HETATM   29  C1  UNL     1       1.247  20.501  52.568  1.00  0.00     0.033 C 
ENDBRANCH  27  28
ENDBRANCH   1  27
BRANCH   4  30
HETATM   30  C6  UNL     1       0.928  18.101  46.499  1.00  0.00     0.111 C 
BRANCH  30  31
HETATM   31  C7  UNL     1       1.147  18.598  45.068  1.00  0.00    -0.043 C 
HETATM   32  C8  UNL     1      -0.002  18.239  44.182  1.00  0.00     0.015 C 
HETATM   33  C9  UNL     1       1.289  20.119  45.096  1.00  0.00     0.015 C 
HETATM   34  C10 UNL     1       2.442  18.036  44.532  1.00  0.00     0.015 C 
ENDBRANCH  30  31
ENDBRANCH   4  30
TORSDOF 13
ENDMDL
