MODEL 1
REMARK VINA RESULT: -7.779409938      0.000      0.000
REMARK  8 active torsions:
REMARK  status: ('A' for Active; 'I' for Inactive)
REMARK    1  A    between atoms: O1_2  and  C2_3 
REMARK    2  A    between atoms: C2_3  and  C3_5 
REMARK    3  A    between atoms: C4_7  and  C5_8 
REMARK    4  A    between atoms: C5_8  and  N1_9 
REMARK    5  A    between atoms: C12_17  and  C13_18 
REMARK    6  A    between atoms: C13_18  and  C14_19 
REMARK    7  A    between atoms: C14_19  and  C15_20 
REMARK       I    between atoms: C15_20  and  N2_22 
REMARK    8  A    between atoms: N2_22  and  C16_24 
ROOT
HETATM    1  C3  UNL     1       5.000  19.944  50.360  1.00  0.00     0.157 A 
HETATM    2  O3  UNL     1       3.755  19.806  49.952  1.00  0.00    -0.307 OA
HETATM    3  C4  UNL     1       3.502  18.610  49.515  1.00  0.00     0.072 A 
HETATM    4  C11 UNL     1       4.673  17.908  49.647  1.00  0.00     0.044 A 
HETATM    5  C12 UNL     1       5.646  18.743  50.185  1.00  0.00    -0.015 A 
ENDROOT
BRANCH   5   6
HETATM    6  C13 UNL     1       7.025  18.380  50.472  1.00  0.00     0.051 C 
BRANCH   6   7
HETATM    7  C14 UNL     1       8.092  18.909  49.593  1.00  0.00     0.108 C 
BRANCH   7   8
HETATM    8  C15 UNL     1       9.198  19.615  50.243  1.00  0.00     0.236 C 
HETATM    9  O4  UNL     1      10.016  18.988  50.944  1.00  0.00    -0.273 OA
HETATM   10  N2  UNL     1       9.326  21.040  50.065  1.00  0.00    -0.159 N 
ATOM     11  H2  UNL     1       9.002  21.681  50.789  1.00  0.00     0.187 HD
BRANCH  10  12
HETATM   12  C16 UNL     1       9.863  21.502  48.963  1.00  0.00     0.686 A 
HETATM   13  N3  UNL     1      10.721  20.828  48.183  1.00  0.00    -0.200 N 
HETATM   14  C17 UNL     1      11.089  21.575  47.128  1.00  0.00     0.124 A 
ATOM     15  H3  UNL     1      11.048  19.879  48.364  1.00  0.00     0.183 HD
HETATM   16  C18 UNL     1      10.407  22.761  47.299  1.00  0.00     0.126 A 
HETATM   17  N4  UNL     1       9.669  22.695  48.419  1.00  0.00    -0.196 N 
HETATM   18  C19 UNL     1       8.806  23.752  48.945  1.00  0.00     0.175 C 
ENDBRANCH  10  12
ENDBRANCH   7   8
ENDBRANCH   6   7
ENDBRANCH   5   6
BRANCH   1  19
HETATM   19  C2  UNL     1       5.531  21.191  50.898  1.00  0.00     0.317 C 
HETATM   20  O2  UNL     1       6.358  21.911  50.311  1.00  0.00    -0.257 OA
BRANCH  19  21
HETATM   21  O1  UNL     1       5.124  21.666  52.153  1.00  0.00    -0.321 OA
HETATM   22  C1  UNL     1       5.078  20.829  53.297  1.00  0.00     0.213 C 
ENDBRANCH  19  21
ENDBRANCH   1  19
BRANCH   3  23
HETATM   23  C5  UNL     1       2.183  18.121  48.980  1.00  0.00     0.192 C 
BRANCH  23  24
HETATM   24  N1  UNL     1       2.204  18.229  47.540  1.00  0.00    -0.359 N 
HETATM   25  C6  UNL     1       1.840  19.354  46.916  1.00  0.00     0.091 A 
HETATM   26  C7  UNL     1       1.875  19.412  45.546  1.00  0.00     0.019 A 
HETATM   27  C8  UNL     1       2.275  18.346  44.785  1.00  0.00     0.022 A 
HETATM   28  C9  UNL     1       2.649  17.188  45.437  1.00  0.00     0.026 A 
HETATM   29 BR1  UNL     1       3.210  15.682  44.430  1.00  0.00    -0.050 Br
HETATM   30  C10 UNL     1       2.597  17.173  46.825  1.00  0.00     0.110 A 
ENDBRANCH  23  24
ENDBRANCH   3  23
TORSDOF 8
ENDMDL
MODEL 2
REMARK VINA RESULT: -7.729399962      3.394      6.320
REMARK  8 active torsions:
REMARK  status: ('A' for Active; 'I' for Inactive)
REMARK    1  A    between atoms: O1_2  and  C2_3 
REMARK    2  A    between atoms: C2_3  and  C3_5 
REMARK    3  A    between atoms: C4_7  and  C5_8 
REMARK    4  A    between atoms: C5_8  and  N1_9 
REMARK    5  A    between atoms: C12_17  and  C13_18 
REMARK    6  A    between atoms: C13_18  and  C14_19 
REMARK    7  A    between atoms: C14_19  and  C15_20 
REMARK       I    between atoms: C15_20  and  N2_22 
REMARK    8  A    between atoms: N2_22  and  C16_24 
ROOT
HETATM    1  C3  UNL     1       5.505  20.864  50.885  1.00  0.00     0.157 A 
HETATM    2  O3  UNL     1       6.529  21.583  51.296  1.00  0.00    -0.307 OA
HETATM    3  C4  UNL     1       7.554  21.492  50.504  1.00  0.00     0.072 A 
HETATM    4  C11 UNL     1       7.171  20.648  49.493  1.00  0.00     0.044 A 
HETATM    5  C12 UNL     1       5.862  20.233  49.718  1.00  0.00    -0.015 A 
ENDROOT
BRANCH   5   6
HETATM    6  C13 UNL     1       5.094  19.327  48.878  1.00  0.00     0.051 C 
BRANCH   6   7
HETATM    7  C14 UNL     1       4.722  18.003  49.425  1.00  0.00     0.108 C 
BRANCH   7   8
HETATM    8  C15 UNL     1       5.554  16.864  49.031  1.00  0.00     0.236 C 
HETATM    9  O4  UNL     1       5.433  16.362  47.897  1.00  0.00    -0.273 OA
HETATM   10  N2  UNL     1       6.509  16.332  49.970  1.00  0.00    -0.159 N 
ATOM     11  H2  UNL     1       6.292  15.492  50.507  1.00  0.00     0.187 HD
BRANCH  10  12
HETATM   12  C16 UNL     1       7.660  16.938  50.128  1.00  0.00     0.686 A 
HETATM   13  N3  UNL     1       8.660  16.937  49.234  1.00  0.00    -0.200 N 
HETATM   14  C17 UNL     1       9.704  17.649  49.691  1.00  0.00     0.124 A 
ATOM     15  H3  UNL     1       8.632  16.461  48.333  1.00  0.00     0.183 HD
HETATM   16  C18 UNL     1       9.293  18.096  50.929  1.00  0.00     0.126 A 
HETATM   17  N4  UNL     1       8.050  17.653  51.174  1.00  0.00    -0.196 N 
HETATM   18  C19 UNL     1       7.266  17.913  52.381  1.00  0.00     0.175 C 
ENDBRANCH  10  12
ENDBRANCH   7   8
ENDBRANCH   6   7
ENDBRANCH   5   6
BRANCH   1  19
HETATM   19  C2  UNL     1       4.235  20.802  51.599  1.00  0.00     0.317 C 
HETATM   20  O2  UNL     1       4.112  20.422  52.777  1.00  0.00    -0.257 OA
BRANCH  19  21
HETATM   21  O1  UNL     1       3.037  21.181  50.975  1.00  0.00    -0.321 OA
HETATM   22  C1  UNL     1       1.799  20.561  51.282  1.00  0.00     0.213 C 
ENDBRANCH  19  21
ENDBRANCH   1  19
BRANCH   3  23
HETATM   23  C5  UNL     1       8.878  22.185  50.682  1.00  0.00     0.192 C 
BRANCH  23  24
HETATM   24  N1  UNL     1       9.541  22.245  49.399  1.00  0.00    -0.359 N 
HETATM   25  C6  UNL     1      10.215  21.200  48.909  1.00  0.00     0.091 A 
HETATM   26  C7  UNL     1      10.829  21.302  47.687  1.00  0.00     0.019 A 
HETATM   27  C8  UNL     1      10.775  22.449  46.942  1.00  0.00     0.022 A 
HETATM   28  C9  UNL     1      10.077  23.524  47.455  1.00  0.00     0.026 A 
HETATM   29 BR1  UNL     1       9.973  25.137  46.464  1.00  0.00    -0.050 Br
HETATM   30  C10 UNL     1       9.471  23.377  48.696  1.00  0.00     0.110 A 
ENDBRANCH  23  24
ENDBRANCH   3  23
TORSDOF 8
ENDMDL
MODEL 3
REMARK VINA RESULT: -7.714834928      2.158      2.714
REMARK  8 active torsions:
REMARK  status: ('A' for Active; 'I' for Inactive)
REMARK    1  A    between atoms: O1_2  and  C2_3 
REMARK    2  A    between atoms: C2_3  and  C3_5 
REMARK    3  A    between atoms: C4_7  and  C5_8 
REMARK    4  A    between atoms: C5_8  and  N1_9 
REMARK    5  A    between atoms: C12_17  and  C13_18 
REMARK    6  A    between atoms: C13_18  and  C14_19 
REMARK    7  A    between atoms: C14_19  and  C15_20 
REMARK       I    between atoms: C15_20  and  N2_22 
REMARK    8  A    between atoms: N2_22  and  C16_24 
ROOT
HETATM    1  C3  UNL     1       4.716  20.892  52.305  1.00  0.00     0.157 A 
HETATM    2  O3  UNL     1       3.431  20.621  52.411  1.00  0.00    -0.307 OA
HETATM    3  C4  UNL     1       2.849  20.495  51.257  1.00  0.00     0.072 A 
HETATM    4  C11 UNL     1       3.830  20.699  50.320  1.00  0.00     0.044 A 
HETATM    5  C12 UNL     1       5.033  20.956  50.969  1.00  0.00    -0.015 A 
ENDROOT
BRANCH   5   6
HETATM    6  C13 UNL     1       6.310  21.232  50.330  1.00  0.00     0.051 C 
BRANCH   6   7
HETATM    7  C14 UNL     1       6.896  20.198  49.447  1.00  0.00     0.108 C 
BRANCH   7   8
HETATM    8  C15 UNL     1       8.276  19.794  49.723  1.00  0.00     0.236 C 
HETATM    9  O4  UNL     1       8.576  18.585  49.773  1.00  0.00    -0.273 OA
HETATM   10  N2  UNL     1       9.277  20.807  49.939  1.00  0.00    -0.159 N 
ATOM     11  H2  UNL     1       9.569  21.051  50.886  1.00  0.00     0.187 HD
BRANCH  10  12
HETATM   12  C16 UNL     1       9.809  21.413  48.906  1.00  0.00     0.686 A 
HETATM   13  N3  UNL     1      10.679  20.854  48.050  1.00  0.00    -0.200 N 
HETATM   14  C17 UNL     1      11.038  21.733  47.099  1.00  0.00     0.124 A 
ATOM     15  H3  UNL     1      11.020  19.895  48.112  1.00  0.00     0.183 HD
HETATM   16  C18 UNL     1      10.338  22.878  47.416  1.00  0.00     0.126 A 
HETATM   17  N4  UNL     1       9.599  22.662  48.516  1.00  0.00    -0.196 N 
HETATM   18  C19 UNL     1       8.719  23.631  49.167  1.00  0.00     0.175 C 
ENDBRANCH  10  12
ENDBRANCH   7   8
ENDBRANCH   6   7
ENDBRANCH   5   6
BRANCH   1  19
HETATM   19  C2  UNL     1       5.591  21.076  53.456  1.00  0.00     0.317 C 
HETATM   20  O2  UNL     1       6.196  20.153  54.031  1.00  0.00    -0.257 OA
BRANCH  19  21
HETATM   21  O1  UNL     1       5.810  22.351  53.999  1.00  0.00    -0.321 OA
HETATM   22  C1  UNL     1       6.497  22.539  55.225  1.00  0.00     0.213 C 
ENDBRANCH  19  21
ENDBRANCH   1  19
BRANCH   3  23
HETATM   23  C5  UNL     1       1.395  20.187  51.025  1.00  0.00     0.192 C 
BRANCH  23  24
HETATM   24  N1  UNL     1       1.302  19.019  50.180  1.00  0.00    -0.359 N 
HETATM   25  C6  UNL     1       1.673  17.810  50.612  1.00  0.00     0.091 A 
HETATM   26  C7  UNL     1       1.569  16.728  49.774  1.00  0.00     0.019 A 
HETATM   27  C8  UNL     1       1.091  16.845  48.496  1.00  0.00     0.022 A 
HETATM   28  C9  UNL     1       0.710  18.096  48.058  1.00  0.00     0.026 A 
HETATM   29 BR1  UNL     1       0.044  18.313  46.295  1.00  0.00    -0.050 Br
HETATM   30  C10 UNL     1       0.834  19.163  48.938  1.00  0.00     0.110 A 
ENDBRANCH  23  24
ENDBRANCH   3  23
TORSDOF 8
ENDMDL
MODEL 4
REMARK VINA RESULT: -7.685965400      1.283      1.581
REMARK  8 active torsions:
REMARK  status: ('A' for Active; 'I' for Inactive)
REMARK    1  A    between atoms: O1_2  and  C2_3 
REMARK    2  A    between atoms: C2_3  and  C3_5 
REMARK    3  A    between atoms: C4_7  and  C5_8 
REMARK    4  A    between atoms: C5_8  and  N1_9 
REMARK    5  A    between atoms: C12_17  and  C13_18 
REMARK    6  A    between atoms: C13_18  and  C14_19 
REMARK    7  A    between atoms: C14_19  and  C15_20 
REMARK       I    between atoms: C15_20  and  N2_22 
REMARK    8  A    between atoms: N2_22  and  C16_24 
ROOT
HETATM    1  C3  UNL     1       4.689  19.885  51.105  1.00  0.00     0.157 A 
HETATM    2  O3  UNL     1       3.428  19.576  50.884  1.00  0.00    -0.307 OA
HETATM    3  C4  UNL     1       3.293  18.457  50.240  1.00  0.00     0.072 A 
HETATM    4  C11 UNL     1       4.565  17.996  50.021  1.00  0.00     0.044 A 
HETATM    5  C12 UNL     1       5.476  18.895  50.566  1.00  0.00    -0.015 A 
ENDROOT
BRANCH   5   6
HETATM    6  C13 UNL     1       6.925  18.772  50.537  1.00  0.00     0.051 C 
BRANCH   6   7
HETATM    7  C14 UNL     1       7.685  19.605  49.580  1.00  0.00     0.108 C 
BRANCH   7   8
HETATM    8  C15 UNL     1       9.135  19.408  49.534  1.00  0.00     0.236 C 
HETATM    9  O4  UNL     1       9.607  18.273  49.327  1.00  0.00    -0.273 OA
HETATM   10  N2  UNL     1      10.007  20.539  49.732  1.00  0.00    -0.159 N 
ATOM     11  H2  UNL     1      10.447  20.698  50.638  1.00  0.00     0.187 HD
BRANCH  10  12
HETATM   12  C16 UNL     1      10.228  21.360  48.736  1.00  0.00     0.686 A 
HETATM   13  N3  UNL     1      11.074  21.129  47.720  1.00  0.00    -0.200 N 
HETATM   14  C17 UNL     1      11.075  22.162  46.861  1.00  0.00     0.124 A 
ATOM     15  H3  UNL     1      11.638  20.286  47.614  1.00  0.00     0.183 HD
HETATM   16  C18 UNL     1      10.176  23.056  47.404  1.00  0.00     0.126 A 
HETATM   17  N4  UNL     1       9.674  22.549  48.542  1.00  0.00    -0.196 N 
HETATM   18  C19 UNL     1       8.691  23.194  49.412  1.00  0.00     0.175 C 
ENDBRANCH  10  12
ENDBRANCH   7   8
ENDBRANCH   6   7
ENDBRANCH   5   6
BRANCH   1  19
HETATM   19  C2  UNL     1       5.105  21.091  51.812  1.00  0.00     0.317 C 
HETATM   20  O2  UNL     1       5.705  22.042  51.282  1.00  0.00    -0.257 OA
BRANCH  19  21
HETATM   21  O1  UNL     1       4.841  21.251  53.181  1.00  0.00    -0.321 OA
HETATM   22  C1  UNL     1       5.833  21.692  54.093  1.00  0.00     0.213 C 
ENDBRANCH  19  21
ENDBRANCH   1  19
BRANCH   3  23
HETATM   23  C5  UNL     1       1.992  17.820  49.831  1.00  0.00     0.192 C 
BRANCH  23  24
HETATM   24  N1  UNL     1       2.012  17.613  48.401  1.00  0.00    -0.359 N 
HETATM   25  C6  UNL     1       2.357  16.437  47.868  1.00  0.00     0.091 A 
HETATM   26  C7  UNL     1       2.362  16.286  46.505  1.00  0.00     0.019 A 
HETATM   27  C8  UNL     1       2.021  17.309  45.661  1.00  0.00     0.022 A 
HETATM   28  C9  UNL     1       1.667  18.520  46.219  1.00  0.00     0.026 A 
HETATM   29 BR1  UNL     1       1.188  19.970  45.094  1.00  0.00    -0.050 Br
HETATM   30  C10 UNL     1       1.676  18.629  47.604  1.00  0.00     0.110 A 
ENDBRANCH  23  24
ENDBRANCH   3  23
TORSDOF 8
ENDMDL
MODEL 5
REMARK VINA RESULT: -7.685406810      2.694      7.448
REMARK  8 active torsions:
REMARK  status: ('A' for Active; 'I' for Inactive)
REMARK    1  A    between atoms: O1_2  and  C2_3 
REMARK    2  A    between atoms: C2_3  and  C3_5 
REMARK    3  A    between atoms: C4_7  and  C5_8 
REMARK    4  A    between atoms: C5_8  and  N1_9 
REMARK    5  A    between atoms: C12_17  and  C13_18 
REMARK    6  A    between atoms: C13_18  and  C14_19 
REMARK    7  A    between atoms: C14_19  and  C15_20 
REMARK       I    between atoms: C15_20  and  N2_22 
REMARK    8  A    between atoms: N2_22  and  C16_24 
ROOT
HETATM    1  C3  UNL     1       5.593  20.871  50.534  1.00  0.00     0.157 A 
HETATM    2  O3  UNL     1       6.529  21.746  50.840  1.00  0.00    -0.307 OA
HETATM    3  C4  UNL     1       7.694  21.415  50.372  1.00  0.00     0.072 A 
HETATM    4  C11 UNL     1       7.507  20.230  49.707  1.00  0.00     0.044 A 
HETATM    5  C12 UNL     1       6.169  19.863  49.798  1.00  0.00    -0.015 A 
ENDROOT
BRANCH   5   6
HETATM    6  C13 UNL     1       5.568  18.666  49.231  1.00  0.00     0.051 C 
BRANCH   6   7
HETATM    7  C14 UNL     1       4.657  18.814  48.075  1.00  0.00     0.108 C 
BRANCH   7   8
HETATM    8  C15 UNL     1       3.285  18.329  48.243  1.00  0.00     0.236 C 
HETATM    9  O4  UNL     1       2.683  18.514  49.319  1.00  0.00    -0.273 OA
HETATM   10  N2  UNL     1       2.644  17.636  47.155  1.00  0.00    -0.159 N 
ATOM     11  H2  UNL     1       2.592  16.617  47.151  1.00  0.00     0.187 HD
BRANCH  10  12
HETATM   12  C16 UNL     1       2.129  18.328  46.169  1.00  0.00     0.686 A 
HETATM   13  N3  UNL     1       1.311  19.382  46.312  1.00  0.00    -0.200 N 
HETATM   14  C17 UNL     1       0.957  19.873  45.113  1.00  0.00     0.124 A 
ATOM     15  H3  UNL     1       1.001  19.758  47.207  1.00  0.00     0.183 HD
HETATM   16  C18 UNL     1       1.605  19.058  44.208  1.00  0.00     0.126 A 
HETATM   17  N4  UNL     1       2.310  18.127  44.871  1.00  0.00    -0.196 N 
HETATM   18  C19 UNL     1       3.133  17.079  44.268  1.00  0.00     0.175 C 
ENDBRANCH  10  12
ENDBRANCH   7   8
ENDBRANCH   6   7
ENDBRANCH   5   6
BRANCH   1  19
HETATM   19  C2  UNL     1       4.200  21.017  50.940  1.00  0.00     0.317 C 
HETATM   20  O2  UNL     1       3.346  21.652  50.297  1.00  0.00    -0.257 OA
BRANCH  19  21
HETATM   21  O1  UNL     1       3.727  20.426  52.121  1.00  0.00    -0.321 OA
HETATM   22  C1  UNL     1       4.403  20.571  53.359  1.00  0.00     0.213 C 
ENDBRANCH  19  21
ENDBRANCH   1  19
BRANCH   3  23
HETATM   23  C5  UNL     1       8.972  22.193  50.540  1.00  0.00     0.192 C 
BRANCH  23  24
HETATM   24  N1  UNL     1       9.619  22.295  49.253  1.00  0.00    -0.359 N 
HETATM   25  C6  UNL     1      10.306  21.274  48.730  1.00  0.00     0.091 A 
HETATM   26  C7  UNL     1      10.905  21.416  47.504  1.00  0.00     0.019 A 
HETATM   27  C8  UNL     1      10.824  22.580  46.788  1.00  0.00     0.022 A 
HETATM   28  C9  UNL     1      10.113  23.630  47.335  1.00  0.00     0.026 A 
HETATM   29 BR1  UNL     1       9.971  25.265  46.384  1.00  0.00    -0.050 Br
HETATM   30  C10 UNL     1       9.523  23.443  48.578  1.00  0.00     0.110 A 
ENDBRANCH  23  24
ENDBRANCH   3  23
TORSDOF 8
ENDMDL
