MODEL 1
REMARK VINA RESULT: -7.887965261      0.000      0.000
REMARK  10 active torsions:
REMARK  status: ('A' for Active; 'I' for Inactive)
REMARK    1  A    between atoms: C4_4  and  C5_5 
REMARK    2  A    between atoms: C6_6  and  C7_7 
REMARK    3  A    between atoms: C7_7  and  O1_8 
REMARK    4  A    between atoms: O1_8  and  C8_9 
REMARK    5  A    between atoms: C13_15  and  C14_16 
REMARK    6  A    between atoms: C14_16  and  C15_17 
REMARK    7  A    between atoms: C15_17  and  O3_19 
REMARK    8  A    between atoms: O3_19  and  C16_20 
REMARK    9  A    between atoms: C16_20  and  C17_21 
REMARK       I    between atoms: N1_23  and  C18_24 
REMARK   10  A    between atoms: C18_24  and  C19_26 
ROOT
HETATM    1  C1  UNL     1       1.544  20.878  54.304  1.00  0.00     0.027 C 
HETATM    2  C2  UNL     1       1.431  20.513  53.161  1.00  0.00    -0.025 C 
HETATM    3  C3  UNL     1       1.306  20.058  51.814  1.00  0.00    -0.002 C 
HETATM    4  C4  UNL     1       1.190  19.656  50.683  1.00  0.00    -0.001 C 
ENDROOT
BRANCH   4   5
HETATM    5  C5  UNL     1       1.042  19.160  49.361  1.00  0.00    -0.012 C 
HETATM    6  C6  UNL     1       0.939  18.731  48.236  1.00  0.00    -0.066 C 
BRANCH   6   7
HETATM    7  C7  UNL     1       0.829  18.185  46.862  1.00  0.00     0.270 C 
BRANCH   7   8
HETATM    8  O1  UNL     1       2.077  18.402  46.216  1.00  0.00    -0.339 OA
BRANCH   8   9
HETATM    9  C8  UNL     1       2.886  17.306  45.995  1.00  0.00     0.076 A 
HETATM   10  C9  UNL     1       2.475  16.191  45.254  1.00  0.00     0.039 A 
HETATM   11  C10 UNL     1       3.345  15.139  45.082  1.00  0.00     0.022 A 
HETATM   12  C11 UNL     1       4.602  15.167  45.625  1.00  0.00     0.011 A 
HETATM   13 BR1  UNL     1       5.798  13.716  45.385  1.00  0.00    -0.051 Br
HETATM   14  C12 UNL     1       5.009  16.271  46.360  1.00  0.00     0.029 A 
HETATM   15  C13 UNL     1       4.167  17.337  46.550  1.00  0.00    -0.014 A 
BRANCH  15  16
HETATM   16  C14 UNL     1       4.573  18.519  47.321  1.00  0.00     0.152 C 
BRANCH  16  17
HETATM   17  C15 UNL     1       4.866  18.193  48.767  1.00  0.00     0.263 C 
HETATM   18  O2  UNL     1       4.096  17.451  49.417  1.00  0.00    -0.265 OA
BRANCH  17  19
HETATM   19  O3  UNL     1       5.964  18.687  49.410  1.00  0.00    -0.317 OA
BRANCH  19  20
HETATM   20  C16 UNL     1       6.289  19.969  49.796  1.00  0.00     0.237 C 
BRANCH  20  21
HETATM   21  C17 UNL     1       7.727  20.365  49.812  1.00  0.00     0.308 A 
HETATM   22  O4  UNL     1       8.461  20.464  48.691  1.00  0.00    -0.242 OA
HETATM   23  N1  UNL     1       8.226  21.641  49.602  1.00  0.00    -0.179 N 
HETATM   24  C18 UNL     1       8.746  22.972  49.380  1.00  0.00     0.346 C 
HETATM   25  O5  UNL     1       8.449  23.820  50.244  1.00  0.00    -0.258 OA
BRANCH  24  26
HETATM   26  C19 UNL     1       9.558  23.345  48.252  1.00  0.00     0.272 C 
HETATM   27  O6  UNL     1      10.680  22.743  48.098  1.00  0.00    -0.640 OA
HETATM   28  O7  UNL     1       9.169  24.311  47.353  1.00  0.00    -0.640 OA
ENDBRANCH  24  26
ENDBRANCH  20  21
ENDBRANCH  19  20
ENDBRANCH  17  19
ENDBRANCH  16  17
ENDBRANCH  15  16
ENDBRANCH   8   9
ENDBRANCH   7   8
ENDBRANCH   6   7
ENDBRANCH   4   5
TORSDOF 10
ENDMDL
MODEL 2
REMARK VINA RESULT: -7.746471855      1.053      1.612
REMARK  10 active torsions:
REMARK  status: ('A' for Active; 'I' for Inactive)
REMARK    1  A    between atoms: C4_4  and  C5_5 
REMARK    2  A    between atoms: C6_6  and  C7_7 
REMARK    3  A    between atoms: C7_7  and  O1_8 
REMARK    4  A    between atoms: O1_8  and  C8_9 
REMARK    5  A    between atoms: C13_15  and  C14_16 
REMARK    6  A    between atoms: C14_16  and  C15_17 
REMARK    7  A    between atoms: C15_17  and  O3_19 
REMARK    8  A    between atoms: O3_19  and  C16_20 
REMARK    9  A    between atoms: C16_20  and  C17_21 
REMARK       I    between atoms: N1_23  and  C18_24 
REMARK   10  A    between atoms: C18_24  and  C19_26 
ROOT
HETATM    1  C1  UNL     1       1.364  20.900  54.388  1.00  0.00     0.027 C 
HETATM    2  C2  UNL     1       1.338  20.497  53.252  1.00  0.00    -0.025 C 
HETATM    3  C3  UNL     1       1.283  20.027  51.906  1.00  0.00    -0.002 C 
HETATM    4  C4  UNL     1       1.229  19.649  50.762  1.00  0.00    -0.001 C 
ENDROOT
BRANCH   4   5
HETATM    5  C5  UNL     1       1.153  19.227  49.408  1.00  0.00    -0.012 C 
HETATM    6  C6  UNL     1       1.100  18.887  48.250  1.00  0.00    -0.066 C 
BRANCH   6   7
HETATM    7  C7  UNL     1       1.057  18.483  46.824  1.00  0.00     0.270 C 
BRANCH   7   8
HETATM    8  O1  UNL     1       2.368  18.643  46.297  1.00  0.00    -0.339 OA
BRANCH   8   9
HETATM    9  C8  UNL     1       3.103  17.502  46.044  1.00  0.00     0.076 A 
HETATM   10  C9  UNL     1       2.733  16.553  45.083  1.00  0.00     0.039 A 
HETATM   11  C10 UNL     1       3.522  15.443  44.895  1.00  0.00     0.022 A 
HETATM   12  C11 UNL     1       4.662  15.253  45.632  1.00  0.00     0.011 A 
HETATM   13 BR1  UNL     1       5.747  13.723  45.368  1.00  0.00    -0.051 Br
HETATM   14  C12 UNL     1       5.028  16.193  46.584  1.00  0.00     0.029 A 
HETATM   15  C13 UNL     1       4.264  17.312  46.797  1.00  0.00    -0.014 A 
BRANCH  15  16
HETATM   16  C14 UNL     1       4.630  18.323  47.796  1.00  0.00     0.152 C 
BRANCH  16  17
HETATM   17  C15 UNL     1       4.471  17.821  49.213  1.00  0.00     0.263 C 
HETATM   18  O2  UNL     1       3.749  16.828  49.454  1.00  0.00    -0.265 OA
BRANCH  17  19
HETATM   19  O3  UNL     1       5.098  18.421  50.266  1.00  0.00    -0.317 OA
BRANCH  19  20
HETATM   20  C16 UNL     1       4.849  19.614  50.910  1.00  0.00     0.237 C 
BRANCH  20  21
HETATM   21  C17 UNL     1       5.348  20.875  50.290  1.00  0.00     0.308 A 
HETATM   22  O4  UNL     1       5.833  21.896  51.019  1.00  0.00    -0.242 OA
HETATM   23  N1  UNL     1       6.669  21.174  49.995  1.00  0.00    -0.179 N 
HETATM   24  C18 UNL     1       8.048  21.485  49.689  1.00  0.00     0.346 C 
HETATM   25  O5  UNL     1       8.580  20.780  48.810  1.00  0.00    -0.258 OA
BRANCH  24  26
HETATM   26  C19 UNL     1       8.803  22.529  50.331  1.00  0.00     0.272 C 
HETATM   27  O6  UNL     1       8.700  22.646  51.604  1.00  0.00    -0.640 OA
HETATM   28  O7  UNL     1       9.616  23.388  49.628  1.00  0.00    -0.640 OA
ENDBRANCH  24  26
ENDBRANCH  20  21
ENDBRANCH  19  20
ENDBRANCH  17  19
ENDBRANCH  16  17
ENDBRANCH  15  16
ENDBRANCH   8   9
ENDBRANCH   7   8
ENDBRANCH   6   7
ENDBRANCH   4   5
TORSDOF 10
ENDMDL
MODEL 3
REMARK VINA RESULT: -7.743206029      2.471      3.732
REMARK  10 active torsions:
REMARK  status: ('A' for Active; 'I' for Inactive)
REMARK    1  A    between atoms: C4_4  and  C5_5 
REMARK    2  A    between atoms: C6_6  and  C7_7 
REMARK    3  A    between atoms: C7_7  and  O1_8 
REMARK    4  A    between atoms: O1_8  and  C8_9 
REMARK    5  A    between atoms: C13_15  and  C14_16 
REMARK    6  A    between atoms: C14_16  and  C15_17 
REMARK    7  A    between atoms: C15_17  and  O3_19 
REMARK    8  A    between atoms: O3_19  and  C16_20 
REMARK    9  A    between atoms: C16_20  and  C17_21 
REMARK       I    between atoms: N1_23  and  C18_24 
REMARK   10  A    between atoms: C18_24  and  C19_26 
ROOT
HETATM    1  C1  UNL     1       6.935  21.662  56.796  1.00  0.00     0.027 C 
HETATM    2  C2  UNL     1       6.054  21.413  56.011  1.00  0.00    -0.025 C 
HETATM    3  C3  UNL     1       5.030  21.117  55.063  1.00  0.00    -0.002 C 
HETATM    4  C4  UNL     1       4.176  20.850  54.255  1.00  0.00    -0.001 C 
ENDROOT
BRANCH   4   5
HETATM    5  C5  UNL     1       3.185  20.516  53.294  1.00  0.00    -0.012 C 
HETATM    6  C6  UNL     1       2.354  20.214  52.470  1.00  0.00    -0.066 C 
BRANCH   6   7
HETATM    7  C7  UNL     1       1.341  19.817  51.464  1.00  0.00     0.270 C 
BRANCH   7   8
HETATM    8  O1  UNL     1       1.878  18.728  50.725  1.00  0.00    -0.339 OA
BRANCH   8   9
HETATM    9  C8  UNL     1       1.794  18.780  49.348  1.00  0.00     0.076 A 
HETATM   10  C9  UNL     1       0.579  18.877  48.660  1.00  0.00     0.039 A 
HETATM   11  C10 UNL     1       0.585  18.923  47.285  1.00  0.00     0.022 A 
HETATM   12  C11 UNL     1       1.760  18.875  46.582  1.00  0.00     0.011 A 
HETATM   13 BR1  UNL     1       1.765  18.940  44.689  1.00  0.00    -0.051 Br
HETATM   14  C12 UNL     1       2.965  18.778  47.265  1.00  0.00     0.029 A 
HETATM   15  C13 UNL     1       2.994  18.731  48.635  1.00  0.00    -0.014 A 
BRANCH  15  16
HETATM   16  C14 UNL     1       4.254  18.631  49.381  1.00  0.00     0.152 C 
BRANCH  16  17
HETATM   17  C15 UNL     1       4.959  19.962  49.507  1.00  0.00     0.263 C 
HETATM   18  O2  UNL     1       4.311  20.996  49.783  1.00  0.00    -0.265 OA
BRANCH  17  19
HETATM   19  O3  UNL     1       6.306  20.085  49.327  1.00  0.00    -0.317 OA
BRANCH  19  20
HETATM   20  C16 UNL     1       7.328  20.286  50.230  1.00  0.00     0.237 C 
BRANCH  20  21
HETATM   21  C17 UNL     1       8.724  20.383  49.716  1.00  0.00     0.308 A 
HETATM   22  O4  UNL     1       9.011  20.395  48.402  1.00  0.00    -0.242 OA
HETATM   23  N1  UNL     1       9.367  21.542  49.310  1.00  0.00    -0.179 N 
HETATM   24  C18 UNL     1      10.037  22.752  48.887  1.00  0.00     0.346 C 
HETATM   25  O5  UNL     1      10.253  23.593  49.780  1.00  0.00    -0.258 OA
BRANCH  24  26
HETATM   26  C19 UNL     1      10.449  23.017  47.533  1.00  0.00     0.272 C 
HETATM   27  O6  UNL     1      11.217  22.161  46.964  1.00  0.00    -0.640 OA
HETATM   28  O7  UNL     1      10.046  24.138  46.847  1.00  0.00    -0.640 OA
ENDBRANCH  24  26
ENDBRANCH  20  21
ENDBRANCH  19  20
ENDBRANCH  17  19
ENDBRANCH  16  17
ENDBRANCH  15  16
ENDBRANCH   8   9
ENDBRANCH   7   8
ENDBRANCH   6   7
ENDBRANCH   4   5
TORSDOF 10
ENDMDL
MODEL 4
REMARK VINA RESULT: -7.710291998      2.687      3.937
REMARK  10 active torsions:
REMARK  status: ('A' for Active; 'I' for Inactive)
REMARK    1  A    between atoms: C4_4  and  C5_5 
REMARK    2  A    between atoms: C6_6  and  C7_7 
REMARK    3  A    between atoms: C7_7  and  O1_8 
REMARK    4  A    between atoms: O1_8  and  C8_9 
REMARK    5  A    between atoms: C13_15  and  C14_16 
REMARK    6  A    between atoms: C14_16  and  C15_17 
REMARK    7  A    between atoms: C15_17  and  O3_19 
REMARK    8  A    between atoms: O3_19  and  C16_20 
REMARK    9  A    between atoms: C16_20  and  C17_21 
REMARK       I    between atoms: N1_23  and  C18_24 
REMARK   10  A    between atoms: C18_24  and  C19_26 
ROOT
HETATM    1  C1  UNL     1       6.900  21.701  56.371  1.00  0.00     0.027 C 
HETATM    2  C2  UNL     1       6.053  21.423  55.560  1.00  0.00    -0.025 C 
HETATM    3  C3  UNL     1       5.065  21.077  54.589  1.00  0.00    -0.002 C 
HETATM    4  C4  UNL     1       4.234  20.764  53.775  1.00  0.00    -0.001 C 
ENDROOT
BRANCH   4   5
HETATM    5  C5  UNL     1       3.259  20.369  52.820  1.00  0.00    -0.012 C 
HETATM    6  C6  UNL     1       2.414  20.035  52.023  1.00  0.00    -0.066 C 
BRANCH   6   7
HETATM    7  C7  UNL     1       1.359  19.641  51.059  1.00  0.00     0.270 C 
BRANCH   7   8
HETATM    8  O1  UNL     1       1.931  18.696  50.164  1.00  0.00    -0.339 OA
BRANCH   8   9
HETATM    9  C8  UNL     1       1.669  18.845  48.817  1.00  0.00     0.076 A 
HETATM   10  C9  UNL     1       0.378  18.782  48.280  1.00  0.00     0.039 A 
HETATM   11  C10 UNL     1       0.204  18.940  46.924  1.00  0.00     0.022 A 
HETATM   12  C11 UNL     1       1.273  19.157  46.096  1.00  0.00     0.011 A 
HETATM   13 BR1  UNL     1       1.030  19.375  44.230  1.00  0.00    -0.051 Br
HETATM   14  C12 UNL     1       2.553  19.219  46.629  1.00  0.00     0.029 A 
HETATM   15  C13 UNL     1       2.761  19.067  47.976  1.00  0.00    -0.014 A 
BRANCH  15  16
HETATM   16  C14 UNL     1       4.104  19.130  48.566  1.00  0.00     0.152 C 
BRANCH  16  17
HETATM   17  C15 UNL     1       4.798  17.788  48.571  1.00  0.00     0.263 C 
HETATM   18  O2  UNL     1       4.893  17.122  47.516  1.00  0.00    -0.265 OA
BRANCH  17  19
HETATM   19  O3  UNL     1       5.339  17.260  49.707  1.00  0.00    -0.317 OA
BRANCH  19  20
HETATM   20  C16 UNL     1       5.291  17.685  51.018  1.00  0.00     0.237 C 
BRANCH  20  21
HETATM   21  C17 UNL     1       6.352  18.615  51.503  1.00  0.00     0.308 A 
HETATM   22  O4  UNL     1       7.500  18.814  50.833  1.00  0.00    -0.242 OA
HETATM   23  N1  UNL     1       6.528  19.931  51.107  1.00  0.00    -0.179 N 
HETATM   24  C18 UNL     1       6.712  21.305  50.693  1.00  0.00     0.346 C 
HETATM   25  O5  UNL     1       5.801  22.093  51.012  1.00  0.00    -0.258 OA
BRANCH  24  26
HETATM   26  C19 UNL     1       7.854  21.782  49.958  1.00  0.00     0.272 C 
HETATM   27  O6  UNL     1       8.352  22.914  50.296  1.00  0.00    -0.640 OA
HETATM   28  O7  UNL     1       8.414  21.068  48.924  1.00  0.00    -0.640 OA
ENDBRANCH  24  26
ENDBRANCH  20  21
ENDBRANCH  19  20
ENDBRANCH  17  19
ENDBRANCH  16  17
ENDBRANCH  15  16
ENDBRANCH   8   9
ENDBRANCH   7   8
ENDBRANCH   6   7
ENDBRANCH   4   5
TORSDOF 10
ENDMDL
MODEL 5
REMARK VINA RESULT: -7.568902744      1.160      1.277
REMARK  10 active torsions:
REMARK  status: ('A' for Active; 'I' for Inactive)
REMARK    1  A    between atoms: C4_4  and  C5_5 
REMARK    2  A    between atoms: C6_6  and  C7_7 
REMARK    3  A    between atoms: C7_7  and  O1_8 
REMARK    4  A    between atoms: O1_8  and  C8_9 
REMARK    5  A    between atoms: C13_15  and  C14_16 
REMARK    6  A    between atoms: C14_16  and  C15_17 
REMARK    7  A    between atoms: C15_17  and  O3_19 
REMARK    8  A    between atoms: O3_19  and  C16_20 
REMARK    9  A    between atoms: C16_20  and  C17_21 
REMARK       I    between atoms: N1_23  and  C18_24 
REMARK   10  A    between atoms: C18_24  and  C19_26 
ROOT
HETATM    1  C1  UNL     1       1.376  20.933  54.671  1.00  0.00     0.027 C 
HETATM    2  C2  UNL     1       1.335  20.531  53.535  1.00  0.00    -0.025 C 
HETATM    3  C3  UNL     1       1.298  20.078  52.183  1.00  0.00    -0.002 C 
HETATM    4  C4  UNL     1       1.288  19.700  51.038  1.00  0.00    -0.001 C 
ENDROOT
BRANCH   4   5
HETATM    5  C5  UNL     1       1.300  19.262  49.687  1.00  0.00    -0.012 C 
HETATM    6  C6  UNL     1       1.309  18.868  48.544  1.00  0.00    -0.066 C 
BRANCH   6   7
HETATM    7  C7  UNL     1       1.302  18.365  47.150  1.00  0.00     0.270 C 
BRANCH   7   8
HETATM    8  O1  UNL     1       2.605  18.568  46.618  1.00  0.00    -0.339 OA
BRANCH   8   9
HETATM    9  C8  UNL     1       3.429  17.467  46.498  1.00  0.00     0.076 A 
HETATM   10  C9  UNL     1       3.146  16.390  45.650  1.00  0.00     0.039 A 
HETATM   11  C10 UNL     1       4.021  15.330  45.591  1.00  0.00     0.022 A 
HETATM   12  C11 UNL     1       5.162  15.314  46.349  1.00  0.00     0.011 A 
HETATM   13 BR1  UNL     1       6.366  13.854  46.264  1.00  0.00    -0.051 Br
HETATM   14  C12 UNL     1       5.443  16.382  47.190  1.00  0.00     0.029 A 
HETATM   15  C13 UNL     1       4.592  17.454  47.272  1.00  0.00    -0.014 A 
BRANCH  15  16
HETATM   16  C14 UNL     1       4.866  18.597  48.152  1.00  0.00     0.152 C 
BRANCH  16  17
HETATM   17  C15 UNL     1       5.303  18.172  49.534  1.00  0.00     0.263 C 
HETATM   18  O2  UNL     1       4.467  17.732  50.354  1.00  0.00    -0.265 OA
BRANCH  17  19
HETATM   19  O3  UNL     1       6.606  18.250  49.935  1.00  0.00    -0.317 OA
BRANCH  19  20
HETATM   20  C16 UNL     1       7.163  18.373  51.190  1.00  0.00     0.237 C 
BRANCH  20  21
HETATM   21  C17 UNL     1       8.173  19.446  51.417  1.00  0.00     0.308 A 
HETATM   22  O4  UNL     1       9.330  19.505  50.735  1.00  0.00    -0.242 OA
HETATM   23  N1  UNL     1       8.309  20.611  50.678  1.00  0.00    -0.179 N 
HETATM   24  C18 UNL     1       8.450  21.826  49.906  1.00  0.00     0.346 C 
HETATM   25  O5  UNL     1       7.502  22.630  49.984  1.00  0.00    -0.258 OA
BRANCH  24  26
HETATM   26  C19 UNL     1       9.592  22.134  49.085  1.00  0.00     0.272 C 
HETATM   27  O6  UNL     1      10.310  23.144  49.414  1.00  0.00    -0.640 OA
HETATM   28  O7  UNL     1       9.926  21.387  47.980  1.00  0.00    -0.640 OA
ENDBRANCH  24  26
ENDBRANCH  20  21
ENDBRANCH  19  20
ENDBRANCH  17  19
ENDBRANCH  16  17
ENDBRANCH  15  16
ENDBRANCH   8   9
ENDBRANCH   7   8
ENDBRANCH   6   7
ENDBRANCH   4   5
TORSDOF 10
ENDMDL
