MODEL 1
REMARK VINA RESULT: -10.465574755      0.000      0.000
REMARK  8 active torsions:
REMARK  status: ('A' for Active; 'I' for Inactive)
REMARK    1  A    between atoms: N1_3  and  O1_4 
REMARK    2  A    between atoms: C4_7  and  C5_8 
REMARK       I    between atoms: C5_8  and  N2_10 
REMARK    3  A    between atoms: N2_10  and  C6_11 
REMARK    4  A    between atoms: C6_11  and  C7_12 
REMARK    5  A    between atoms: C12_17  and  O3_18 
REMARK    6  A    between atoms: O3_18  and  C13_19 
REMARK    7  A    between atoms: C13_19  and  C14_20 
REMARK    8  A    between atoms: N4_32  and  O5_33 
ROOT
HETATM    1  C1  UNL     1      10.711  22.976  46.835  1.00  0.00     0.094 C 
HETATM    2  C2  UNL     1       9.922  22.545  48.002  1.00  0.00     0.134 A 
HETATM    3  N1  UNL     1       8.955  23.386  48.498  1.00  0.00    -0.221 N 
HETATM    4  C3  UNL     1       8.243  23.018  49.556  1.00  0.00     0.146 A 
HETATM    5  C4  UNL     1       8.502  21.772  50.136  1.00  0.00     0.104 A 
HETATM    6  C21 UNL     1       9.438  20.954  49.652  1.00  0.00     0.162 A 
HETATM    7  C22 UNL     1       9.751  19.663  50.271  1.00  0.00     0.121 C 
HETATM    8  N3  UNL     1       9.951  18.674  50.755  1.00  0.00    -0.190 NA
HETATM    9  N4  UNL     1      10.149  21.378  48.552  1.00  0.00    -0.199 N 
ENDROOT
BRANCH   5  10
HETATM   10  C5  UNL     1       7.614  21.285  51.236  1.00  0.00     0.330 C 
HETATM   11  O2  UNL     1       7.740  21.990  52.287  1.00  0.00    -0.251 OA
HETATM   12  N2  UNL     1       6.798  20.231  51.059  1.00  0.00    -0.378 NA
BRANCH  12  13
HETATM   13  C6  UNL     1       5.948  19.134  50.878  1.00  0.00     0.202 C 
BRANCH  13  14
HETATM   14  C7  UNL     1       4.511  19.590  50.894  1.00  0.00     0.046 C 
HETATM   15  C8  UNL     1       4.246  20.523  51.889  1.00  0.00     0.018 C 
HETATM   16  C9  UNL     1       3.062  20.560  52.662  1.00  0.00     0.001 C 
HETATM   17  C10 UNL     1       1.825  19.953  52.335  1.00  0.00     0.003 C 
HETATM   18  C11 UNL     1       1.502  19.481  51.038  1.00  0.00     0.041 C 
HETATM   19  C12 UNL     1       2.256  18.898  50.078  1.00  0.00     0.120 C 
HETATM   20  C20 UNL     1       3.643  19.062  49.959  1.00  0.00     0.217 C 
HETATM   21  O4  UNL     1       4.165  18.690  48.904  1.00  0.00    -0.284 OA
BRANCH  19  22
HETATM   22  O3  UNL     1       1.611  18.078  49.122  1.00  0.00    -0.343 OA
BRANCH  22  23
HETATM   23  C13 UNL     1       0.702  18.732  48.293  1.00  0.00     0.217 C 
BRANCH  23  24
HETATM   24  C14 UNL     1       1.079  18.786  46.846  1.00  0.00     0.004 A 
HETATM   25  C15 UNL     1       2.273  18.432  46.288  1.00  0.00     0.012 A 
HETATM   26  C16 UNL     1       2.508  18.496  44.902  1.00  0.00     0.001 A 
HETATM   27  C17 UNL     1       1.499  18.936  44.057  1.00  0.00     0.003 A 
HETATM   28  C18 UNL     1       0.306  19.290  44.635  1.00  0.00     0.043 A 
HETATM   29  C19 UNL     1       0.074  19.227  45.975  1.00  0.00     0.124 A 
HETATM   30  F1  UNL     1      -1.127  19.574  46.499  1.00  0.00    -0.205 F 
ENDBRANCH  23  24
ENDBRANCH  22  23
ENDBRANCH  19  22
ENDBRANCH  13  14
ENDBRANCH  12  13
ENDBRANCH   5  10
BRANCH   9  31
HETATM   31  O5  UNL     1      11.132  20.514  48.092  1.00  0.00    -0.280 OA
ATOM     32  H5  UNL     1      10.931  19.668  47.709  1.00  0.00     0.245 HD
ENDBRANCH   9  31
BRANCH   3  33
HETATM   33  O1  UNL     1       8.739  24.611  47.871  1.00  0.00    -0.282 OA
ATOM     34  H1  UNL     1       7.850  24.867  47.652  1.00  0.00     0.245 HD
ENDBRANCH   3  33
TORSDOF 8
ENDMDL
MODEL 2
REMARK VINA RESULT: -10.010916090      1.600      2.180
REMARK  8 active torsions:
REMARK  status: ('A' for Active; 'I' for Inactive)
REMARK    1  A    between atoms: N1_3  and  O1_4 
REMARK    2  A    between atoms: C4_7  and  C5_8 
REMARK       I    between atoms: C5_8  and  N2_10 
REMARK    3  A    between atoms: N2_10  and  C6_11 
REMARK    4  A    between atoms: C6_11  and  C7_12 
REMARK    5  A    between atoms: C12_17  and  O3_18 
REMARK    6  A    between atoms: O3_18  and  C13_19 
REMARK    7  A    between atoms: C13_19  and  C14_20 
REMARK    8  A    between atoms: N4_32  and  O5_33 
ROOT
HETATM    1  C1  UNL     1      10.736  22.778  46.520  1.00  0.00     0.094 C 
HETATM    2  C2  UNL     1       9.943  22.563  47.743  1.00  0.00     0.134 A 
HETATM    3  N1  UNL     1       9.086  23.551  48.163  1.00  0.00    -0.221 N 
HETATM    4  C3  UNL     1       8.373  23.377  49.269  1.00  0.00     0.146 A 
HETATM    5  C4  UNL     1       8.519  22.181  49.978  1.00  0.00     0.104 A 
HETATM    6  C21 UNL     1       9.349  21.220  49.568  1.00  0.00     0.162 A 
HETATM    7  C22 UNL     1       9.545  19.977  50.320  1.00  0.00     0.121 C 
HETATM    8  N3  UNL     1       9.656  19.030  50.906  1.00  0.00    -0.190 NA
HETATM    9  N4  UNL     1      10.065  21.445  48.414  1.00  0.00    -0.199 N 
ENDROOT
BRANCH   5  10
HETATM   10  C5  UNL     1       7.620  21.914  51.143  1.00  0.00     0.330 C 
HETATM   11  O2  UNL     1       8.237  22.036  52.248  1.00  0.00    -0.251 OA
HETATM   12  N2  UNL     1       6.325  21.598  50.967  1.00  0.00    -0.378 NA
BRANCH  12  13
HETATM   13  C6  UNL     1       4.977  21.270  50.787  1.00  0.00     0.202 C 
BRANCH  13  14
HETATM   14  C7  UNL     1       4.790  19.779  50.914  1.00  0.00     0.046 C 
HETATM   15  C8  UNL     1       5.602  19.210  51.887  1.00  0.00     0.018 C 
HETATM   16  C9  UNL     1       6.248  17.958  51.764  1.00  0.00     0.001 C 
HETATM   17  C10 UNL     1       5.906  16.920  50.863  1.00  0.00     0.003 C 
HETATM   18  C11 UNL     1       4.673  16.862  50.166  1.00  0.00     0.041 C 
HETATM   19  C12 UNL     1       3.888  17.831  49.642  1.00  0.00     0.120 C 
HETATM   20  C20 UNL     1       3.873  19.158  50.090  1.00  0.00     0.217 C 
HETATM   21  O4  UNL     1       2.940  19.871  49.707  1.00  0.00    -0.284 OA
BRANCH  19  22
HETATM   22  O3  UNL     1       3.015  17.488  48.583  1.00  0.00    -0.343 OA
BRANCH  22  23
HETATM   23  C13 UNL     1       3.555  17.608  47.304  1.00  0.00     0.217 C 
BRANCH  23  24
HETATM   24  C14 UNL     1       2.702  18.338  46.314  1.00  0.00     0.004 A 
HETATM   25  C15 UNL     1       1.992  19.485  46.520  1.00  0.00     0.012 A 
HETATM   26  C16 UNL     1       1.244  20.104  45.502  1.00  0.00     0.001 A 
HETATM   27  C17 UNL     1       1.214  19.538  44.235  1.00  0.00     0.003 A 
HETATM   28  C18 UNL     1       1.931  18.384  44.046  1.00  0.00     0.043 A 
HETATM   29  C19 UNL     1       2.659  17.783  45.027  1.00  0.00     0.124 A 
HETATM   30  F1  UNL     1       3.364  16.651  44.790  1.00  0.00    -0.205 F 
ENDBRANCH  23  24
ENDBRANCH  22  23
ENDBRANCH  19  22
ENDBRANCH  13  14
ENDBRANCH  12  13
ENDBRANCH   5  10
BRANCH   9  31
HETATM   31  O5  UNL     1      10.937  20.435  48.033  1.00  0.00    -0.280 OA
ATOM     32  H5  UNL     1      10.663  19.530  47.938  1.00  0.00     0.245 HD
ENDBRANCH   9  31
BRANCH   3  33
HETATM   33  O1  UNL     1       8.979  24.718  47.408  1.00  0.00    -0.282 OA
ATOM     34  H1  UNL     1       9.182  25.551  47.818  1.00  0.00     0.245 HD
ENDBRANCH   3  33
TORSDOF 8
ENDMDL
MODEL 3
REMARK VINA RESULT: -9.970811609      1.582      2.500
REMARK  8 active torsions:
REMARK  status: ('A' for Active; 'I' for Inactive)
REMARK    1  A    between atoms: N1_3  and  O1_4 
REMARK    2  A    between atoms: C4_7  and  C5_8 
REMARK       I    between atoms: C5_8  and  N2_10 
REMARK    3  A    between atoms: N2_10  and  C6_11 
REMARK    4  A    between atoms: C6_11  and  C7_12 
REMARK    5  A    between atoms: C12_17  and  O3_18 
REMARK    6  A    between atoms: O3_18  and  C13_19 
REMARK    7  A    between atoms: C13_19  and  C14_20 
REMARK    8  A    between atoms: N4_32  and  O5_33 
ROOT
HETATM    1  C1  UNL     1      10.210  23.444  47.969  1.00  0.00     0.094 C 
HETATM    2  C2  UNL     1       9.546  22.314  48.642  1.00  0.00     0.134 A 
HETATM    3  N1  UNL     1      10.088  21.057  48.521  1.00  0.00    -0.221 N 
HETATM    4  C3  UNL     1       9.495  20.026  49.111  1.00  0.00     0.146 A 
HETATM    5  C4  UNL     1       8.327  20.256  49.845  1.00  0.00     0.104 A 
HETATM    6  C21 UNL     1       7.804  21.477  49.965  1.00  0.00     0.162 A 
HETATM    7  C22 UNL     1       6.559  21.730  50.697  1.00  0.00     0.121 C 
HETATM    8  N3  UNL     1       5.618  21.893  51.280  1.00  0.00    -0.190 NA
HETATM    9  N4  UNL     1       8.455  22.515  49.338  1.00  0.00    -0.199 N 
ENDROOT
BRANCH   5  10
HETATM   10  C5  UNL     1       7.731  19.131  50.631  1.00  0.00     0.330 C 
HETATM   11  O2  UNL     1       8.082  19.177  51.852  1.00  0.00    -0.251 OA
HETATM   12  N2  UNL     1       6.922  18.227  50.051  1.00  0.00    -0.378 NA
BRANCH  12  13
HETATM   13  C6  UNL     1       6.081  17.284  49.451  1.00  0.00     0.202 C 
BRANCH  13  14
HETATM   14  C7  UNL     1       4.661  17.793  49.444  1.00  0.00     0.046 C 
HETATM   15  C8  UNL     1       4.472  18.889  50.278  1.00  0.00     0.018 C 
HETATM   16  C9  UNL     1       3.326  19.102  51.078  1.00  0.00     0.001 C 
HETATM   17  C10 UNL     1       2.056  18.499  50.907  1.00  0.00     0.003 C 
HETATM   18  C11 UNL     1       1.661  17.830  49.722  1.00  0.00     0.041 C 
HETATM   19  C12 UNL     1       2.351  17.064  48.846  1.00  0.00     0.120 C 
HETATM   20  C20 UNL     1       3.735  17.151  48.647  1.00  0.00     0.217 C 
HETATM   21  O4  UNL     1       4.198  16.587  47.651  1.00  0.00    -0.284 OA
BRANCH  19  22
HETATM   22  O3  UNL     1       1.637  16.122  48.068  1.00  0.00    -0.343 OA
BRANCH  22  23
HETATM   23  C13 UNL     1       0.544  16.633  47.370  1.00  0.00     0.217 C 
BRANCH  23  24
HETATM   24  C14 UNL     1       0.875  17.621  46.297  1.00  0.00     0.004 A 
HETATM   25  C15 UNL     1       1.705  17.439  45.230  1.00  0.00     0.012 A 
HETATM   26  C16 UNL     1       1.920  18.435  44.260  1.00  0.00     0.001 A 
HETATM   27  C17 UNL     1       1.273  19.657  44.380  1.00  0.00     0.003 A 
HETATM   28  C18 UNL     1       0.444  19.825  45.459  1.00  0.00     0.043 A 
HETATM   29  C19 UNL     1       0.231  18.863  46.399  1.00  0.00     0.124 A 
HETATM   30  F1  UNL     1      -0.609  19.069  47.442  1.00  0.00    -0.205 F 
ENDBRANCH  23  24
ENDBRANCH  22  23
ENDBRANCH  19  22
ENDBRANCH  13  14
ENDBRANCH  12  13
ENDBRANCH   5  10
BRANCH   9  31
HETATM   31  O5  UNL     1       7.868  23.766  49.463  1.00  0.00    -0.280 OA
ATOM     32  H5  UNL     1       8.356  24.536  49.730  1.00  0.00     0.245 HD
ENDBRANCH   9  31
BRANCH   3  33
HETATM   33  O1  UNL     1      11.257  20.894  47.782  1.00  0.00    -0.282 OA
ATOM     34  H1  UNL     1      12.095  21.022  48.211  1.00  0.00     0.245 HD
ENDBRANCH   3  33
TORSDOF 8
ENDMDL
MODEL 4
REMARK VINA RESULT: -9.967643084      1.431      1.626
REMARK  8 active torsions:
REMARK  status: ('A' for Active; 'I' for Inactive)
REMARK    1  A    between atoms: N1_3  and  O1_4 
REMARK    2  A    between atoms: C4_7  and  C5_8 
REMARK       I    between atoms: C5_8  and  N2_10 
REMARK    3  A    between atoms: N2_10  and  C6_11 
REMARK    4  A    between atoms: C6_11  and  C7_12 
REMARK    5  A    between atoms: C12_17  and  O3_18 
REMARK    6  A    between atoms: O3_18  and  C13_19 
REMARK    7  A    between atoms: C13_19  and  C14_20 
REMARK    8  A    between atoms: N4_32  and  O5_33 
ROOT
HETATM    1  C1  UNL     1       9.928  23.171  47.961  1.00  0.00     0.094 C 
HETATM    2  C2  UNL     1       9.267  22.153  48.797  1.00  0.00     0.134 A 
HETATM    3  N1  UNL     1       8.253  22.541  49.640  1.00  0.00    -0.221 N 
HETATM    4  C3  UNL     1       7.655  21.639  50.408  1.00  0.00     0.146 A 
HETATM    5  C4  UNL     1       8.079  20.308  50.332  1.00  0.00     0.104 A 
HETATM    6  C21 UNL     1       9.061  19.932  49.510  1.00  0.00     0.162 A 
HETATM    7  C22 UNL     1       9.545  18.549  49.446  1.00  0.00     0.121 C 
HETATM    8  N3  UNL     1       9.878  17.482  49.406  1.00  0.00    -0.190 NA
HETATM    9  N4  UNL     1       9.649  20.902  48.731  1.00  0.00    -0.199 N 
ENDROOT
BRANCH   5  10
HETATM   10  C5  UNL     1       7.321  19.261  51.083  1.00  0.00     0.330 C 
HETATM   11  O2  UNL     1       7.764  19.120  52.266  1.00  0.00    -0.251 OA
HETATM   12  N2  UNL     1       6.298  18.597  50.515  1.00  0.00    -0.378 NA
BRANCH  12  13
HETATM   13  C6  UNL     1       5.235  17.906  49.927  1.00  0.00     0.202 C 
BRANCH  13  14
HETATM   14  C7  UNL     1       3.992  18.760  49.948  1.00  0.00     0.046 C 
HETATM   15  C8  UNL     1       4.135  19.911  50.714  1.00  0.00     0.018 C 
HETATM   16  C9  UNL     1       3.130  20.452  51.548  1.00  0.00     0.001 C 
HETATM   17  C10 UNL     1       1.741  20.186  51.472  1.00  0.00     0.003 C 
HETATM   18  C11 UNL     1       1.120  19.578  50.353  1.00  0.00     0.041 C 
HETATM   19  C12 UNL     1       1.541  18.616  49.500  1.00  0.00     0.120 C 
HETATM   20  C20 UNL     1       2.888  18.334  49.237  1.00  0.00     0.217 C 
HETATM   21  O4  UNL     1       3.133  17.619  48.261  1.00  0.00    -0.284 OA
BRANCH  19  22
HETATM   22  O3  UNL     1       0.567  17.848  48.819  1.00  0.00    -0.343 OA
BRANCH  22  23
HETATM   23  C13 UNL     1      -0.212  18.552  47.903  1.00  0.00     0.217 C 
BRANCH  23  24
HETATM   24  C14 UNL     1       0.405  18.747  46.554  1.00  0.00     0.004 A 
HETATM   25  C15 UNL     1       0.651  19.929  45.919  1.00  0.00     0.012 A 
HETATM   26  C16 UNL     1       1.267  19.994  44.656  1.00  0.00     0.001 A 
HETATM   27  C17 UNL     1       1.643  18.821  44.016  1.00  0.00     0.003 A 
HETATM   28  C18 UNL     1       1.386  17.642  44.668  1.00  0.00     0.043 A 
HETATM   29  C19 UNL     1       0.793  17.574  45.891  1.00  0.00     0.124 A 
HETATM   30  F1  UNL     1       0.572  16.385  46.503  1.00  0.00    -0.205 F 
ENDBRANCH  23  24
ENDBRANCH  22  23
ENDBRANCH  19  22
ENDBRANCH  13  14
ENDBRANCH  12  13
ENDBRANCH   5  10
BRANCH   9  31
HETATM   31  O5  UNL     1      10.683  20.479  47.909  1.00  0.00    -0.280 OA
ATOM     32  H5  UNL     1      11.589  20.460  48.194  1.00  0.00     0.245 HD
ENDBRANCH   9  31
BRANCH   3  33
HETATM   33  O1  UNL     1       7.871  23.881  49.665  1.00  0.00    -0.282 OA
ATOM     34  H1  UNL     1       8.512  24.546  49.441  1.00  0.00     0.245 HD
ENDBRANCH   3  33
TORSDOF 8
ENDMDL
MODEL 5
REMARK VINA RESULT: -9.831630363      1.499      2.328
REMARK  8 active torsions:
REMARK  status: ('A' for Active; 'I' for Inactive)
REMARK    1  A    between atoms: N1_3  and  O1_4 
REMARK    2  A    between atoms: C4_7  and  C5_8 
REMARK       I    between atoms: C5_8  and  N2_10 
REMARK    3  A    between atoms: N2_10  and  C6_11 
REMARK    4  A    between atoms: C6_11  and  C7_12 
REMARK    5  A    between atoms: C12_17  and  O3_18 
REMARK    6  A    between atoms: O3_18  and  C13_19 
REMARK    7  A    between atoms: C13_19  and  C14_20 
REMARK    8  A    between atoms: N4_32  and  O5_33 
ROOT
HETATM    1  C1  UNL     1      10.163  22.869  48.774  1.00  0.00     0.094 C 
HETATM    2  C2  UNL     1       9.466  21.764  49.456  1.00  0.00     0.134 A 
HETATM    3  N1  UNL     1       9.476  20.516  48.881  1.00  0.00    -0.221 N 
HETATM    4  C3  UNL     1       8.844  19.512  49.477  1.00  0.00     0.146 A 
HETATM    5  C4  UNL     1       8.182  19.761  50.683  1.00  0.00     0.104 A 
HETATM    6  C21 UNL     1       8.175  20.972  51.243  1.00  0.00     0.162 A 
HETATM    7  C22 UNL     1       7.454  21.259  52.486  1.00  0.00     0.121 C 
HETATM    8  N3  UNL     1       6.910  21.441  53.447  1.00  0.00    -0.190 NA
HETATM    9  N4  UNL     1       8.847  21.980  50.590  1.00  0.00    -0.199 N 
ENDROOT
BRANCH   5  10
HETATM   10  C5  UNL     1       7.589  18.612  51.435  1.00  0.00     0.330 C 
HETATM   11  O2  UNL     1       8.287  18.308  52.453  1.00  0.00    -0.251 OA
HETATM   12  N2  UNL     1       6.446  18.028  51.031  1.00  0.00    -0.378 NA
BRANCH  12  13
HETATM   13  C6  UNL     1       5.259  17.420  50.612  1.00  0.00     0.202 C 
BRANCH  13  14
HETATM   14  C7  UNL     1       4.137  18.428  50.613  1.00  0.00     0.046 C 
HETATM   15  C8  UNL     1       4.378  19.510  51.450  1.00  0.00     0.018 C 
HETATM   16  C9  UNL     1       3.399  20.137  52.255  1.00  0.00     0.001 C 
HETATM   17  C10 UNL     1       1.995  20.060  52.087  1.00  0.00     0.003 C 
HETATM   18  C11 UNL     1       1.373  19.595  50.901  1.00  0.00     0.041 C 
HETATM   19  C12 UNL     1       1.721  18.629  50.020  1.00  0.00     0.120 C 
HETATM   20  C20 UNL     1       3.035  18.186  49.817  1.00  0.00     0.217 C 
HETATM   21  O4  UNL     1       3.248  17.494  48.817  1.00  0.00    -0.284 OA
BRANCH  19  22
HETATM   22  O3  UNL     1       0.702  18.030  49.242  1.00  0.00    -0.343 OA
BRANCH  22  23
HETATM   23  C13 UNL     1       0.037  18.889  48.370  1.00  0.00     0.217 C 
BRANCH  23  24
HETATM   24  C14 UNL     1       0.495  18.838  46.947  1.00  0.00     0.004 A 
HETATM   25  C15 UNL     1       1.545  19.507  46.390  1.00  0.00     0.012 A 
HETATM   26  C16 UNL     1       1.906  19.358  45.038  1.00  0.00     0.001 A 
HETATM   27  C17 UNL     1       1.174  18.504  44.225  1.00  0.00     0.003 A 
HETATM   28  C18 UNL     1       0.120  17.840  44.801  1.00  0.00     0.043 A 
HETATM   29  C19 UNL     1      -0.231  17.979  46.108  1.00  0.00     0.124 A 
HETATM   30  F1  UNL     1      -1.272  17.291  46.637  1.00  0.00    -0.205 F 
ENDBRANCH  23  24
ENDBRANCH  22  23
ENDBRANCH  19  22
ENDBRANCH  13  14
ENDBRANCH  12  13
ENDBRANCH   5  10
BRANCH   9  31
HETATM   31  O5  UNL     1       8.797  23.231  51.187  1.00  0.00    -0.280 OA
ATOM     32  H5  UNL     1       9.178  24.005  50.787  1.00  0.00     0.245 HD
ENDBRANCH   9  31
BRANCH   3  33
HETATM   33  O1  UNL     1      10.160  20.331  47.681  1.00  0.00    -0.282 OA
ATOM     34  H1  UNL     1      10.025  19.527  47.194  1.00  0.00     0.245 HD
ENDBRANCH   3  33
TORSDOF 8
ENDMDL
