MODEL 1
REMARK VINA RESULT: -8.375623061      0.000      0.000
REMARK  8 active torsions:
REMARK  status: ('A' for Active; 'I' for Inactive)
REMARK    1  A    between atoms: C2_2  and  C3_3 
REMARK    2  A    between atoms: C5_5  and  C6_6 
REMARK    3  A    between atoms: C6_6  and  S1_7 
REMARK    4  A    between atoms: S1_7  and  C7_8 
REMARK    5  A    between atoms: C7_8  and  C8_9 
REMARK       I    between atoms: C8_9  and  N1_11 
REMARK    6  A    between atoms: N1_11  and  C9_12 
REMARK       I    between atoms: N1_11  and  C16_25 
REMARK    7  A    between atoms: C9_12  and  C10_13 
REMARK       I    between atoms: C10_13  and  N2_15 
REMARK    8  A    between atoms: N2_15  and  C11_17 
ROOT
HETATM    1  C8  UNL     1       5.735  18.604  49.639  1.00  0.00     0.238 C 
HETATM    2  O1  UNL     1       6.129  17.762  48.798  1.00  0.00    -0.272 OA
HETATM    3  N1  UNL     1       6.512  18.810  50.805  1.00  0.00    -0.253 N 
HETATM    4  C16 UNL     1       7.700  18.067  50.989  1.00  0.00     0.293 C 
HETATM    5  O3  UNL     1       8.051  17.242  50.128  1.00  0.00    -0.629 OA
HETATM    6  O4  UNL     1       8.453  18.276  52.130  1.00  0.00    -0.629 OA
ENDROOT
BRANCH   3   7
HETATM    7  C9  UNL     1       6.088  19.785  51.813  1.00  0.00     0.241 C 
BRANCH   7   8
HETATM    8  C10 UNL     1       6.653  21.132  51.494  1.00  0.00     0.241 C 
HETATM    9  O2  UNL     1       5.850  22.070  51.265  1.00  0.00    -0.271 OA
HETATM   10  N2  UNL     1       8.029  21.391  51.439  1.00  0.00    -0.312 N 
ATOM     11  H2  UNL     1       8.542  21.341  52.318  1.00  0.00     0.170 HD
BRANCH  10  12
HETATM   12  C11 UNL     1       8.702  21.682  50.395  1.00  0.00     0.107 A 
HETATM   13  C12 UNL     1       9.605  20.784  49.888  1.00  0.00     0.050 A 
HETATM   14  C13 UNL     1      10.334  21.105  48.754  1.00  0.00     0.024 A 
HETATM   15  C14 UNL     1      10.134  22.339  48.151  1.00  0.00     0.026 A 
HETATM   16 BR1  UNL     1      11.133  22.785  46.592  1.00  0.00    -0.050 Br
HETATM   17  C15 UNL     1       9.215  23.216  48.691  1.00  0.00     0.108 A 
HETATM   18  N3  UNL     1       8.523  22.863  49.800  1.00  0.00    -0.351 N 
ATOM     19  H3  UNL     1       7.846  23.519  50.190  1.00  0.00     0.166 HD
ENDBRANCH  10  12
ENDBRANCH   7   8
ENDBRANCH   3   7
BRANCH   1  20
HETATM   20  C7  UNL     1       4.488  19.380  49.437  1.00  0.00     0.177 C 
BRANCH  20  21
HETATM   21  S1  UNL     1       3.082  18.230  49.339  1.00  0.00    -0.153 SA
BRANCH  21  22
HETATM   22  C6  UNL     1       1.509  19.109  49.439  1.00  0.00     0.141 C 
BRANCH  22  23
HETATM   23  C5  UNL     1       0.840  19.063  48.097  1.00  0.00     0.087 A 
HETATM   24  C4  UNL     1       1.419  19.062  46.845  1.00  0.00     0.062 A 
HETATM   25  C3  UNL     1       0.411  19.011  45.903  1.00  0.00     0.034 A 
HETATM   26  N4  UNL     1      -0.728  18.984  46.619  1.00  0.00    -0.265 N 
HETATM   27  O5  UNL     1      -0.467  19.015  47.889  1.00  0.00    -0.241 OA
ATOM     28  H4  UNL     1      -1.665  18.944  46.219  1.00  0.00     0.194 HD
BRANCH  25  29
HETATM   29  C2  UNL     1       0.559  18.991  44.410  1.00  0.00     0.054 C 
HETATM   30  C1  UNL     1       1.526  20.021  43.932  1.00  0.00     0.011 C 
ENDBRANCH  25  29
ENDBRANCH  22  23
ENDBRANCH  21  22
ENDBRANCH  20  21
ENDBRANCH   1  20
TORSDOF 8
ENDMDL
MODEL 2
REMARK VINA RESULT: -8.242623732      2.065      2.527
REMARK  8 active torsions:
REMARK  status: ('A' for Active; 'I' for Inactive)
REMARK    1  A    between atoms: C2_2  and  C3_3 
REMARK    2  A    between atoms: C5_5  and  C6_6 
REMARK    3  A    between atoms: C6_6  and  S1_7 
REMARK    4  A    between atoms: S1_7  and  C7_8 
REMARK    5  A    between atoms: C7_8  and  C8_9 
REMARK       I    between atoms: C8_9  and  N1_11 
REMARK    6  A    between atoms: N1_11  and  C9_12 
REMARK       I    between atoms: N1_11  and  C16_25 
REMARK    7  A    between atoms: C9_12  and  C10_13 
REMARK       I    between atoms: C10_13  and  N2_15 
REMARK    8  A    between atoms: N2_15  and  C11_17 
ROOT
HETATM    1  C8  UNL     1       3.564  20.323  52.147  1.00  0.00     0.238 C 
HETATM    2  O1  UNL     1       2.522  20.596  52.786  1.00  0.00    -0.272 OA
HETATM    3  N1  UNL     1       4.815  20.474  52.795  1.00  0.00    -0.253 N 
HETATM    4  C16 UNL     1       4.854  20.926  54.134  1.00  0.00     0.293 C 
HETATM    5  O3  UNL     1       3.793  21.186  54.728  1.00  0.00    -0.629 OA
HETATM    6  O4  UNL     1       6.079  21.071  54.759  1.00  0.00    -0.629 OA
ENDROOT
BRANCH   3   7
HETATM    7  C9  UNL     1       6.058  20.166  52.084  1.00  0.00     0.241 C 
BRANCH   7   8
HETATM    8  C10 UNL     1       6.688  21.425  51.581  1.00  0.00     0.241 C 
HETATM    9  O2  UNL     1       5.932  22.353  51.202  1.00  0.00    -0.271 OA
HETATM   10  N2  UNL     1       8.075  21.614  51.516  1.00  0.00    -0.312 N 
ATOM     11  H2  UNL     1       8.574  21.673  52.403  1.00  0.00     0.170 HD
BRANCH  10  12
HETATM   12  C11 UNL     1       8.773  21.719  50.454  1.00  0.00     0.107 A 
HETATM   13  C12 UNL     1       9.477  20.640  49.986  1.00  0.00     0.050 A 
HETATM   14  C13 UNL     1      10.235  20.759  48.832  1.00  0.00     0.024 A 
HETATM   15  C14 UNL     1      10.267  21.978  48.170  1.00  0.00     0.026 A 
HETATM   16 BR1  UNL     1      11.307  22.148  46.583  1.00  0.00    -0.050 Br
HETATM   17  C15 UNL     1       9.546  23.042  48.672  1.00  0.00     0.108 A 
HETATM   18  N3  UNL     1       8.817  22.883  49.802  1.00  0.00    -0.351 N 
ATOM     19  H3  UNL     1       8.287  23.675  50.164  1.00  0.00     0.166 HD
ENDBRANCH  10  12
ENDBRANCH   7   8
ENDBRANCH   3   7
BRANCH   1  20
HETATM   20  C7  UNL     1       3.515  19.848  50.744  1.00  0.00     0.177 C 
BRANCH  20  21
HETATM   21  S1  UNL     1       1.782  19.548  50.280  1.00  0.00    -0.153 SA
BRANCH  21  22
HETATM   22  C6  UNL     1       1.631  18.098  49.215  1.00  0.00     0.141 C 
BRANCH  22  23
HETATM   23  C5  UNL     1       0.920  18.493  47.954  1.00  0.00     0.087 A 
HETATM   24  C4  UNL     1       1.402  18.507  46.662  1.00  0.00     0.062 A 
HETATM   25  C3  UNL     1       0.390  18.943  45.829  1.00  0.00     0.034 A 
HETATM   26  N4  UNL     1      -0.654  19.173  46.646  1.00  0.00    -0.265 N 
HETATM   27  O5  UNL     1      -0.335  18.909  47.875  1.00  0.00    -0.241 OA
ATOM     28  H4  UNL     1      -1.568  19.507  46.341  1.00  0.00     0.194 HD
BRANCH  25  29
HETATM   29  C2  UNL     1       0.449  19.119  44.340  1.00  0.00     0.054 C 
HETATM   30  C1  UNL     1       1.596  19.976  43.924  1.00  0.00     0.011 C 
ENDBRANCH  25  29
ENDBRANCH  22  23
ENDBRANCH  21  22
ENDBRANCH  20  21
ENDBRANCH   1  20
TORSDOF 8
ENDMDL
MODEL 3
REMARK VINA RESULT: -8.076321042      0.773      1.083
REMARK  8 active torsions:
REMARK  status: ('A' for Active; 'I' for Inactive)
REMARK    1  A    between atoms: C2_2  and  C3_3 
REMARK    2  A    between atoms: C5_5  and  C6_6 
REMARK    3  A    between atoms: C6_6  and  S1_7 
REMARK    4  A    between atoms: S1_7  and  C7_8 
REMARK    5  A    between atoms: C7_8  and  C8_9 
REMARK       I    between atoms: C8_9  and  N1_11 
REMARK    6  A    between atoms: N1_11  and  C9_12 
REMARK       I    between atoms: N1_11  and  C16_25 
REMARK    7  A    between atoms: C9_12  and  C10_13 
REMARK       I    between atoms: C10_13  and  N2_15 
REMARK    8  A    between atoms: N2_15  and  C11_17 
ROOT
HETATM    1  C8  UNL     1       5.493  18.626  50.558  1.00  0.00     0.238 C 
HETATM    2  O1  UNL     1       5.523  17.709  49.705  1.00  0.00    -0.272 OA
HETATM    3  N1  UNL     1       6.696  18.973  51.221  1.00  0.00    -0.253 N 
HETATM    4  C16 UNL     1       7.887  18.281  50.906  1.00  0.00     0.293 C 
HETATM    5  O3  UNL     1       7.869  17.377  50.052  1.00  0.00    -0.629 OA
HETATM    6  O4  UNL     1       9.057  18.627  51.558  1.00  0.00    -0.629 OA
ENDROOT
BRANCH   3   7
HETATM    7  C9  UNL     1       6.705  20.039  52.226  1.00  0.00     0.241 C 
BRANCH   7   8
HETATM    8  C10 UNL     1       7.066  21.342  51.587  1.00  0.00     0.241 C 
HETATM    9  O2  UNL     1       6.135  22.071  51.165  1.00  0.00    -0.271 OA
HETATM   10  N2  UNL     1       8.388  21.781  51.440  1.00  0.00    -0.312 N 
ATOM     11  H2  UNL     1       8.893  22.016  52.294  1.00  0.00     0.170 HD
BRANCH  10  12
HETATM   12  C11 UNL     1       9.022  21.916  50.341  1.00  0.00     0.107 A 
HETATM   13  C12 UNL     1       9.142  23.155  49.765  1.00  0.00     0.050 A 
HETATM   14  C13 UNL     1       9.830  23.296  48.572  1.00  0.00     0.024 A 
HETATM   15  C14 UNL     1      10.388  22.173  47.978  1.00  0.00     0.026 A 
HETATM   16 BR1  UNL     1      11.336  22.361  46.336  1.00  0.00    -0.050 Br
HETATM   17  C15 UNL     1      10.246  20.943  48.588  1.00  0.00     0.108 A 
HETATM   18  N3  UNL     1       9.566  20.848  49.755  1.00  0.00    -0.351 N 
ATOM     19  H3  UNL     1       9.468  19.934  50.198  1.00  0.00     0.166 HD
ENDBRANCH  10  12
ENDBRANCH   7   8
ENDBRANCH   3   7
BRANCH   1  20
HETATM   20  C7  UNL     1       4.239  19.347  50.881  1.00  0.00     0.177 C 
BRANCH  20  21
HETATM   21  S1  UNL     1       3.277  19.578  49.355  1.00  0.00    -0.153 SA
BRANCH  21  22
HETATM   22  C6  UNL     1       1.645  18.819  49.489  1.00  0.00     0.141 C 
BRANCH  22  23
HETATM   23  C5  UNL     1       0.946  18.930  48.166  1.00  0.00     0.087 A 
HETATM   24  C4  UNL     1       1.489  18.881  46.899  1.00  0.00     0.062 A 
HETATM   25  C3  UNL     1       0.464  19.027  45.985  1.00  0.00     0.034 A 
HETATM   26  N4  UNL     1      -0.648  19.158  46.731  1.00  0.00    -0.265 N 
HETATM   27  O5  UNL     1      -0.356  19.100  47.993  1.00  0.00    -0.241 OA
ATOM     28  H4  UNL     1      -1.588  19.284  46.356  1.00  0.00     0.194 HD
BRANCH  25  29
HETATM   29  C2  UNL     1       0.573  19.037  44.488  1.00  0.00     0.054 C 
HETATM   30  C1  UNL     1       1.552  20.054  44.006  1.00  0.00     0.011 C 
ENDBRANCH  25  29
ENDBRANCH  22  23
ENDBRANCH  21  22
ENDBRANCH  20  21
ENDBRANCH   1  20
TORSDOF 8
ENDMDL
MODEL 4
REMARK VINA RESULT: -8.072686301      3.425      7.861
REMARK  8 active torsions:
REMARK  status: ('A' for Active; 'I' for Inactive)
REMARK    1  A    between atoms: C2_2  and  C3_3 
REMARK    2  A    between atoms: C5_5  and  C6_6 
REMARK    3  A    between atoms: C6_6  and  S1_7 
REMARK    4  A    between atoms: S1_7  and  C7_8 
REMARK    5  A    between atoms: C7_8  and  C8_9 
REMARK       I    between atoms: C8_9  and  N1_11 
REMARK    6  A    between atoms: N1_11  and  C9_12 
REMARK       I    between atoms: N1_11  and  C16_25 
REMARK    7  A    between atoms: C9_12  and  C10_13 
REMARK       I    between atoms: C10_13  and  N2_15 
REMARK    8  A    between atoms: N2_15  and  C11_17 
ROOT
HETATM    1  C8  UNL     1       6.240  21.009  51.128  1.00  0.00     0.238 C 
HETATM    2  O1  UNL     1       5.815  22.186  51.190  1.00  0.00    -0.272 OA
HETATM    3  N1  UNL     1       5.299  19.951  51.067  1.00  0.00    -0.253 N 
HETATM    4  C16 UNL     1       3.917  20.250  51.078  1.00  0.00     0.293 C 
HETATM    5  O3  UNL     1       3.542  21.433  51.140  1.00  0.00    -0.629 OA
HETATM    6  O4  UNL     1       3.006  19.212  51.017  1.00  0.00    -0.629 OA
ENDROOT
BRANCH   3   7
HETATM    7  C9  UNL     1       5.753  18.560  50.993  1.00  0.00     0.241 C 
BRANCH   7   8
HETATM    8  C10 UNL     1       5.825  18.119  49.566  1.00  0.00     0.241 C 
HETATM    9  O2  UNL     1       6.900  18.308  48.944  1.00  0.00    -0.271 OA
HETATM   10  N2  UNL     1       4.755  17.509  48.899  1.00  0.00    -0.312 N 
ATOM     11  H2  UNL     1       4.487  16.577  49.214  1.00  0.00     0.170 HD
BRANCH  10  12
HETATM   12  C11 UNL     1       4.083  18.007  47.936  1.00  0.00     0.107 A 
HETATM   13  C12 UNL     1       4.541  17.890  46.649  1.00  0.00     0.050 A 
HETATM   14  C13 UNL     1       3.807  18.433  45.605  1.00  0.00     0.024 A 
HETATM   15  C14 UNL     1       2.618  19.089  45.888  1.00  0.00     0.026 A 
HETATM   16 BR1  UNL     1       1.606  19.837  44.457  1.00  0.00    -0.050 Br
HETATM   17  C15 UNL     1       2.191  19.186  47.196  1.00  0.00     0.108 A 
HETATM   18  N3  UNL     1       2.936  18.641  48.186  1.00  0.00    -0.351 N 
ATOM     19  H3  UNL     1       2.611  18.718  49.150  1.00  0.00     0.166 HD
ENDBRANCH  10  12
ENDBRANCH   7   8
ENDBRANCH   3   7
BRANCH   1  20
HETATM   20  C7  UNL     1       7.691  20.705  51.115  1.00  0.00     0.177 C 
BRANCH  20  21
HETATM   21  S1  UNL     1       8.497  21.710  49.831  1.00  0.00    -0.153 SA
BRANCH  21  22
HETATM   22  C6  UNL     1       9.992  20.908  49.216  1.00  0.00     0.141 C 
BRANCH  22  23
HETATM   23  C5  UNL     1      10.579  21.749  48.119  1.00  0.00     0.087 A 
HETATM   24  C4  UNL     1      10.270  23.047  47.771  1.00  0.00     0.062 A 
HETATM   25  C3  UNL     1      11.065  23.407  46.700  1.00  0.00     0.034 A 
HETATM   26  N4  UNL     1      11.814  22.319  46.447  1.00  0.00    -0.265 N 
HETATM   27  O5  UNL     1      11.524  21.365  47.275  1.00  0.00    -0.241 OA
ATOM     28  H4  UNL     1      12.514  22.254  45.707  1.00  0.00     0.194 HD
BRANCH  25  29
HETATM   29  C2  UNL     1      11.083  24.724  45.981  1.00  0.00     0.054 C 
HETATM   30  C1  UNL     1       9.895  25.560  46.319  1.00  0.00     0.011 C 
ENDBRANCH  25  29
ENDBRANCH  22  23
ENDBRANCH  21  22
ENDBRANCH  20  21
ENDBRANCH   1  20
TORSDOF 8
ENDMDL
MODEL 5
REMARK VINA RESULT: -8.023457131      3.970      7.885
REMARK  8 active torsions:
REMARK  status: ('A' for Active; 'I' for Inactive)
REMARK    1  A    between atoms: C2_2  and  C3_3 
REMARK    2  A    between atoms: C5_5  and  C6_6 
REMARK    3  A    between atoms: C6_6  and  S1_7 
REMARK    4  A    between atoms: S1_7  and  C7_8 
REMARK    5  A    between atoms: C7_8  and  C8_9 
REMARK       I    between atoms: C8_9  and  N1_11 
REMARK    6  A    between atoms: N1_11  and  C9_12 
REMARK       I    between atoms: N1_11  and  C16_25 
REMARK    7  A    between atoms: C9_12  and  C10_13 
REMARK       I    between atoms: C10_13  and  N2_15 
REMARK    8  A    between atoms: N2_15  and  C11_17 
ROOT
HETATM    1  C8  UNL     1       7.708  21.149  51.939  1.00  0.00     0.238 C 
HETATM    2  O1  UNL     1       8.570  22.050  52.062  1.00  0.00    -0.272 OA
HETATM    3  N1  UNL     1       6.762  20.973  52.980  1.00  0.00    -0.253 N 
HETATM    4  C16 UNL     1       6.815  21.810  54.117  1.00  0.00     0.293 C 
HETATM    5  O3  UNL     1       7.689  22.691  54.194  1.00  0.00    -0.629 OA
HETATM    6  O4  UNL     1       5.887  21.632  55.126  1.00  0.00    -0.629 OA
ENDROOT
BRANCH   3   7
HETATM    7  C9  UNL     1       5.736  19.932  52.877  1.00  0.00     0.241 C 
BRANCH   7   8
HETATM    8  C10 UNL     1       4.461  20.516  52.358  1.00  0.00     0.241 C 
HETATM    9  O2  UNL     1       3.521  20.698  53.170  1.00  0.00    -0.271 OA
HETATM   10  N2  UNL     1       4.272  20.867  51.015  1.00  0.00    -0.312 N 
ATOM     11  H2  UNL     1       4.820  21.651  50.662  1.00  0.00     0.170 HD
BRANCH  10  12
HETATM   12  C11 UNL     1       3.480  20.301  50.191  1.00  0.00     0.107 A 
HETATM   13  C12 UNL     1       3.953  19.847  48.986  1.00  0.00     0.050 A 
HETATM   14  C13 UNL     1       3.089  19.232  48.094  1.00  0.00     0.024 A 
HETATM   15  C14 UNL     1       1.753  19.090  48.440  1.00  0.00     0.026 A 
HETATM   16 BR1  UNL     1       0.560  18.247  47.217  1.00  0.00    -0.050 Br
HETATM   17  C15 UNL     1       1.315  19.560  49.661  1.00  0.00     0.108 A 
HETATM   18  N3  UNL     1       2.191  20.154  50.504  1.00  0.00    -0.351 N 
ATOM     19  H3  UNL     1       1.857  20.497  51.405  1.00  0.00     0.166 HD
ENDBRANCH  10  12
ENDBRANCH   7   8
ENDBRANCH   3   7
BRANCH   1  20
HETATM   20  C7  UNL     1       7.658  20.276  50.743  1.00  0.00     0.177 C 
BRANCH  20  21
HETATM   21  S1  UNL     1       8.338  21.182  49.319  1.00  0.00    -0.153 SA
BRANCH  21  22
HETATM   22  C6  UNL     1      10.095  20.829  49.099  1.00  0.00     0.141 C 
BRANCH  22  23
HETATM   23  C5  UNL     1      10.641  21.728  48.028  1.00  0.00     0.087 A 
HETATM   24  C4  UNL     1      10.319  23.043  47.761  1.00  0.00     0.062 A 
HETATM   25  C3  UNL     1      11.074  23.460  46.682  1.00  0.00     0.034 A 
HETATM   26  N4  UNL     1      11.815  22.389  46.345  1.00  0.00    -0.265 N 
HETATM   27  O5  UNL     1      11.555  21.392  47.131  1.00  0.00    -0.241 OA
ATOM     28  H4  UNL     1      12.487  22.366  45.578  1.00  0.00     0.194 HD
BRANCH  25  29
HETATM   29  C2  UNL     1      11.065  24.814  46.034  1.00  0.00     0.054 C 
HETATM   30  C1  UNL     1       9.806  25.561  46.319  1.00  0.00     0.011 C 
ENDBRANCH  25  29
ENDBRANCH  22  23
ENDBRANCH  21  22
ENDBRANCH  20  21
ENDBRANCH   1  20
TORSDOF 8
ENDMDL
