MODEL 1
REMARK VINA RESULT: -4.799585813      0.000      0.000
REMARK  3 active torsions:
REMARK  status: ('A' for Active; 'I' for Inactive)
REMARK    1  A    between atoms: C2_2  and  C3_3 
REMARK    2  A    between atoms: C3_3  and  C4_4 
REMARK    3  A    between atoms: C4_4  and  N1_5 
ROOT
HETATM    1  C4  UNL     1       1.614  19.235 -21.240  1.00  0.00     0.163 C 
HETATM    2  C5  UNL     1       0.195  18.805 -21.021  1.00  0.00     0.272 C 
HETATM    3  N2  UNL     1       0.191  17.361 -21.088  1.00  0.00    -0.073 N 
ATOM      4  H21 UNL     1       0.460  17.045 -22.020  1.00  0.00     0.277 HD
ATOM      5  H22 UNL     1      -0.764  17.004 -21.055  1.00  0.00     0.277 HD
HETATM    6  C6  UNL     1       0.989  16.740 -20.103  1.00  0.00     0.233 C 
HETATM    7  C7  UNL     1       1.989  17.555 -19.405  1.00  0.00     0.049 C 
HETATM    8  C8  UNL     1       2.447  18.798 -20.067  1.00  0.00     0.132 C 
HETATM    9  C9  UNL     1       2.522  19.912 -19.121  1.00  0.00     0.066 C 
HETATM   10  N3  UNL     1       2.596  20.796 -18.346  1.00  0.00    -0.197 NA
ENDROOT
BRANCH   1  11
HETATM   11  C3  UNL     1       1.669  20.716 -21.381  1.00  0.00     0.041 C 
BRANCH  11  12
HETATM   12  C2  UNL     1       2.848  21.242 -22.144  1.00  0.00    -0.002 C 
HETATM   13  C1  UNL     1       2.273  22.106 -23.275  1.00  0.00     0.005 C 
ENDBRANCH  11  12
ENDBRANCH   1  11
BRANCH   1  14
HETATM   14  N1  UNL     1       2.132  18.529 -22.395  1.00  0.00    -0.067 N 
ATOM     15  H13 UNL     1       1.876  19.008 -23.257  1.00  0.00     0.275 HD
ATOM     16  H12 UNL     1       3.147  18.618 -22.448  1.00  0.00     0.275 HD
ATOM     17  H11 UNL     1       1.852  17.548 -22.428  1.00  0.00     0.275 HD
ENDBRANCH   1  14
TORSDOF 3
ENDMDL
MODEL 2
REMARK VINA RESULT: -3.865437129      1.406      4.287
REMARK  3 active torsions:
REMARK  status: ('A' for Active; 'I' for Inactive)
REMARK    1  A    between atoms: C2_2  and  C3_3 
REMARK    2  A    between atoms: C3_3  and  C4_4 
REMARK    3  A    between atoms: C4_4  and  N1_5 
ROOT
HETATM    1  C4  UNL     1       2.340  19.369 -20.384  1.00  0.00     0.163 C 
HETATM    2  C5  UNL     1       2.454  20.605 -19.545  1.00  0.00     0.272 C 
HETATM    3  N2  UNL     1       3.513  21.397 -20.128  1.00  0.00    -0.073 N 
ATOM      4  H21 UNL     1       4.405  20.907 -20.063  1.00  0.00     0.277 HD
ATOM      5  H22 UNL     1       3.719  22.207 -19.542  1.00  0.00     0.277 HD
HETATM    6  C6  UNL     1       3.262  21.798 -21.459  1.00  0.00     0.233 C 
HETATM    7  C7  UNL     1       2.216  21.096 -22.208  1.00  0.00     0.049 C 
HETATM    8  C8  UNL     1       1.827  19.744 -21.746  1.00  0.00     0.132 C 
HETATM    9  C9  UNL     1       0.373  19.575 -21.749  1.00  0.00     0.066 C 
HETATM   10  N3  UNL     1      -0.798  19.444 -21.773  1.00  0.00    -0.197 NA
ENDROOT
BRANCH   1  11
HETATM   11  C3  UNL     1       1.404  18.410 -19.733  1.00  0.00     0.041 C 
BRANCH  11  12
HETATM   12  C2  UNL     1       1.725  16.961 -19.944  1.00  0.00    -0.002 C 
HETATM   13  C1  UNL     1       0.376  16.239 -20.069  1.00  0.00     0.005 C 
ENDBRANCH  11  12
ENDBRANCH   1  11
BRANCH   1  14
HETATM   14  N1  UNL     1       3.669  18.827 -20.583  1.00  0.00    -0.067 N 
ATOM     15  H13 UNL     1       3.720  17.863 -20.254  1.00  0.00     0.275 HD
ATOM     16  H12 UNL     1       3.854  18.675 -21.575  1.00  0.00     0.275 HD
ATOM     17  H11 UNL     1       4.405  19.394 -20.160  1.00  0.00     0.275 HD
ENDBRANCH   1  14
TORSDOF 3
ENDMDL
MODEL 3
REMARK VINA RESULT: -3.795875979      1.296      2.612
REMARK  3 active torsions:
REMARK  status: ('A' for Active; 'I' for Inactive)
REMARK    1  A    between atoms: C2_2  and  C3_3 
REMARK    2  A    between atoms: C3_3  and  C4_4 
REMARK    3  A    between atoms: C4_4  and  N1_5 
ROOT
HETATM    1  C4  UNL     1       2.133  19.526 -20.425  1.00  0.00     0.163 C 
HETATM    2  C5  UNL     1       3.153  18.731 -21.181  1.00  0.00     0.272 C 
HETATM    3  N2  UNL     1       3.559  17.653 -20.308  1.00  0.00    -0.073 N 
ATOM      4  H21 UNL     1       4.020  18.019 -19.476  1.00  0.00     0.277 HD
ATOM      5  H22 UNL     1       4.333  17.131 -20.719  1.00  0.00     0.277 HD
HETATM    6  C6  UNL     1       2.508  16.780 -19.949  1.00  0.00     0.233 C 
HETATM    7  C7  UNL     1       1.128  17.236 -20.151  1.00  0.00     0.049 C 
HETATM    8  C8  UNL     1       0.893  18.695 -20.247  1.00  0.00     0.132 C 
HETATM    9  C9  UNL     1      -0.033  19.017 -21.335  1.00  0.00     0.066 C 
HETATM   10  N3  UNL     1      -0.793  19.262 -22.200  1.00  0.00    -0.197 NA
ENDROOT
BRANCH   1  11
HETATM   11  C3  UNL     1       1.809  20.768 -21.181  1.00  0.00     0.041 C 
BRANCH  11  12
HETATM   12  C2  UNL     1       2.961  21.387 -21.915  1.00  0.00    -0.002 C 
HETATM   13  C1  UNL     1       2.366  22.035 -23.173  1.00  0.00     0.005 C 
ENDBRANCH  11  12
ENDBRANCH   1  11
BRANCH   1  14
HETATM   14  N1  UNL     1       2.647  19.782 -19.094  1.00  0.00    -0.067 N 
ATOM     15  H13 UNL     1       3.266  19.030 -18.794  1.00  0.00     0.275 HD
ATOM     16  H12 UNL     1       3.313  20.554 -19.105  1.00  0.00     0.275 HD
ATOM     17  H11 UNL     1       1.914  19.946 -18.403  1.00  0.00     0.275 HD
ENDBRANCH   1  14
TORSDOF 3
ENDMDL
MODEL 4
REMARK VINA RESULT: -3.651281475      1.843      2.442
REMARK  3 active torsions:
REMARK  status: ('A' for Active; 'I' for Inactive)
REMARK    1  A    between atoms: C2_2  and  C3_3 
REMARK    2  A    between atoms: C3_3  and  C4_4 
REMARK    3  A    between atoms: C4_4  and  N1_5 
ROOT
HETATM    1  C4  UNL     1       1.712  18.930 -21.242  1.00  0.00     0.163 C 
HETATM    2  C5  UNL     1       0.500  19.684 -20.787  1.00  0.00     0.272 C 
HETATM    3  N2  UNL     1      -0.612  19.169 -21.555  1.00  0.00    -0.073 N 
ATOM      4  H21 UNL     1      -0.487  19.372 -22.547  1.00  0.00     0.277 HD
ATOM      5  H22 UNL     1      -1.455  19.714 -21.373  1.00  0.00     0.277 HD
HETATM    6  C6  UNL     1      -0.857  17.793 -21.355  1.00  0.00     0.233 C 
HETATM    7  C7  UNL     1       0.201  16.982 -20.744  1.00  0.00     0.049 C 
HETATM    8  C8  UNL     1       1.589  17.494 -20.813  1.00  0.00     0.132 C 
HETATM    9  C9  UNL     1       2.282  17.338 -19.534  1.00  0.00     0.066 C 
HETATM   10  N3  UNL     1       2.835  17.189 -18.505  1.00  0.00    -0.197 NA
ENDROOT
BRANCH   1  11
HETATM   11  C3  UNL     1       2.931  19.538 -20.639  1.00  0.00     0.041 C 
BRANCH  11  12
HETATM   12  C2  UNL     1       2.756  20.931 -20.112  1.00  0.00    -0.002 C 
HETATM   13  C1  UNL     1       2.709  20.806 -18.583  1.00  0.00     0.005 C 
ENDBRANCH  11  12
ENDBRANCH   1  11
BRANCH   1  14
HETATM   14  N1  UNL     1       1.731  18.925 -22.691  1.00  0.00    -0.067 N 
ATOM     15  H13 UNL     1       1.823  19.872 -23.055  1.00  0.00     0.275 HD
ATOM     16  H12 UNL     1       2.602  18.524 -23.040  1.00  0.00     0.275 HD
ATOM     17  H11 UNL     1       0.925  18.455 -23.103  1.00  0.00     0.275 HD
ENDBRANCH   1  14
TORSDOF 3
ENDMDL
MODEL 5
REMARK VINA RESULT: -3.439196380      1.926      3.790
REMARK  3 active torsions:
REMARK  status: ('A' for Active; 'I' for Inactive)
REMARK    1  A    between atoms: C2_2  and  C3_3 
REMARK    2  A    between atoms: C3_3  and  C4_4 
REMARK    3  A    between atoms: C4_4  and  N1_5 
ROOT
HETATM    1  C4  UNL     1       1.440  19.590 -21.090  1.00  0.00     0.163 C 
HETATM    2  C5  UNL     1       2.492  20.131 -22.010  1.00  0.00     0.272 C 
HETATM    3  N2  UNL     1       2.659  21.525 -21.664  1.00  0.00    -0.073 N 
ATOM      4  H21 UNL     1       1.802  22.045 -21.849  1.00  0.00     0.277 HD
ATOM      5  H22 UNL     1       3.286  21.985 -22.324  1.00  0.00     0.277 HD
HETATM    6  C6  UNL     1       3.092  21.738 -20.337  1.00  0.00     0.233 C 
HETATM    7  C7  UNL     1       2.960  20.635 -19.379  1.00  0.00     0.049 C 
HETATM    8  C8  UNL     1       1.977  19.571 -19.685  1.00  0.00     0.132 C 
HETATM    9  C9  UNL     1       2.529  18.240 -19.426  1.00  0.00     0.066 C 
HETATM   10  N3  UNL     1       2.978  17.176 -19.195  1.00  0.00    -0.197 NA
ENDROOT
BRANCH   1  11
HETATM   11  C3  UNL     1       1.071  18.210 -21.513  1.00  0.00     0.041 C 
BRANCH  11  12
HETATM   12  C2  UNL     1      -0.378  17.860 -21.354  1.00  0.00    -0.002 C 
HETATM   13  C1  UNL     1      -0.442  16.798 -20.248  1.00  0.00     0.005 C 
ENDBRANCH  11  12
ENDBRANCH   1  11
BRANCH   1  14
HETATM   14  N1  UNL     1       0.319  20.508 -21.086  1.00  0.00    -0.067 N 
ATOM     15  H13 UNL     1      -0.515  20.059 -20.709  1.00  0.00     0.275 HD
ATOM     16  H12 UNL     1       0.450  21.237 -20.385  1.00  0.00     0.275 HD
ATOM     17  H11 UNL     1       0.129  20.916 -22.002  1.00  0.00     0.275 HD
ENDBRANCH   1  14
TORSDOF 3
ENDMDL
