MODEL 1
REMARK VINA RESULT: -6.753507271      0.000      0.000
REMARK  4 active torsions:
REMARK  status: ('A' for Active; 'I' for Inactive)
REMARK    1  A    between atoms: C2_4  and  C3_5 
REMARK    2  A    between atoms: C2_4  and  N8_19 
REMARK    3  A    between atoms: C4_6  and  N3_8 
REMARK    4  A    between atoms: N3_8  and  C5_10 
ROOT
HETATM    1  C3  UNL     1       4.790 -14.018   1.329  1.00  0.00     0.093 C 
HETATM    2  C4  UNL     1       5.032 -12.838   1.887  1.00  0.00     0.135 C 
HETATM    3  N2  UNL     1       3.962 -12.055   2.446  1.00  0.00    -0.082 NA
ENDROOT
BRANCH   2   4
HETATM    4  N3  UNL     1       6.369 -12.364   1.922  1.00  0.00    -0.176 N 
ATOM      5  H3  UNL     1       6.834 -12.083   1.059  1.00  0.00     0.185 HD
BRANCH   4   6
HETATM    6  C5  UNL     1       6.990 -12.290   3.038  1.00  0.00     0.715 A 
HETATM    7  N4  UNL     1       6.717 -12.904   4.209  1.00  0.00    -0.115 N 
HETATM    8  N5  UNL     1       7.641 -12.517   5.079  1.00  0.00    -0.213 N 
ATOM      9  H4  UNL     1       5.946 -13.546   4.391  1.00  0.00     0.207 HD
HETATM   10  N6  UNL     1       8.487 -11.683   4.510  1.00  0.00    -0.213 N 
ATOM     11  H5  UNL     1       7.689 -12.822   6.052  1.00  0.00     0.210 HD
HETATM   12  N7  UNL     1       8.083 -11.550   3.264  1.00  0.00    -0.115 N 
ATOM     13  H6  UNL     1       9.290 -11.231   4.946  1.00  0.00     0.210 HD
ATOM     14  H7  UNL     1       8.540 -10.963   2.566  1.00  0.00     0.207 HD
ENDBRANCH   4   6
ENDBRANCH   2   4
BRANCH   1  15
HETATM   15  C2  UNL     1       5.825 -14.834   0.758  1.00  0.00     0.105 C 
HETATM   16  N1  UNL     1       6.272 -15.837   1.457  1.00  0.00    -0.381 N 
HETATM   17  C1  UNL     1       5.764 -16.150   2.771  1.00  0.00     0.147 C 
ATOM     18  H1  UNL     1       7.007 -16.423   1.061  1.00  0.00     0.160 HD
BRANCH  15  19
HETATM   19  N8  UNL     1       6.383 -14.612  -0.507  1.00  0.00    -0.319 N 
HETATM   20  C6  UNL     1       6.428 -15.501  -1.444  1.00  0.00     0.202 C 
HETATM   21  N9  UNL     1       7.019 -15.169  -2.693  1.00  0.00    -0.066 NA
HETATM   22  N10 UNL     1       5.901 -16.809  -1.265  1.00  0.00    -0.066 NA
ATOM     23  H8  UNL     1       6.778 -13.693  -0.701  1.00  0.00     0.169 HD
ENDBRANCH  15  19
ENDBRANCH   1  15
TORSDOF 4
ENDMDL
MODEL 2
REMARK VINA RESULT: -6.722436328      2.119      3.274
REMARK  4 active torsions:
REMARK  status: ('A' for Active; 'I' for Inactive)
REMARK    1  A    between atoms: C2_4  and  C3_5 
REMARK    2  A    between atoms: C2_4  and  N8_19 
REMARK    3  A    between atoms: C4_6  and  N3_8 
REMARK    4  A    between atoms: N3_8  and  C5_10 
ROOT
HETATM    1  C3  UNL     1       6.236 -11.791   1.375  1.00  0.00     0.093 C 
HETATM    2  C4  UNL     1       6.527 -11.188   2.522  1.00  0.00     0.135 C 
HETATM    3  N2  UNL     1       7.096  -9.867   2.535  1.00  0.00    -0.082 NA
ENDROOT
BRANCH   2   4
HETATM    4  N3  UNL     1       6.264 -11.874   3.736  1.00  0.00    -0.176 N 
ATOM      5  H3  UNL     1       5.729 -12.742   3.726  1.00  0.00     0.185 HD
BRANCH   4   6
HETATM    6  C5  UNL     1       6.699 -11.402   4.841  1.00  0.00     0.715 A 
HETATM    7  N4  UNL     1       7.892 -11.598   5.443  1.00  0.00    -0.115 N 
HETATM    8  N5  UNL     1       7.882 -10.900   6.572  1.00  0.00    -0.213 N 
ATOM      9  H4  UNL     1       8.659 -12.174   5.096  1.00  0.00     0.207 HD
HETATM   10  N6  UNL     1       6.733 -10.271   6.712  1.00  0.00    -0.213 N 
ATOM     11  H5  UNL     1       8.654 -10.857   7.237  1.00  0.00     0.210 HD
HETATM   12  N7  UNL     1       6.017 -10.582   5.651  1.00  0.00    -0.115 N 
ATOM     13  H6  UNL     1       6.454  -9.667   7.484  1.00  0.00     0.210 HD
ATOM     14  H7  UNL     1       5.072 -10.244   5.471  1.00  0.00     0.207 HD
ENDBRANCH   4   6
ENDBRANCH   2   4
BRANCH   1  15
HETATM   15  C2  UNL     1       5.668 -13.108   1.312  1.00  0.00     0.105 C 
HETATM   16  N1  UNL     1       4.371 -13.218   1.311  1.00  0.00    -0.381 N 
HETATM   17  C1  UNL     1       3.498 -12.070   1.369  1.00  0.00     0.147 C 
ATOM     18  H1  UNL     1       3.957 -14.150   1.267  1.00  0.00     0.160 HD
BRANCH  15  19
HETATM   19  N8  UNL     1       6.428 -14.283   1.254  1.00  0.00    -0.319 N 
HETATM   20  C6  UNL     1       6.649 -15.054   2.267  1.00  0.00     0.202 C 
HETATM   21  N9  UNL     1       7.436 -16.224   2.095  1.00  0.00    -0.066 NA
HETATM   22  N10 UNL     1       6.124 -14.769   3.556  1.00  0.00    -0.066 NA
ATOM     23  H8  UNL     1       6.833 -14.545   0.356  1.00  0.00     0.169 HD
ENDBRANCH  15  19
ENDBRANCH   1  15
TORSDOF 4
ENDMDL
MODEL 3
REMARK VINA RESULT: -6.702662717      3.207      5.919
REMARK  4 active torsions:
REMARK  status: ('A' for Active; 'I' for Inactive)
REMARK    1  A    between atoms: C2_4  and  C3_5 
REMARK    2  A    between atoms: C2_4  and  N8_19 
REMARK    3  A    between atoms: C4_6  and  N3_8 
REMARK    4  A    between atoms: N3_8  and  C5_10 
ROOT
HETATM    1  C3  UNL     1       8.113 -11.501   3.223  1.00  0.00     0.093 C 
HETATM    2  C4  UNL     1       7.300 -10.830   2.415  1.00  0.00     0.135 C 
HETATM    3  N2  UNL     1       7.763 -10.343   1.143  1.00  0.00    -0.082 NA
ENDROOT
BRANCH   2   4
HETATM    4  N3  UNL     1       5.963 -10.604   2.832  1.00  0.00    -0.176 N 
ATOM      5  H3  UNL     1       5.766  -9.933   3.575  1.00  0.00     0.185 HD
BRANCH   4   6
HETATM    6  C5  UNL     1       5.005 -11.243   2.276  1.00  0.00     0.715 A 
HETATM    7  N4  UNL     1       4.108 -12.089   2.827  1.00  0.00    -0.115 N 
HETATM    8  N5  UNL     1       3.310 -12.505   1.852  1.00  0.00    -0.213 N 
ATOM      9  H4  UNL     1       4.054 -12.358   3.810  1.00  0.00     0.207 HD
HETATM   10  N6  UNL     1       3.663 -11.959   0.706  1.00  0.00    -0.213 N 
ATOM     11  H5  UNL     1       2.533 -13.155   1.973  1.00  0.00     0.210 HD
HETATM   12  N7  UNL     1       4.698 -11.190   0.973  1.00  0.00    -0.115 N 
ATOM     13  H6  UNL     1       3.224 -12.103  -0.202  1.00  0.00     0.210 HD
ATOM     14  H7  UNL     1       5.197 -10.630   0.282  1.00  0.00     0.207 HD
ENDBRANCH   4   6
ENDBRANCH   2   4
BRANCH   1  15
HETATM   15  C2  UNL     1       7.696 -12.005   4.501  1.00  0.00     0.105 C 
HETATM   16  N1  UNL     1       7.069 -13.145   4.536  1.00  0.00    -0.381 N 
HETATM   17  C1  UNL     1       6.785 -13.908   3.343  1.00  0.00     0.147 C 
ATOM     18  H1  UNL     1       6.768 -13.513   5.439  1.00  0.00     0.160 HD
BRANCH  15  19
HETATM   19  N8  UNL     1       7.923 -11.342   5.713  1.00  0.00    -0.319 N 
HETATM   20  C6  UNL     1       7.058 -10.576   6.293  1.00  0.00     0.202 C 
HETATM   21  N9  UNL     1       7.395  -9.951   7.523  1.00  0.00    -0.066 NA
HETATM   22  N10 UNL     1       5.772 -10.340   5.736  1.00  0.00    -0.066 NA
ATOM     23  H8  UNL     1       8.828 -11.470   6.165  1.00  0.00     0.169 HD
ENDBRANCH  15  19
ENDBRANCH   1  15
TORSDOF 4
ENDMDL
MODEL 4
REMARK VINA RESULT: -6.641115775      1.775      3.176
REMARK  4 active torsions:
REMARK  status: ('A' for Active; 'I' for Inactive)
REMARK    1  A    between atoms: C2_4  and  C3_5 
REMARK    2  A    between atoms: C2_4  and  N8_19 
REMARK    3  A    between atoms: C4_6  and  N3_8 
REMARK    4  A    between atoms: N3_8  and  C5_10 
ROOT
HETATM    1  C3  UNL     1       6.466 -12.377   1.757  1.00  0.00     0.093 C 
HETATM    2  C4  UNL     1       7.172 -11.911   2.781  1.00  0.00     0.135 C 
HETATM    3  N2  UNL     1       8.200 -10.925   2.579  1.00  0.00    -0.082 NA
ENDROOT
BRANCH   2   4
HETATM    4  N3  UNL     1       6.889 -12.405   4.080  1.00  0.00    -0.176 N 
ATOM      5  H3  UNL     1       6.649 -13.388   4.213  1.00  0.00     0.185 HD
BRANCH   4   6
HETATM    6  C5  UNL     1       6.938 -11.617   5.086  1.00  0.00     0.715 A 
HETATM    7  N4  UNL     1       5.997 -10.765   5.550  1.00  0.00    -0.115 N 
HETATM    8  N5  UNL     1       6.506 -10.161   6.616  1.00  0.00    -0.213 N 
ATOM      9  H4  UNL     1       5.069 -10.615   5.155  1.00  0.00     0.207 HD
HETATM   10  N6  UNL     1       7.729 -10.593   6.848  1.00  0.00    -0.213 N 
ATOM     11  H5  UNL     1       6.020  -9.462   7.177  1.00  0.00     0.210 HD
HETATM   12  N7  UNL     1       7.985 -11.481   5.910  1.00  0.00    -0.115 N 
ATOM     13  H6  UNL     1       8.352 -10.298   7.600  1.00  0.00     0.210 HD
ATOM     14  H7  UNL     1       8.861 -11.997   5.823  1.00  0.00     0.207 HD
ENDBRANCH   4   6
ENDBRANCH   2   4
BRANCH   1  15
HETATM   15  C2  UNL     1       5.432 -13.361   1.910  1.00  0.00     0.105 C 
HETATM   16  N1  UNL     1       4.196 -12.981   1.762  1.00  0.00    -0.381 N 
HETATM   17  C1  UNL     1       3.839 -11.617   1.453  1.00  0.00     0.147 C 
ATOM     18  H1  UNL     1       3.453 -13.672   1.869  1.00  0.00     0.160 HD
BRANCH  15  19
HETATM   19  N8  UNL     1       5.675 -14.707   2.209  1.00  0.00    -0.319 N 
HETATM   20  C6  UNL     1       5.373 -15.690   1.426  1.00  0.00     0.202 C 
HETATM   21  N9  UNL     1       5.664 -17.020   1.831  1.00  0.00    -0.066 NA
HETATM   22  N10 UNL     1       4.754 -15.481   0.164  1.00  0.00    -0.066 NA
ATOM     23  H8  UNL     1       6.119 -14.926   3.101  1.00  0.00     0.169 HD
ENDBRANCH  15  19
ENDBRANCH   1  15
TORSDOF 4
ENDMDL
MODEL 5
REMARK VINA RESULT: -6.631624775      2.505      5.404
REMARK  4 active torsions:
REMARK  status: ('A' for Active; 'I' for Inactive)
REMARK    1  A    between atoms: C2_4  and  C3_5 
REMARK    2  A    between atoms: C2_4  and  N8_19 
REMARK    3  A    between atoms: C4_6  and  N3_8 
REMARK    4  A    between atoms: N3_8  and  C5_10 
ROOT
HETATM    1  C3  UNL     1       5.174 -11.568   2.373  1.00  0.00     0.093 C 
HETATM    2  C4  UNL     1       5.030 -12.867   2.607  1.00  0.00     0.135 C 
HETATM    3  N2  UNL     1       4.046 -13.639   1.896  1.00  0.00    -0.082 NA
ENDROOT
BRANCH   2   4
HETATM    4  N3  UNL     1       5.868 -13.479   3.575  1.00  0.00    -0.176 N 
ATOM      5  H3  UNL     1       5.988 -13.050   4.492  1.00  0.00     0.185 HD
BRANCH   4   6
HETATM    6  C5  UNL     1       6.472 -14.571   3.295  1.00  0.00     0.715 A 
HETATM    7  N4  UNL     1       6.692 -15.651   4.076  1.00  0.00    -0.115 N 
HETATM    8  N5  UNL     1       7.361 -16.534   3.346  1.00  0.00    -0.213 N 
ATOM      9  H4  UNL     1       6.399 -15.766   5.046  1.00  0.00     0.207 HD
HETATM   10  N6  UNL     1       7.575 -16.061   2.135  1.00  0.00    -0.213 N 
ATOM     11  H5  UNL     1       7.666 -17.450   3.675  1.00  0.00     0.210 HD
HETATM   12  N7  UNL     1       7.029 -14.862   2.112  1.00  0.00    -0.115 N 
ATOM     13  H6  UNL     1       8.064 -16.527   1.372  1.00  0.00     0.210 HD
ATOM     14  H7  UNL     1       7.029 -14.241   1.303  1.00  0.00     0.207 HD
ENDBRANCH   4   6
ENDBRANCH   2   4
BRANCH   1  15
HETATM   15  C2  UNL     1       6.140 -10.757   3.058  1.00  0.00     0.105 C 
HETATM   16  N1  UNL     1       7.182 -10.349   2.393  1.00  0.00    -0.381 N 
HETATM   17  C1  UNL     1       7.392 -10.683   1.004  1.00  0.00     0.147 C 
ATOM     18  H1  UNL     1       7.875  -9.773   2.871  1.00  0.00     0.160 HD
BRANCH  15  19
HETATM   19  N8  UNL     1       6.028 -10.380   4.402  1.00  0.00    -0.319 N 
HETATM   20  C6  UNL     1       6.806 -10.807   5.342  1.00  0.00     0.202 C 
HETATM   21  N9  UNL     1       6.603 -10.359   6.674  1.00  0.00    -0.066 NA
HETATM   22  N10 UNL     1       7.867 -11.717   5.083  1.00  0.00    -0.066 NA
ATOM     23  H8  UNL     1       5.287  -9.728   4.656  1.00  0.00     0.169 HD
ENDBRANCH  15  19
ENDBRANCH   1  15
TORSDOF 4
ENDMDL
