MODEL 1
REMARK VINA RESULT: -7.354908776      0.000      0.000
REMARK  2 active torsions:
REMARK  status: ('A' for Active; 'I' for Inactive)
REMARK    1  A    between atoms: N1_1  and  C1_4 
REMARK    2  A    between atoms: C2_7  and  C3_8 
ROOT
HETATM    1  C1  UNL     1       5.926 -15.334  -0.648  1.00  0.00     0.679 A 
HETATM    2  N2  UNL     1       5.905 -14.175   0.040  1.00  0.00    -0.191 N 
ATOM      3  H2  UNL     1       5.997 -13.300  -0.477  1.00  0.00     0.184 HD
HETATM    4  C2  UNL     1       5.770 -14.120   1.377  1.00  0.00     0.064 A 
HETATM    5  C8  UNL     1       5.649 -15.306   2.061  1.00  0.00     0.105 A 
HETATM    6  C9  UNL     1       5.672 -16.492   1.344  1.00  0.00     0.261 A 
HETATM    7  O1  UNL     1       5.560 -17.595   1.966  1.00  0.00    -0.268 OA
HETATM    8  N6  UNL     1       5.810 -16.487   0.000  1.00  0.00    -0.156 N 
ATOM      9  H6  UNL     1       5.825 -17.367  -0.515  1.00  0.00     0.187 HD
ENDROOT
BRANCH   4  10
HETATM   10  C3  UNL     1       5.759 -12.818   2.024  1.00  0.00     0.017 A 
HETATM   11  C4  UNL     1       6.361 -12.458   3.146  1.00  0.00     0.087 A 
HETATM   12  N3  UNL     1       7.156 -12.918   4.155  1.00  0.00    -0.349 N 
HETATM   13  C6  UNL     1       6.108 -11.135   3.428  1.00  0.00     0.130 A 
HETATM   14  C5  UNL     1       7.382 -11.912   5.019  1.00  0.00     0.182 A 
ATOM     15  H3  UNL     1       7.519 -13.868   4.241  1.00  0.00     0.167 HD
HETATM   16  N4  UNL     1       6.745 -10.807   4.590  1.00  0.00    -0.337 N 
ATOM     17  H4  UNL     1       6.740  -9.895   5.047  1.00  0.00     0.168 HD
HETATM   18  N5  UNL     1       5.358 -10.586   2.537  1.00  0.00    -0.370 N 
HETATM   19  C7  UNL     1       5.053 -11.578   1.553  1.00  0.00     0.164 A 
ATOM     20  H5  UNL     1       5.039  -9.617   2.534  1.00  0.00     0.161 HD
ENDBRANCH   4  10
BRANCH   1  21
HETATM   21  N1  UNL     1       6.061 -15.293  -1.948  1.00  0.00    -0.234 N 
ATOM     22  H12 UNL     1       6.347 -14.438  -2.426  1.00  0.00     0.174 HD
ATOM     23  H11 UNL     1       5.876 -16.137  -2.488  1.00  0.00     0.174 HD
ENDBRANCH   1  21
TORSDOF 2
ENDMDL
MODEL 2
REMARK VINA RESULT: -7.156025742      1.477      1.833
REMARK  2 active torsions:
REMARK  status: ('A' for Active; 'I' for Inactive)
REMARK    1  A    between atoms: N1_1  and  C1_4 
REMARK    2  A    between atoms: C2_7  and  C3_8 
ROOT
HETATM    1  C1  UNL     1       7.632 -16.364   1.778  1.00  0.00     0.679 A 
HETATM    2  N2  UNL     1       7.338 -15.099   2.139  1.00  0.00    -0.191 N 
ATOM      3  H2  UNL     1       8.023 -14.575   2.684  1.00  0.00     0.184 HD
HETATM    4  C2  UNL     1       6.181 -14.495   1.812  1.00  0.00     0.064 A 
HETATM    5  C8  UNL     1       5.266 -15.212   1.079  1.00  0.00     0.105 A 
HETATM    6  C9  UNL     1       5.579 -16.513   0.713  1.00  0.00     0.261 A 
HETATM    7  O1  UNL     1       4.740 -17.184   0.034  1.00  0.00    -0.268 OA
HETATM    8  N6  UNL     1       6.757 -17.068   1.069  1.00  0.00    -0.156 N 
ATOM      9  H6  UNL     1       6.975 -18.025   0.794  1.00  0.00     0.187 HD
ENDROOT
BRANCH   4  10
HETATM   10  C3  UNL     1       5.960 -13.127   2.250  1.00  0.00     0.017 A 
HETATM   11  C4  UNL     1       6.418 -12.533   3.340  1.00  0.00     0.087 A 
HETATM   12  N3  UNL     1       7.177 -12.734   4.457  1.00  0.00    -0.349 N 
HETATM   13  C6  UNL     1       5.985 -11.228   3.399  1.00  0.00     0.130 A 
HETATM   14  C5  UNL     1       7.207 -11.593   5.169  1.00  0.00     0.182 A 
ATOM     15  H3  UNL     1       7.644 -13.606   4.710  1.00  0.00     0.167 HD
HETATM   16  N4  UNL     1       6.480 -10.655   4.535  1.00  0.00    -0.337 N 
ATOM     17  H4  UNL     1       6.327  -9.696   4.846  1.00  0.00     0.168 HD
HETATM   18  N5  UNL     1       5.251 -10.917   2.389  1.00  0.00    -0.370 N 
HETATM   19  C7  UNL     1       5.150 -12.071   1.550  1.00  0.00     0.164 A 
ATOM     20  H5  UNL     1       4.818 -10.009   2.217  1.00  0.00     0.161 HD
ENDBRANCH   4  10
BRANCH   1  21
HETATM   21  N1  UNL     1       8.782 -16.870   2.140  1.00  0.00    -0.234 N 
ATOM     22  H12 UNL     1       9.010 -17.023   3.122  1.00  0.00     0.174 HD
ATOM     23  H11 UNL     1       9.460 -17.115   1.418  1.00  0.00     0.174 HD
ENDBRANCH   1  21
TORSDOF 2
ENDMDL
MODEL 3
REMARK VINA RESULT: -7.017568950      2.080      5.803
REMARK  2 active torsions:
REMARK  status: ('A' for Active; 'I' for Inactive)
REMARK    1  A    between atoms: N1_1  and  C1_4 
REMARK    2  A    between atoms: C2_7  and  C3_8 
ROOT
HETATM    1  C1  UNL     1       6.772 -12.475   3.719  1.00  0.00     0.679 A 
HETATM    2  N2  UNL     1       6.697 -13.675   3.110  1.00  0.00    -0.191 N 
ATOM      3  H2  UNL     1       7.166 -14.471   3.542  1.00  0.00     0.184 HD
HETATM    4  C2  UNL     1       6.030 -13.870   1.959  1.00  0.00     0.064 A 
HETATM    5  C8  UNL     1       5.404 -12.789   1.387  1.00  0.00     0.105 A 
HETATM    6  C9  UNL     1       5.488 -11.559   2.020  1.00  0.00     0.261 A 
HETATM    7  O1  UNL     1       4.911 -10.553   1.500  1.00  0.00    -0.268 OA
HETATM    8  N6  UNL     1       6.171 -11.421   3.177  1.00  0.00    -0.156 N 
ATOM      9  H6  UNL     1       6.226 -10.511   3.634  1.00  0.00     0.187 HD
ENDROOT
BRANCH   4  10
HETATM   10  C3  UNL     1       6.009 -15.205   1.382  1.00  0.00     0.017 A 
HETATM   11  C4  UNL     1       6.040 -15.544   0.104  1.00  0.00     0.087 A 
HETATM   12  N3  UNL     1       6.096 -15.033  -1.161  1.00  0.00    -0.349 N 
HETATM   13  C6  UNL     1       6.003 -16.913  -0.035  1.00  0.00     0.130 A 
HETATM   14  C5  UNL     1       6.094 -16.054  -2.038  1.00  0.00     0.182 A 
ATOM     15  H3  UNL     1       6.132 -14.042  -1.401  1.00  0.00     0.167 HD
HETATM   16  N4  UNL     1       6.037 -17.217  -1.365  1.00  0.00    -0.337 N 
ATOM     17  H4  UNL     1       6.022 -18.152  -1.773  1.00  0.00     0.168 HD
HETATM   18  N5  UNL     1       5.948 -17.512   1.103  1.00  0.00    -0.370 N 
HETATM   19  C7  UNL     1       5.946 -16.511   2.124  1.00  0.00     0.164 A 
ATOM     20  H5  UNL     1       5.911 -18.521   1.250  1.00  0.00     0.161 HD
ENDBRANCH   4  10
BRANCH   1  21
HETATM   21  N1  UNL     1       7.442 -12.377   4.838  1.00  0.00    -0.234 N 
ATOM     22  H12 UNL     1       7.970 -13.165   5.212  1.00  0.00     0.174 HD
ATOM     23  H11 UNL     1       7.432 -11.490   5.340  1.00  0.00     0.174 HD
ENDBRANCH   1  21
TORSDOF 2
ENDMDL
MODEL 4
REMARK VINA RESULT: -7.014863167      1.579      2.593
REMARK  2 active torsions:
REMARK  status: ('A' for Active; 'I' for Inactive)
REMARK    1  A    between atoms: N1_1  and  C1_4 
REMARK    2  A    between atoms: C2_7  and  C3_8 
ROOT
HETATM    1  C1  UNL     1       6.547 -15.499  -1.985  1.00  0.00     0.679 A 
HETATM    2  N2  UNL     1       6.552 -14.867  -0.795  1.00  0.00    -0.191 N 
ATOM      3  H2  UNL     1       6.981 -13.943  -0.735  1.00  0.00     0.184 HD
HETATM    4  C2  UNL     1       6.017 -15.398   0.319  1.00  0.00     0.064 A 
HETATM    5  C8  UNL     1       5.444 -16.644   0.226  1.00  0.00     0.105 A 
HETATM    6  C9  UNL     1       5.445 -17.287  -1.003  1.00  0.00     0.261 A 
HETATM    7  O1  UNL     1       4.917 -18.439  -1.100  1.00  0.00    -0.268 OA
HETATM    8  N6  UNL     1       5.997 -16.704  -2.089  1.00  0.00    -0.156 N 
ATOM      9  H6  UNL     1       5.991 -17.187  -2.987  1.00  0.00     0.187 HD
ENDROOT
BRANCH   4  10
HETATM   10  C3  UNL     1       6.073 -14.633   1.554  1.00  0.00     0.017 A 
HETATM   11  C4  UNL     1       5.772 -13.358   1.741  1.00  0.00     0.087 A 
HETATM   12  N3  UNL     1       5.337 -12.234   1.101  1.00  0.00    -0.349 N 
HETATM   13  C6  UNL     1       5.956 -13.006   3.058  1.00  0.00     0.130 A 
HETATM   14  C5  UNL     1       5.258 -11.233   1.997  1.00  0.00     0.182 A 
ATOM     15  H3  UNL     1       5.110 -12.164   0.109  1.00  0.00     0.167 HD
HETATM   16  N4  UNL     1       5.635 -11.687   3.206  1.00  0.00    -0.337 N 
ATOM     17  H4  UNL     1       5.674 -11.147   4.070  1.00  0.00     0.168 HD
HETATM   18  N5  UNL     1       6.371 -13.995   3.769  1.00  0.00    -0.370 N 
HETATM   19  C7  UNL     1       6.492 -15.131   2.909  1.00  0.00     0.164 A 
ATOM     20  H5  UNL     1       6.578 -13.972   4.769  1.00  0.00     0.161 HD
ENDBRANCH   4  10
BRANCH   1  21
HETATM   21  N1  UNL     1       7.091 -14.906  -3.015  1.00  0.00    -0.234 N 
ATOM     22  H12 UNL     1       6.851 -13.947  -3.265  1.00  0.00     0.174 HD
ATOM     23  H11 UNL     1       7.768 -15.421  -3.577  1.00  0.00     0.174 HD
ENDBRANCH   1  21
TORSDOF 2
ENDMDL
MODEL 5
REMARK VINA RESULT: -6.924474489      2.338      5.429
REMARK  2 active torsions:
REMARK  status: ('A' for Active; 'I' for Inactive)
REMARK    1  A    between atoms: N1_1  and  C1_4 
REMARK    2  A    between atoms: C2_7  and  C3_8 
ROOT
HETATM    1  C1  UNL     1       6.880 -10.939   2.152  1.00  0.00     0.679 A 
HETATM    2  N2  UNL     1       6.704 -12.254   1.911  1.00  0.00    -0.191 N 
ATOM      3  H2  UNL     1       6.897 -12.607   0.973  1.00  0.00     0.184 HD
HETATM    4  C2  UNL     1       6.286 -13.120   2.850  1.00  0.00     0.064 A 
HETATM    5  C8  UNL     1       6.029 -12.630   4.108  1.00  0.00     0.105 A 
HETATM    6  C9  UNL     1       6.212 -11.277   4.346  1.00  0.00     0.261 A 
HETATM    7  O1  UNL     1       5.978 -10.814   5.506  1.00  0.00    -0.268 OA
HETATM    8  N6  UNL     1       6.635 -10.452   3.363  1.00  0.00    -0.156 N 
ATOM      9  H6  UNL     1       6.766  -9.459   3.550  1.00  0.00     0.187 HD
ENDROOT
BRANCH   4  10
HETATM   10  C3  UNL     1       6.128 -14.520   2.488  1.00  0.00     0.017 A 
HETATM   11  C4  UNL     1       5.930 -15.036   1.286  1.00  0.00     0.087 A 
HETATM   12  N3  UNL     1       5.782 -14.711  -0.031  1.00  0.00    -0.349 N 
HETATM   13  C6  UNL     1       5.831 -16.406   1.358  1.00  0.00     0.130 A 
HETATM   14  C5  UNL     1       5.601 -15.843  -0.736  1.00  0.00     0.182 A 
ATOM     15  H3  UNL     1       5.804 -13.767  -0.417  1.00  0.00     0.167 HD
HETATM   16  N4  UNL     1       5.627 -16.896   0.101  1.00  0.00    -0.337 N 
ATOM     17  H4  UNL     1       5.516 -17.876  -0.157  1.00  0.00     0.168 HD
HETATM   18  N5  UNL     1       5.955 -16.837   2.565  1.00  0.00    -0.370 N 
HETATM   19  C7  UNL     1       6.157 -15.703   3.414  1.00  0.00     0.164 A 
ATOM     20  H5  UNL     1       5.916 -17.812   2.863  1.00  0.00     0.161 HD
ENDBRANCH   4  10
BRANCH   1  21
HETATM   21  N1  UNL     1       7.290 -10.169   1.177  1.00  0.00    -0.234 N 
ATOM     22  H12 UNL     1       6.988  -9.198   1.104  1.00  0.00     0.174 HD
ATOM     23  H11 UNL     1       7.925 -10.556   0.480  1.00  0.00     0.174 HD
ENDBRANCH   1  21
TORSDOF 2
ENDMDL
