MODEL 1
REMARK VINA RESULT: -9.002997587      0.000      0.000
REMARK  12 active torsions:
REMARK  status: ('A' for Active; 'I' for Inactive)
REMARK    1  A    between atoms: N1_1  and  C1_5 
REMARK    2  A    between atoms: C1_5  and  C2_6 
REMARK    3  A    between atoms: C2_6  and  N2_7 
REMARK    4  A    between atoms: C2_6  and  C3_11 
REMARK       I    between atoms: C3_11  and  N3_13 
REMARK    5  A    between atoms: N3_13  and  C4_15 
REMARK    6  A    between atoms: C5_18  and  O2_19 
REMARK    7  A    between atoms: C6_21  and  C7_22 
REMARK    8  A    between atoms: N5_23  and  O3_25 
REMARK    9  A    between atoms: C9_29  and  N6_30 
REMARK       I    between atoms: N6_30  and  C10_32 
REMARK   10  A    between atoms: C10_32  and  C11_34 
REMARK       I    between atoms: C11_34  and  N7_36 
REMARK   11  A    between atoms: N7_36  and  N8_38 
REMARK   12  A    between atoms: N8_38  and  N9_40 
ROOT
HETATM    1  C4  UNL     1      -1.611 -33.266  44.543  1.00  0.00     0.688 C 
HETATM    2  N4  UNL     1      -2.852 -33.265  45.045  1.00  0.00    -0.169 N 
ATOM      3  H4  UNL     1      -3.584 -33.161  44.342  1.00  0.00     0.186 HD
HETATM    4  C5  UNL     1      -3.315 -33.376  46.304  1.00  0.00     0.171 C 
HETATM    5  C6  UNL     1      -2.540 -33.132  47.445  1.00  0.00     0.086 C 
HETATM    6  C8  UNL     1      -1.207 -32.802  47.519  1.00  0.00     0.232 C 
HETATM    7  O4  UNL     1      -0.792 -32.352  48.627  1.00  0.00    -0.283 OA
HETATM    8  C9  UNL     1      -0.224 -32.897  46.520  1.00  0.00     0.175 C 
HETATM    9  N10 UNL     1      -0.432 -33.180  45.225  1.00  0.00    -0.172 N 
ATOM     10  H10 UNL     1       0.408 -33.357  44.675  1.00  0.00     0.186 HD
ENDROOT
BRANCH   1  11
HETATM   11  N3  UNL     1      -1.432 -33.358  43.271  1.00  0.00    -0.158 N 
HETATM   12  C3  UNL     1      -2.057 -34.495  42.644  1.00  0.00     0.268 C 
HETATM   13  O1  UNL     1      -3.225 -34.353  42.175  1.00  0.00    -0.270 OA
ATOM     14  H3  UNL     1      -0.887 -32.675  42.745  1.00  0.00     0.187 HD
BRANCH  12  15
HETATM   15  C2  UNL     1      -1.362 -35.808  42.542  1.00  0.00     0.300 C 
BRANCH  15  16
HETATM   16  C1  UNL     1      -2.046 -36.615  41.458  1.00  0.00     0.272 C 
BRANCH  16  17
HETATM   17  N1  UNL     1      -3.059 -37.501  41.976  1.00  0.00    -0.077 N 
ATOM     18  H13 UNL     1      -3.076 -37.481  42.995  1.00  0.00     0.274 HD
ATOM     19  H12 UNL     1      -3.994 -37.136  41.789  1.00  0.00     0.274 HD
ATOM     20  H11 UNL     1      -2.965 -38.456  41.630  1.00  0.00     0.274 HD
ENDBRANCH  16  17
ENDBRANCH  15  16
BRANCH  15  21
HETATM   21  N2  UNL     1      -0.003 -35.589  42.108  1.00  0.00    -0.065 N 
ATOM     22  H23 UNL     1       0.548 -36.446  42.068  1.00  0.00     0.275 HD
ATOM     23  H22 UNL     1       0.068 -35.342  41.121  1.00  0.00     0.275 HD
ATOM     24  H21 UNL     1       0.396 -34.884  42.728  1.00  0.00     0.275 HD
ENDBRANCH  15  21
ENDBRANCH  12  15
ENDBRANCH   1  11
BRANCH   4  25
HETATM   25  O2  UNL     1      -4.636 -33.752  46.511  1.00  0.00    -0.345 OA
ATOM     26  H2  UNL     1      -5.314 -33.393  45.950  1.00  0.00     0.219 HD
ENDBRANCH   4  25
BRANCH   8  27
HETATM   27  N6  UNL     1       0.947 -32.685  46.933  1.00  0.00    -0.301 N 
HETATM   28  C10 UNL     1       1.819 -31.737  46.403  1.00  0.00     0.316 C 
HETATM   29  O5  UNL     1       2.370 -31.962  45.286  1.00  0.00    -0.262 OA
ATOM     30  H6  UNL     1       1.281 -33.248  47.715  1.00  0.00     0.171 HD
BRANCH  28  31
HETATM   31  C11 UNL     1       2.100 -30.490  47.132  1.00  0.00     0.329 C 
HETATM   32  O6  UNL     1       1.172 -29.953  47.791  1.00  0.00    -0.261 OA
HETATM   33  N7  UNL     1       3.403 -29.940  47.065  1.00  0.00    -0.248 N 
ATOM     34  H7  UNL     1       4.123 -30.410  46.517  1.00  0.00     0.192 HD
BRANCH  33  35
HETATM   35  N8  UNL     1       3.704 -28.775  47.736  1.00  0.00    -0.246 N 
ATOM     36  H8  UNL     1       4.422 -28.738  48.461  1.00  0.00     0.207 HD
BRANCH  35  37
HETATM   37  N9  UNL     1       2.978 -27.664  47.369  1.00  0.00    -0.331 N 
ATOM     38  H92 UNL     1       1.977 -27.604  47.554  1.00  0.00     0.178 HD
ATOM     39  H91 UNL     1       3.503 -26.920  46.909  1.00  0.00     0.178 HD
ENDBRANCH  35  37
ENDBRANCH  33  35
ENDBRANCH  28  31
ENDBRANCH   8  27
BRANCH   5  40
HETATM   40  C7  UNL     1      -3.264 -33.248  48.696  1.00  0.00     0.133 C 
HETATM   41  N5  UNL     1      -3.272 -34.339  49.369  1.00  0.00    -0.279 N 
ATOM     42  H5  UNL     1      -2.758 -35.147  49.016  1.00  0.00     0.193 HD
BRANCH  41  43
HETATM   43  O3  UNL     1      -3.957 -34.446  50.554  1.00  0.00    -0.290 OA
ATOM     44  H3  UNL     1      -3.975 -35.259  51.046  1.00  0.00     0.244 HD
ENDBRANCH  41  43
ENDBRANCH   5  40
TORSDOF 12
ENDMDL
MODEL 2
REMARK VINA RESULT: -8.954242130      2.738      5.830
REMARK  12 active torsions:
REMARK  status: ('A' for Active; 'I' for Inactive)
REMARK    1  A    between atoms: N1_1  and  C1_5 
REMARK    2  A    between atoms: C1_5  and  C2_6 
REMARK    3  A    between atoms: C2_6  and  N2_7 
REMARK    4  A    between atoms: C2_6  and  C3_11 
REMARK       I    between atoms: C3_11  and  N3_13 
REMARK    5  A    between atoms: N3_13  and  C4_15 
REMARK    6  A    between atoms: C5_18  and  O2_19 
REMARK    7  A    between atoms: C6_21  and  C7_22 
REMARK    8  A    between atoms: N5_23  and  O3_25 
REMARK    9  A    between atoms: C9_29  and  N6_30 
REMARK       I    between atoms: N6_30  and  C10_32 
REMARK   10  A    between atoms: C10_32  and  C11_34 
REMARK       I    between atoms: C11_34  and  N7_36 
REMARK   11  A    between atoms: N7_36  and  N8_38 
REMARK   12  A    between atoms: N8_38  and  N9_40 
ROOT
HETATM    1  C4  UNL     1      -0.756 -33.784  44.734  1.00  0.00     0.688 C 
HETATM    2  N4  UNL     1       0.034 -33.879  45.811  1.00  0.00    -0.169 N 
ATOM      3  H4  UNL     1       0.932 -34.327  45.628  1.00  0.00     0.186 HD
HETATM    4  C5  UNL     1      -0.134 -33.493  47.089  1.00  0.00     0.171 C 
HETATM    5  C6  UNL     1      -1.383 -33.232  47.667  1.00  0.00     0.086 C 
HETATM    6  C8  UNL     1      -2.623 -33.258  47.074  1.00  0.00     0.232 C 
HETATM    7  O4  UNL     1      -3.625 -33.271  47.847  1.00  0.00    -0.283 OA
HETATM    8  C9  UNL     1      -2.939 -33.273  45.704  1.00  0.00     0.175 C 
HETATM    9  N10 UNL     1      -2.074 -33.431  44.691  1.00  0.00    -0.172 N 
ATOM     10  H10 UNL     1      -2.455 -33.266  43.760  1.00  0.00     0.186 HD
ENDROOT
BRANCH   1  11
HETATM   11  N3  UNL     1      -0.282 -34.039  43.564  1.00  0.00    -0.158 N 
HETATM   12  C3  UNL     1      -1.192 -34.696  42.662  1.00  0.00     0.268 C 
HETATM   13  O1  UNL     1      -1.901 -33.976  41.897  1.00  0.00    -0.270 OA
ATOM     14  H3  UNL     1       0.671 -33.793  43.295  1.00  0.00     0.187 HD
BRANCH  12  15
HETATM   15  C2  UNL     1      -1.310 -36.179  42.616  1.00  0.00     0.300 C 
BRANCH  15  16
HETATM   16  C1  UNL     1      -2.310 -36.536  41.536  1.00  0.00     0.272 C 
BRANCH  16  17
HETATM   17  N1  UNL     1      -3.051 -37.736  41.834  1.00  0.00    -0.077 N 
ATOM     18  H13 UNL     1      -2.808 -38.486  41.188  1.00  0.00     0.274 HD
ATOM     19  H12 UNL     1      -2.729 -38.158  42.705  1.00  0.00     0.274 HD
ATOM     20  H11 UNL     1      -4.060 -37.584  41.854  1.00  0.00     0.274 HD
ENDBRANCH  16  17
ENDBRANCH  15  16
BRANCH  15  21
HETATM   21  N2  UNL     1      -0.041 -36.740  42.216  1.00  0.00    -0.065 N 
ATOM     22  H23 UNL     1       0.175 -37.618  42.689  1.00  0.00     0.275 HD
ATOM     23  H22 UNL     1      -0.045 -37.102  41.263  1.00  0.00     0.275 HD
ATOM     24  H21 UNL     1       0.663 -36.018  42.368  1.00  0.00     0.275 HD
ENDBRANCH  15  21
ENDBRANCH  12  15
ENDBRANCH   1  11
BRANCH   4  25
HETATM   25  O2  UNL     1       0.979 -33.339  47.904  1.00  0.00    -0.345 OA
ATOM     26  H2  UNL     1       1.102 -32.522  48.373  1.00  0.00     0.219 HD
ENDBRANCH   4  25
BRANCH   8  27
HETATM   27  N6  UNL     1      -4.166 -33.121  45.461  1.00  0.00    -0.301 N 
HETATM   28  C10 UNL     1      -4.753 -33.267  44.207  1.00  0.00     0.316 C 
HETATM   29  O5  UNL     1      -4.578 -32.367  43.335  1.00  0.00    -0.262 OA
ATOM     30  H6  UNL     1      -4.774 -32.871  46.241  1.00  0.00     0.171 HD
BRANCH  28  31
HETATM   31  C11 UNL     1      -5.569 -34.452  43.898  1.00  0.00     0.329 C 
HETATM   32  O6  UNL     1      -6.466 -34.797  44.712  1.00  0.00    -0.261 OA
HETATM   33  N7  UNL     1      -5.317 -35.159  42.698  1.00  0.00    -0.248 N 
ATOM     34  H7  UNL     1      -4.579 -34.844  42.070  1.00  0.00     0.192 HD
BRANCH  33  35
HETATM   35  N8  UNL     1      -6.062 -36.272  42.374  1.00  0.00    -0.246 N 
ATOM     36  H8  UNL     1      -5.658 -37.209  42.362  1.00  0.00     0.207 HD
BRANCH  35  37
HETATM   37  N9  UNL     1      -7.385 -36.043  42.067  1.00  0.00    -0.331 N 
ATOM     38  H92 UNL     1      -8.119 -36.667  42.400  1.00  0.00     0.178 HD
ATOM     39  H91 UNL     1      -7.573 -35.221  41.493  1.00  0.00     0.178 HD
ENDBRANCH  35  37
ENDBRANCH  33  35
ENDBRANCH  28  31
ENDBRANCH   8  27
BRANCH   5  40
HETATM   40  C7  UNL     1      -1.331 -32.895  49.076  1.00  0.00     0.133 C 
HETATM   41  N5  UNL     1      -1.405 -33.795  49.987  1.00  0.00    -0.279 N 
ATOM     42  H5  UNL     1      -1.504 -34.773  49.713  1.00  0.00     0.193 HD
BRANCH  41  43
HETATM   43  O3  UNL     1      -1.356 -33.473  51.320  1.00  0.00    -0.290 OA
ATOM     44  H3  UNL     1      -1.535 -34.118  51.994  1.00  0.00     0.244 HD
ENDBRANCH  41  43
ENDBRANCH   5  40
TORSDOF 12
ENDMDL
MODEL 3
REMARK VINA RESULT: -8.880222106      2.675      6.281
REMARK  12 active torsions:
REMARK  status: ('A' for Active; 'I' for Inactive)
REMARK    1  A    between atoms: N1_1  and  C1_5 
REMARK    2  A    between atoms: C1_5  and  C2_6 
REMARK    3  A    between atoms: C2_6  and  N2_7 
REMARK    4  A    between atoms: C2_6  and  C3_11 
REMARK       I    between atoms: C3_11  and  N3_13 
REMARK    5  A    between atoms: N3_13  and  C4_15 
REMARK    6  A    between atoms: C5_18  and  O2_19 
REMARK    7  A    between atoms: C6_21  and  C7_22 
REMARK    8  A    between atoms: N5_23  and  O3_25 
REMARK    9  A    between atoms: C9_29  and  N6_30 
REMARK       I    between atoms: N6_30  and  C10_32 
REMARK   10  A    between atoms: C10_32  and  C11_34 
REMARK       I    between atoms: C11_34  and  N7_36 
REMARK   11  A    between atoms: N7_36  and  N8_38 
REMARK   12  A    between atoms: N8_38  and  N9_40 
ROOT
HETATM    1  C4  UNL     1      -1.060 -33.514  42.589  1.00  0.00     0.688 C 
HETATM    2  N4  UNL     1       0.161 -33.402  43.126  1.00  0.00    -0.169 N 
ATOM      3  H4  UNL     1       0.913 -33.731  42.520  1.00  0.00     0.186 HD
HETATM    4  C5  UNL     1       0.583 -32.937  44.316  1.00  0.00     0.171 C 
HETATM    5  C6  UNL     1      -0.242 -32.809  45.441  1.00  0.00     0.086 C 
HETATM    6  C8  UNL     1      -1.589 -33.063  45.548  1.00  0.00     0.232 C 
HETATM    7  O4  UNL     1      -2.061 -33.153  46.718  1.00  0.00    -0.283 OA
HETATM    8  C9  UNL     1      -2.531 -33.240  44.520  1.00  0.00     0.175 C 
HETATM    9  N10 UNL     1      -2.265 -33.359  43.211  1.00  0.00    -0.172 N 
ATOM     10  H10 UNL     1      -3.077 -33.330  42.594  1.00  0.00     0.186 HD
ENDROOT
BRANCH   1  11
HETATM   11  N3  UNL     1      -1.189 -33.798  41.339  1.00  0.00    -0.158 N 
HETATM   12  C3  UNL     1      -2.142 -34.836  41.040  1.00  0.00     0.268 C 
HETATM   13  O1  UNL     1      -3.336 -34.498  40.787  1.00  0.00    -0.270 OA
ATOM     14  H3  UNL     1      -0.655 -33.321  40.613  1.00  0.00     0.187 HD
BRANCH  12  15
HETATM   15  C2  UNL     1      -1.750 -36.273  41.025  1.00  0.00     0.300 C 
BRANCH  15  16
HETATM   16  C1  UNL     1      -0.688 -36.479  42.085  1.00  0.00     0.272 C 
BRANCH  16  17
HETATM   17  N1  UNL     1      -1.242 -36.744  43.389  1.00  0.00    -0.077 N 
ATOM     18  H13 UNL     1      -1.430 -35.876  43.890  1.00  0.00     0.274 HD
ATOM     19  H12 UNL     1      -2.195 -37.101  43.315  1.00  0.00     0.274 HD
ATOM     20  H11 UNL     1      -0.661 -37.369  43.947  1.00  0.00     0.274 HD
ENDBRANCH  16  17
ENDBRANCH  15  16
BRANCH  15  21
HETATM   21  N2  UNL     1      -2.887 -37.075  41.408  1.00  0.00    -0.065 N 
ATOM     22  H23 UNL     1      -3.760 -36.548  41.428  1.00  0.00     0.275 HD
ATOM     23  H22 UNL     1      -3.158 -37.752  40.695  1.00  0.00     0.275 HD
ATOM     24  H21 UNL     1      -2.658 -37.506  42.303  1.00  0.00     0.275 HD
ENDBRANCH  15  21
ENDBRANCH  12  15
ENDBRANCH   1  11
BRANCH   4  25
HETATM   25  O2  UNL     1       1.910 -32.555  44.464  1.00  0.00    -0.345 OA
ATOM     26  H2  UNL     1       2.518 -33.147  44.893  1.00  0.00     0.219 HD
ENDBRANCH   4  25
BRANCH   8  27
HETATM   27  N6  UNL     1      -3.723 -33.286  44.923  1.00  0.00    -0.301 N 
HETATM   28  C10 UNL     1      -4.845 -33.262  44.097  1.00  0.00     0.316 C 
HETATM   29  O5  UNL     1      -5.184 -32.174  43.549  1.00  0.00    -0.262 OA
ATOM     30  H6  UNL     1      -3.880 -33.344  45.929  1.00  0.00     0.171 HD
BRANCH  28  31
HETATM   31  C11 UNL     1      -5.627 -34.487  43.864  1.00  0.00     0.329 C 
HETATM   32  O6  UNL     1      -6.466 -34.841  44.733  1.00  0.00    -0.261 OA
HETATM   33  N7  UNL     1      -5.407 -35.221  42.674  1.00  0.00    -0.248 N 
ATOM     34  H7  UNL     1      -4.714 -34.896  42.000  1.00  0.00     0.192 HD
BRANCH  33  35
HETATM   35  N8  UNL     1      -6.121 -36.371  42.421  1.00  0.00    -0.246 N 
ATOM     36  H8  UNL     1      -5.721 -37.299  42.558  1.00  0.00     0.207 HD
BRANCH  35  37
HETATM   37  N9  UNL     1      -7.411 -36.192  41.970  1.00  0.00    -0.331 N 
ATOM     38  H92 UNL     1      -7.617 -35.550  41.205  1.00  0.00     0.178 HD
ATOM     39  H91 UNL     1      -8.130 -36.737  42.446  1.00  0.00     0.178 HD
ENDBRANCH  35  37
ENDBRANCH  33  35
ENDBRANCH  28  31
ENDBRANCH   8  27
BRANCH   5  40
HETATM   40  C7  UNL     1       0.441 -32.348  46.634  1.00  0.00     0.133 C 
HETATM   41  N5  UNL     1       1.001 -33.166  47.448  1.00  0.00    -0.279 N 
ATOM     42  H5  UNL     1       0.964 -34.167  47.251  1.00  0.00     0.193 HD
BRANCH  41  43
HETATM   43  O3  UNL     1       1.647 -32.727  48.576  1.00  0.00    -0.290 OA
ATOM     44  H3  UNL     1       1.911 -31.820  48.676  1.00  0.00     0.244 HD
ENDBRANCH  41  43
ENDBRANCH   5  40
TORSDOF 12
ENDMDL
MODEL 4
REMARK VINA RESULT: -8.243522067      2.809      5.896
REMARK  12 active torsions:
REMARK  status: ('A' for Active; 'I' for Inactive)
REMARK    1  A    between atoms: N1_1  and  C1_5 
REMARK    2  A    between atoms: C1_5  and  C2_6 
REMARK    3  A    between atoms: C2_6  and  N2_7 
REMARK    4  A    between atoms: C2_6  and  C3_11 
REMARK       I    between atoms: C3_11  and  N3_13 
REMARK    5  A    between atoms: N3_13  and  C4_15 
REMARK    6  A    between atoms: C5_18  and  O2_19 
REMARK    7  A    between atoms: C6_21  and  C7_22 
REMARK    8  A    between atoms: N5_23  and  O3_25 
REMARK    9  A    between atoms: C9_29  and  N6_30 
REMARK       I    between atoms: N6_30  and  C10_32 
REMARK   10  A    between atoms: C10_32  and  C11_34 
REMARK       I    between atoms: C11_34  and  N7_36 
REMARK   11  A    between atoms: N7_36  and  N8_38 
REMARK   12  A    between atoms: N8_38  and  N9_40 
ROOT
HETATM    1  C4  UNL     1      -0.316 -33.635  44.959  1.00  0.00     0.688 C 
HETATM    2  N4  UNL     1      -0.027 -33.897  46.239  1.00  0.00    -0.169 N 
ATOM      3  H4  UNL     1       0.873 -34.357  46.376  1.00  0.00     0.186 HD
HETATM    4  C5  UNL     1      -0.701 -33.667  47.381  1.00  0.00     0.171 C 
HETATM    5  C6  UNL     1      -2.080 -33.428  47.437  1.00  0.00     0.086 C 
HETATM    6  C8  UNL     1      -2.975 -33.326  46.398  1.00  0.00     0.232 C 
HETATM    7  O4  UNL     1      -4.204 -33.392  46.694  1.00  0.00    -0.283 OA
HETATM    8  C9  UNL     1      -2.710 -33.156  45.028  1.00  0.00     0.175 C 
HETATM    9  N10 UNL     1      -1.508 -33.223  44.437  1.00  0.00    -0.172 N 
ATOM     10  H10 UNL     1      -1.482 -32.926  43.462  1.00  0.00     0.186 HD
ENDROOT
BRANCH   1  11
HETATM   11  N3  UNL     1       0.593 -33.762  44.056  1.00  0.00    -0.158 N 
HETATM   12  C3  UNL     1       0.106 -33.893  42.707  1.00  0.00     0.268 C 
HETATM   13  O1  UNL     1      -0.025 -32.841  42.013  1.00  0.00    -0.270 OA
ATOM     14  H3  UNL     1       1.589 -33.769  44.280  1.00  0.00     0.187 HD
BRANCH  12  15
HETATM   15  C2  UNL     1      -0.241 -35.220  42.129  1.00  0.00     0.300 C 
BRANCH  15  16
HETATM   16  C1  UNL     1      -0.717 -36.112  43.257  1.00  0.00     0.272 C 
BRANCH  16  17
HETATM   17  N1  UNL     1      -1.972 -36.759  42.967  1.00  0.00    -0.077 N 
ATOM     18  H13 UNL     1      -2.607 -36.124  42.484  1.00  0.00     0.274 HD
ATOM     19  H12 UNL     1      -1.859 -37.465  42.238  1.00  0.00     0.274 HD
ATOM     20  H11 UNL     1      -2.413 -37.157  43.795  1.00  0.00     0.274 HD
ENDBRANCH  16  17
ENDBRANCH  15  16
BRANCH  15  21
HETATM   21  N2  UNL     1      -1.351 -35.063  41.220  1.00  0.00    -0.065 N 
ATOM     22  H23 UNL     1      -2.137 -35.675  41.438  1.00  0.00     0.275 HD
ATOM     23  H22 UNL     1      -1.840 -34.175  41.335  1.00  0.00     0.275 HD
ATOM     24  H21 UNL     1      -0.985 -35.200  40.278  1.00  0.00     0.275 HD
ENDBRANCH  15  21
ENDBRANCH  12  15
ENDBRANCH   1  11
BRANCH   4  25
HETATM   25  O2  UNL     1      -0.014 -33.665  48.587  1.00  0.00    -0.345 OA
ATOM     26  H2  UNL     1       0.921 -33.837  48.590  1.00  0.00     0.219 HD
ENDBRANCH   4  25
BRANCH   8  27
HETATM   27  N6  UNL     1      -3.736 -32.921  44.335  1.00  0.00    -0.301 N 
HETATM   28  C10 UNL     1      -4.104 -33.629  43.194  1.00  0.00     0.316 C 
HETATM   29  O5  UNL     1      -3.466 -33.440  42.118  1.00  0.00    -0.262 OA
ATOM     30  H6  UNL     1      -4.341 -32.156  44.633  1.00  0.00     0.171 HD
BRANCH  28  31
HETATM   31  C11 UNL     1      -5.224 -34.583  43.236  1.00  0.00     0.329 C 
HETATM   32  O6  UNL     1      -6.087 -34.462  44.144  1.00  0.00    -0.261 OA
HETATM   33  N7  UNL     1      -5.289 -35.601  42.255  1.00  0.00    -0.248 N 
ATOM     34  H7  UNL     1      -4.565 -35.662  41.539  1.00  0.00     0.192 HD
BRANCH  33  35
HETATM   35  N8  UNL     1      -6.323 -36.512  42.260  1.00  0.00    -0.246 N 
ATOM     36  H8  UNL     1      -6.162 -37.512  42.376  1.00  0.00     0.207 HD
BRANCH  35  37
HETATM   37  N9  UNL     1      -7.587 -35.988  42.100  1.00  0.00    -0.331 N 
ATOM     38  H92 UNL     1      -8.132 -35.673  42.901  1.00  0.00     0.178 HD
ATOM     39  H91 UNL     1      -7.932 -35.941  41.141  1.00  0.00     0.178 HD
ENDBRANCH  35  37
ENDBRANCH  33  35
ENDBRANCH  28  31
ENDBRANCH   8  27
BRANCH   5  40
HETATM   40  C7  UNL     1      -2.606 -33.272  48.780  1.00  0.00     0.133 C 
HETATM   41  N5  UNL     1      -3.100 -34.261  49.428  1.00  0.00    -0.279 N 
ATOM     42  H5  UNL     1      -3.125 -35.182  48.989  1.00  0.00     0.193 HD
BRANCH  41  43
HETATM   43  O3  UNL     1      -3.596 -34.111  50.699  1.00  0.00    -0.290 OA
ATOM     44  H3  UNL     1      -4.531 -34.080  50.867  1.00  0.00     0.244 HD
ENDBRANCH  41  43
ENDBRANCH   5  40
TORSDOF 12
ENDMDL
MODEL 5
REMARK VINA RESULT: -8.170855141      2.785      5.802
REMARK  12 active torsions:
REMARK  status: ('A' for Active; 'I' for Inactive)
REMARK    1  A    between atoms: N1_1  and  C1_5 
REMARK    2  A    between atoms: C1_5  and  C2_6 
REMARK    3  A    between atoms: C2_6  and  N2_7 
REMARK    4  A    between atoms: C2_6  and  C3_11 
REMARK       I    between atoms: C3_11  and  N3_13 
REMARK    5  A    between atoms: N3_13  and  C4_15 
REMARK    6  A    between atoms: C5_18  and  O2_19 
REMARK    7  A    between atoms: C6_21  and  C7_22 
REMARK    8  A    between atoms: N5_23  and  O3_25 
REMARK    9  A    between atoms: C9_29  and  N6_30 
REMARK       I    between atoms: N6_30  and  C10_32 
REMARK   10  A    between atoms: C10_32  and  C11_34 
REMARK       I    between atoms: C11_34  and  N7_36 
REMARK   11  A    between atoms: N7_36  and  N8_38 
REMARK   12  A    between atoms: N8_38  and  N9_40 
ROOT
HETATM    1  C4  UNL     1      -3.424 -33.430  45.552  1.00  0.00     0.688 C 
HETATM    2  N4  UNL     1      -4.736 -33.683  45.473  1.00  0.00    -0.169 N 
ATOM      3  H4  UNL     1      -5.228 -33.605  46.363  1.00  0.00     0.186 HD
HETATM    4  C5  UNL     1      -5.529 -34.021  44.439  1.00  0.00     0.171 C 
HETATM    5  C6  UNL     1      -5.055 -34.566  43.239  1.00  0.00     0.086 C 
HETATM    6  C8  UNL     1      -3.754 -34.806  42.862  1.00  0.00     0.232 C 
HETATM    7  O4  UNL     1      -3.580 -35.562  41.861  1.00  0.00    -0.283 OA
HETATM    8  C9  UNL     1      -2.570 -34.321  43.444  1.00  0.00     0.175 C 
HETATM    9  N10 UNL     1      -2.471 -33.648  44.599  1.00  0.00    -0.172 N 
ATOM     10  H10 UNL     1      -1.555 -33.242  44.793  1.00  0.00     0.186 HD
ENDROOT
BRANCH   1  11
HETATM   11  N3  UNL     1      -2.932 -32.917  46.625  1.00  0.00    -0.158 N 
HETATM   12  C3  UNL     1      -1.587 -33.325  46.941  1.00  0.00     0.268 C 
HETATM   13  O1  UNL     1      -0.630 -32.615  46.512  1.00  0.00    -0.270 OA
ATOM     14  H3  UNL     1      -3.457 -32.267  47.210  1.00  0.00     0.187 HD
BRANCH  12  15
HETATM   15  C2  UNL     1      -1.312 -34.545  47.749  1.00  0.00     0.300 C 
BRANCH  15  16
HETATM   16  C1  UNL     1      -0.365 -34.162  48.867  1.00  0.00     0.272 C 
BRANCH  16  17
HETATM   17  N1  UNL     1       0.978 -33.915  48.404  1.00  0.00    -0.077 N 
ATOM     18  H13 UNL     1       1.029 -33.972  47.387  1.00  0.00     0.274 HD
ATOM     19  H12 UNL     1       1.232 -32.934  48.527  1.00  0.00     0.274 HD
ATOM     20  H11 UNL     1       1.666 -34.529  48.839  1.00  0.00     0.274 HD
ENDBRANCH  16  17
ENDBRANCH  15  16
BRANCH  15  21
HETATM   21  N2  UNL     1      -2.539 -34.985  48.369  1.00  0.00    -0.065 N 
ATOM     22  H23 UNL     1      -2.468 -35.066  49.383  1.00  0.00     0.275 HD
ATOM     23  H22 UNL     1      -3.276 -34.280  48.344  1.00  0.00     0.275 HD
ATOM     24  H21 UNL     1      -2.804 -35.859  47.914  1.00  0.00     0.275 HD
ENDBRANCH  15  21
ENDBRANCH  12  15
ENDBRANCH   1  11
BRANCH   4  25
HETATM   25  O2  UNL     1      -6.900 -33.829  44.543  1.00  0.00    -0.345 OA
ATOM     26  H2  UNL     1      -7.234 -33.186  45.157  1.00  0.00     0.219 HD
ENDBRANCH   4  25
BRANCH   8  27
HETATM   27  N6  UNL     1      -1.533 -34.572  42.774  1.00  0.00    -0.301 N 
HETATM   28  C10 UNL     1      -0.844 -33.643  41.997  1.00  0.00     0.316 C 
HETATM   29  O5  UNL     1      -1.338 -33.276  40.893  1.00  0.00    -0.262 OA
ATOM     30  H6  UNL     1      -1.171 -35.524  42.803  1.00  0.00     0.171 HD
BRANCH  28  31
HETATM   31  C11 UNL     1       0.445 -33.098  42.453  1.00  0.00     0.329 C 
HETATM   32  O6  UNL     1       1.245 -32.642  41.595  1.00  0.00    -0.261 OA
HETATM   33  N7  UNL     1       0.737 -33.107  43.838  1.00  0.00    -0.248 N 
ATOM     34  H7  UNL     1       0.059 -33.489  44.496  1.00  0.00     0.192 HD
BRANCH  33  35
HETATM   35  N8  UNL     1       1.933 -32.604  44.303  1.00  0.00    -0.246 N 
ATOM     36  H8  UNL     1       2.793 -32.662  43.758  1.00  0.00     0.207 HD
BRANCH  35  37
HETATM   37  N9  UNL     1       1.895 -32.016  45.548  1.00  0.00    -0.331 N 
ATOM     38  H92 UNL     1       1.739 -31.014  45.654  1.00  0.00     0.178 HD
ATOM     39  H91 UNL     1       2.033 -32.643  46.341  1.00  0.00     0.178 HD
ENDBRANCH  35  37
ENDBRANCH  33  35
ENDBRANCH  28  31
ENDBRANCH   8  27
BRANCH   5  40
HETATM   40  C7  UNL     1      -6.093 -34.916  42.289  1.00  0.00     0.133 C 
HETATM   41  N5  UNL     1      -6.615 -36.087  42.263  1.00  0.00    -0.279 N 
ATOM     42  H5  UNL     1      -6.291 -36.791  42.926  1.00  0.00     0.193 HD
BRANCH  41  43
HETATM   43  O3  UNL     1      -7.598 -36.415  41.363  1.00  0.00    -0.290 OA
ATOM     44  H3  UNL     1      -7.624 -37.267  40.943  1.00  0.00     0.244 HD
ENDBRANCH  41  43
ENDBRANCH   5  40
TORSDOF 12
ENDMDL
