MODEL 1
REMARK VINA RESULT: -7.999264490      0.000      0.000
REMARK  7 active torsions:
REMARK  status: ('A' for Active; 'I' for Inactive)
REMARK       I    between atoms: C1_2  and  N2_4 
REMARK    1  A    between atoms: N2_4  and  N3_6 
REMARK       I    between atoms: N3_6  and  C2_8 
REMARK    2  A    between atoms: C2_8  and  C3_10 
REMARK    3  A    between atoms: C4_11  and  N4_12 
REMARK    4  A    between atoms: C4_11  and  C5_16 
REMARK    5  A    between atoms: C7_21  and  C8_22 
REMARK    6  A    between atoms: C10_29  and  O7_30 
REMARK    7  A    between atoms: C11_32  and  O8_33 
ROOT
HETATM    1  C3  UNL     1      -4.095 -34.243  43.391  1.00  0.00     0.102 C 
HETATM    2  C4  UNL     1      -5.360 -33.519  43.276  1.00  0.00     0.305 C 
HETATM    3  C6  UNL     1      -6.489 -33.970  42.426  1.00  0.00     0.207 C 
HETATM    4  O5  UNL     1      -7.249 -34.730  42.874  1.00  0.00    -0.291 OA
HETATM    5  C7  UNL     1      -6.794 -33.534  40.949  1.00  0.00     0.219 C 
HETATM    6  N5  UNL     1      -5.327 -33.352  40.535  1.00  0.00    -0.345 N 
ATOM      7  H5  UNL     1      -5.075 -32.479  40.072  1.00  0.00     0.163 HD
HETATM    8  C9  UNL     1      -4.383 -34.219  40.727  1.00  0.00     0.176 C 
HETATM    9  N6  UNL     1      -3.041 -33.844  40.289  1.00  0.00    -0.332 N 
ATOM     10  H6  UNL     1      -2.723 -33.418  39.418  1.00  0.00     0.165 HD
HETATM   11  C10 UNL     1      -2.266 -34.276  41.505  1.00  0.00     0.281 C 
HETATM   12  C11 UNL     1      -3.283 -34.897  42.417  1.00  0.00     0.212 C 
HETATM   13  N7  UNL     1      -4.185 -35.488  41.321  1.00  0.00    -0.323 N 
ATOM     14  H7  UNL     1      -4.514 -36.429  41.106  1.00  0.00     0.166 HD
ENDROOT
BRANCH   1  15
HETATM   15  C2  UNL     1      -3.224 -33.390  44.284  1.00  0.00     0.270 C 
HETATM   16  N3  UNL     1      -2.825 -33.804  45.589  1.00  0.00    -0.262 N 
ATOM     17  H3  UNL     1      -3.138 -34.713  45.930  1.00  0.00     0.190 HD
HETATM   18  O2  UNL     1      -2.804 -32.262  43.923  1.00  0.00    -0.266 OA
BRANCH  16  19
HETATM   19  N2  UNL     1      -2.029 -33.020  46.414  1.00  0.00    -0.251 N 
HETATM   20  C1  UNL     1      -0.679 -33.259  46.738  1.00  0.00     0.347 C 
HETATM   21  N1  UNL     1       0.047 -32.390  47.597  1.00  0.00    -0.038 NA
HETATM   22  O1  UNL     1      -0.029 -34.242  46.298  1.00  0.00    -0.249 OA
ATOM     23  H2  UNL     1      -2.462 -32.193  46.825  1.00  0.00     0.191 HD
ENDBRANCH  16  19
ENDBRANCH   1  15
BRANCH   2  24
HETATM   24  N4  UNL     1      -5.124 -32.073  43.017  1.00  0.00    -0.049 N 
ATOM     25  H43 UNL     1      -5.837 -31.491  43.458  1.00  0.00     0.276 HD
ATOM     26  H42 UNL     1      -4.308 -31.728  43.523  1.00  0.00     0.276 HD
ATOM     27  H41 UNL     1      -5.053 -31.889  42.016  1.00  0.00     0.276 HD
ENDBRANCH   2  24
BRANCH   2  28
HETATM   28  C5  UNL     1      -5.983 -33.540  44.657  1.00  0.00     0.223 C 
HETATM   29  O3  UNL     1      -6.503 -32.478  45.071  1.00  0.00    -0.646 OA
HETATM   30  O4  UNL     1      -5.976 -34.666  45.409  1.00  0.00    -0.646 OA
ENDBRANCH   2  28
BRANCH  12  31
HETATM   31  O8  UNL     1      -2.613 -35.980  43.002  1.00  0.00    -0.363 OA
ATOM     32  H8  UNL     1      -2.342 -35.754  43.884  1.00  0.00     0.213 HD
ENDBRANCH  12  31
BRANCH  11  33
HETATM   33  O7  UNL     1      -1.476 -35.332  40.968  1.00  0.00    -0.371 OA
ATOM     34  H7  UNL     1      -1.600 -35.198  40.035  1.00  0.00     0.212 HD
ENDBRANCH  11  33
BRANCH   5  35
HETATM   35  C8  UNL     1      -7.283 -34.664  40.172  1.00  0.00     0.264 C 
HETATM   36  O6  UNL     1      -7.027 -35.820  40.479  1.00  0.00    -0.304 OA
ENDBRANCH   5  35
TORSDOF 7
ENDMDL
MODEL 2
REMARK VINA RESULT: -7.996933165      1.948      2.216
REMARK  7 active torsions:
REMARK  status: ('A' for Active; 'I' for Inactive)
REMARK       I    between atoms: C1_2  and  N2_4 
REMARK    1  A    between atoms: N2_4  and  N3_6 
REMARK       I    between atoms: N3_6  and  C2_8 
REMARK    2  A    between atoms: C2_8  and  C3_10 
REMARK    3  A    between atoms: C4_11  and  N4_12 
REMARK    4  A    between atoms: C4_11  and  C5_16 
REMARK    5  A    between atoms: C7_21  and  C8_22 
REMARK    6  A    between atoms: C10_29  and  O7_30 
REMARK    7  A    between atoms: C11_32  and  O8_33 
ROOT
HETATM    1  C3  UNL     1      -2.370 -34.801  43.437  1.00  0.00     0.102 C 
HETATM    2  C4  UNL     1      -3.581 -34.056  43.090  1.00  0.00     0.305 C 
HETATM    3  C6  UNL     1      -4.878 -34.701  42.769  1.00  0.00     0.207 C 
HETATM    4  O5  UNL     1      -5.593 -34.970  43.648  1.00  0.00    -0.291 OA
HETATM    5  C7  UNL     1      -5.421 -35.076  41.345  1.00  0.00     0.219 C 
HETATM    6  N5  UNL     1      -4.048 -35.384  40.732  1.00  0.00    -0.345 N 
ATOM      7  H5  UNL     1      -3.825 -34.947  39.838  1.00  0.00     0.163 HD
HETATM    8  C9  UNL     1      -3.149 -36.154  41.259  1.00  0.00     0.176 C 
HETATM    9  N6  UNL     1      -1.889 -36.294  40.532  1.00  0.00    -0.332 N 
ATOM     10  H6  UNL     1      -1.710 -36.455  39.541  1.00  0.00     0.165 HD
HETATM   11  C10 UNL     1      -0.933 -36.130  41.684  1.00  0.00     0.281 C 
HETATM   12  C11 UNL     1      -1.804 -35.995  42.899  1.00  0.00     0.212 C 
HETATM   13  N7  UNL     1      -2.934 -36.923  42.426  1.00  0.00    -0.323 N 
ATOM     14  H7  UNL     1      -3.364 -37.767  42.808  1.00  0.00     0.166 HD
ENDROOT
BRANCH   1  15
HETATM   15  C2  UNL     1      -1.290 -33.758  43.600  1.00  0.00     0.270 C 
HETATM   16  N3  UNL     1      -0.541 -33.611  44.804  1.00  0.00    -0.262 N 
ATOM     17  H3  UNL     1      -0.741 -34.239  45.584  1.00  0.00     0.190 HD
HETATM   18  O2  UNL     1      -0.993 -32.956  42.679  1.00  0.00    -0.266 OA
BRANCH  16  19
HETATM   19  N2  UNL     1       0.450 -32.650  44.960  1.00  0.00    -0.251 N 
HETATM   20  C1  UNL     1       1.079 -32.293  46.168  1.00  0.00     0.347 C 
HETATM   21  N1  UNL     1       2.087 -31.291  46.217  1.00  0.00    -0.038 NA
HETATM   22  O1  UNL     1       0.802 -32.827  47.273  1.00  0.00    -0.249 OA
ATOM     23  H2  UNL     1       0.750 -32.156  44.120  1.00  0.00     0.191 HD
ENDBRANCH  16  19
ENDBRANCH   1  15
BRANCH   2  24
HETATM   24  N4  UNL     1      -3.295 -33.031  42.049  1.00  0.00    -0.049 N 
ATOM     25  H43 UNL     1      -3.029 -32.138  42.464  1.00  0.00     0.276 HD
ATOM     26  H42 UNL     1      -2.429 -33.234  41.550  1.00  0.00     0.276 HD
ATOM     27  H41 UNL     1      -4.084 -32.930  41.410  1.00  0.00     0.276 HD
ENDBRANCH   2  24
BRANCH   2  28
HETATM   28  C5  UNL     1      -3.935 -33.236  44.313  1.00  0.00     0.223 C 
HETATM   29  O3  UNL     1      -4.799 -32.339  44.177  1.00  0.00    -0.646 OA
HETATM   30  O4  UNL     1      -3.337 -33.470  45.506  1.00  0.00    -0.646 OA
ENDBRANCH   2  28
BRANCH  12  31
HETATM   31  O8  UNL     1      -1.116 -36.690  43.902  1.00  0.00    -0.363 OA
ATOM     32  H8  UNL     1      -1.271 -37.623  43.814  1.00  0.00     0.213 HD
ENDBRANCH  12  31
BRANCH  11  33
HETATM   33  O7  UNL     1      -0.335 -37.421  41.732  1.00  0.00    -0.371 OA
ATOM     34  H7  UNL     1       0.516 -37.216  42.104  1.00  0.00     0.212 HD
ENDBRANCH  11  33
BRANCH   5  35
HETATM   35  C8  UNL     1      -6.125 -36.350  41.386  1.00  0.00     0.264 C 
HETATM   36  O6  UNL     1      -7.336 -36.425  41.227  1.00  0.00    -0.304 OA
ENDBRANCH   5  35
TORSDOF 7
ENDMDL
MODEL 3
REMARK VINA RESULT: -7.796607070      1.134      1.144
REMARK  7 active torsions:
REMARK  status: ('A' for Active; 'I' for Inactive)
REMARK       I    between atoms: C1_2  and  N2_4 
REMARK    1  A    between atoms: N2_4  and  N3_6 
REMARK       I    between atoms: N3_6  and  C2_8 
REMARK    2  A    between atoms: C2_8  and  C3_10 
REMARK    3  A    between atoms: C4_11  and  N4_12 
REMARK    4  A    between atoms: C4_11  and  C5_16 
REMARK    5  A    between atoms: C7_21  and  C8_22 
REMARK    6  A    between atoms: C10_29  and  O7_30 
REMARK    7  A    between atoms: C11_32  and  O8_33 
ROOT
HETATM    1  C3  UNL     1      -3.443 -34.441  43.534  1.00  0.00     0.102 C 
HETATM    2  C4  UNL     1      -4.716 -33.720  43.536  1.00  0.00     0.305 C 
HETATM    3  C6  UNL     1      -6.008 -34.337  43.149  1.00  0.00     0.207 C 
HETATM    4  O5  UNL     1      -6.613 -34.908  43.965  1.00  0.00    -0.291 OA
HETATM    5  C7  UNL     1      -6.681 -34.314  41.732  1.00  0.00     0.219 C 
HETATM    6  N5  UNL     1      -5.369 -34.321  40.937  1.00  0.00    -0.345 N 
ATOM      7  H5  UNL     1      -5.262 -33.623  40.201  1.00  0.00     0.163 HD
HETATM    8  C9  UNL     1      -4.385 -35.142  41.125  1.00  0.00     0.176 C 
HETATM    9  N6  UNL     1      -3.203 -34.965  40.284  1.00  0.00    -0.332 N 
ATOM     10  H6  UNL     1      -3.123 -34.811  39.279  1.00  0.00     0.165 HD
HETATM   11  C10 UNL     1      -2.139 -35.078  41.343  1.00  0.00     0.281 C 
HETATM   12  C11 UNL     1      -2.882 -35.375  42.613  1.00  0.00     0.212 C 
HETATM   13  N7  UNL     1      -4.012 -36.204  41.983  1.00  0.00    -0.323 N 
ATOM     14  H7  UNL     1      -4.360 -37.153  42.127  1.00  0.00     0.166 HD
ENDROOT
BRANCH   1  15
HETATM   15  C2  UNL     1      -2.400 -33.414  43.910  1.00  0.00     0.270 C 
HETATM   16  N3  UNL     1      -1.481 -33.611  44.982  1.00  0.00    -0.262 N 
ATOM     17  H3  UNL     1      -1.529 -34.481  45.513  1.00  0.00     0.190 HD
HETATM   18  O2  UNL     1      -2.287 -32.324  43.296  1.00  0.00    -0.266 OA
BRANCH  16  19
HETATM   19  N2  UNL     1      -0.524 -32.668  45.334  1.00  0.00    -0.251 N 
HETATM   20  C1  UNL     1       0.462 -32.815  46.328  1.00  0.00     0.347 C 
HETATM   21  N1  UNL     1       1.398 -31.782  46.610  1.00  0.00    -0.038 NA
HETATM   22  O1  UNL     1       0.586 -33.854  47.027  1.00  0.00    -0.249 OA
ATOM     23  H2  UNL     1      -0.537 -31.785  44.824  1.00  0.00     0.191 HD
ENDBRANCH  16  19
ENDBRANCH   1  15
BRANCH   2  24
HETATM   24  N4  UNL     1      -4.589 -32.414  42.833  1.00  0.00    -0.049 N 
ATOM     25  H43 UNL     1      -5.297 -31.750  43.143  1.00  0.00     0.276 HD
ATOM     26  H42 UNL     1      -3.757 -31.905  43.132  1.00  0.00     0.276 HD
ATOM     27  H41 UNL     1      -4.608 -32.542  41.821  1.00  0.00     0.276 HD
ENDBRANCH   2  24
BRANCH   2  28
HETATM   28  C5  UNL     1      -4.975 -33.329  44.975  1.00  0.00     0.223 C 
HETATM   29  O3  UNL     1      -6.008 -32.661  45.215  1.00  0.00    -0.646 OA
HETATM   30  O4  UNL     1      -4.120 -33.691  45.962  1.00  0.00    -0.646 OA
ENDBRANCH   2  28
BRANCH  12  31
HETATM   31  O8  UNL     1      -2.060 -36.282  43.294  1.00  0.00    -0.363 OA
ATOM     32  H8  UNL     1      -1.239 -35.865  43.526  1.00  0.00     0.213 HD
ENDBRANCH  12  31
BRANCH  11  33
HETATM   33  O7  UNL     1      -1.481 -36.276  40.946  1.00  0.00    -0.371 OA
ATOM     34  H7  UNL     1      -0.714 -35.928  40.505  1.00  0.00     0.212 HD
ENDBRANCH  11  33
BRANCH   5  35
HETATM   35  C8  UNL     1      -7.319 -35.591  41.447  1.00  0.00     0.264 C 
HETATM   36  O6  UNL     1      -7.338 -36.068  40.321  1.00  0.00    -0.304 OA
ENDBRANCH   5  35
TORSDOF 7
ENDMDL
MODEL 4
REMARK VINA RESULT: -7.245974547      1.680      3.761
REMARK  7 active torsions:
REMARK  status: ('A' for Active; 'I' for Inactive)
REMARK       I    between atoms: C1_2  and  N2_4 
REMARK    1  A    between atoms: N2_4  and  N3_6 
REMARK       I    between atoms: N3_6  and  C2_8 
REMARK    2  A    between atoms: C2_8  and  C3_10 
REMARK    3  A    between atoms: C4_11  and  N4_12 
REMARK    4  A    between atoms: C4_11  and  C5_16 
REMARK    5  A    between atoms: C7_21  and  C8_22 
REMARK    6  A    between atoms: C10_29  and  O7_30 
REMARK    7  A    between atoms: C11_32  and  O8_33 
ROOT
HETATM    1  C3  UNL     1      -3.361 -34.054  42.871  1.00  0.00     0.102 C 
HETATM    2  C4  UNL     1      -3.477 -35.208  41.979  1.00  0.00     0.305 C 
HETATM    3  C6  UNL     1      -4.634 -35.436  41.079  1.00  0.00     0.207 C 
HETATM    4  O5  UNL     1      -4.621 -34.936  40.027  1.00  0.00    -0.291 OA
HETATM    5  C7  UNL     1      -5.912 -36.295  41.380  1.00  0.00     0.219 C 
HETATM    6  N5  UNL     1      -5.945 -36.001  42.886  1.00  0.00    -0.345 N 
ATOM      7  H5  UNL     1      -6.034 -36.797  43.517  1.00  0.00     0.163 HD
HETATM    8  C9  UNL     1      -5.868 -34.823  43.420  1.00  0.00     0.176 C 
HETATM    9  N6  UNL     1      -5.884 -34.756  44.879  1.00  0.00    -0.332 N 
ATOM     10  H6  UNL     1      -6.484 -35.225  45.558  1.00  0.00     0.165 HD
HETATM   11  C10 UNL     1      -4.752 -33.785  45.083  1.00  0.00     0.281 C 
HETATM   12  C11 UNL     1      -4.316 -33.396  43.701  1.00  0.00     0.212 C 
HETATM   13  N7  UNL     1      -5.701 -33.472  43.037  1.00  0.00    -0.323 N 
ATOM     14  H7  UNL     1      -6.276 -32.806  42.520  1.00  0.00     0.166 HD
ENDROOT
BRANCH   1  15
HETATM   15  C2  UNL     1      -2.083 -34.273  43.647  1.00  0.00     0.270 C 
HETATM   16  N3  UNL     1      -1.888 -33.760  44.963  1.00  0.00    -0.262 N 
ATOM     17  H3  UNL     1      -2.643 -33.228  45.397  1.00  0.00     0.190 HD
HETATM   18  O2  UNL     1      -1.117 -34.920  43.171  1.00  0.00    -0.266 OA
BRANCH  16  19
HETATM   19  N2  UNL     1      -0.714 -33.955  45.679  1.00  0.00    -0.251 N 
HETATM   20  C1  UNL     1      -0.588 -33.977  47.081  1.00  0.00     0.347 C 
HETATM   21  N1  UNL     1       0.667 -34.185  47.715  1.00  0.00    -0.038 NA
HETATM   22  O1  UNL     1      -1.562 -33.817  47.862  1.00  0.00    -0.249 OA
ATOM     23  H2  UNL     1       0.139 -34.096  45.137  1.00  0.00     0.191 HD
ENDBRANCH  16  19
ENDBRANCH   1  15
BRANCH   2  24
HETATM   24  N4  UNL     1      -3.191 -36.474  42.707  1.00  0.00    -0.049 N 
ATOM     25  H43 UNL     1      -2.566 -36.319  43.499  1.00  0.00     0.276 HD
ATOM     26  H42 UNL     1      -4.008 -36.807  43.218  1.00  0.00     0.276 HD
ATOM     27  H41 UNL     1      -2.827 -37.185  42.073  1.00  0.00     0.276 HD
ENDBRANCH   2  24
BRANCH   2  28
HETATM   28  C5  UNL     1      -2.333 -35.094  40.994  1.00  0.00     0.223 C 
HETATM   29  O3  UNL     1      -1.864 -36.159  40.528  1.00  0.00    -0.646 OA
HETATM   30  O4  UNL     1      -1.840 -33.885  40.632  1.00  0.00    -0.646 OA
ENDBRANCH   2  28
BRANCH  12  31
HETATM   31  O8  UNL     1      -4.002 -32.034  43.803  1.00  0.00    -0.363 OA
ATOM     32  H8  UNL     1      -3.299 -31.910  44.430  1.00  0.00     0.213 HD
ENDBRANCH  12  31
BRANCH  11  33
HETATM   33  O7  UNL     1      -5.441 -32.670  45.641  1.00  0.00    -0.371 OA
ATOM     34  H7  UNL     1      -5.808 -32.272  44.859  1.00  0.00     0.212 HD
ENDBRANCH  11  33
BRANCH   5  35
HETATM   35  C8  UNL     1      -7.099 -35.656  40.830  1.00  0.00     0.264 C 
HETATM   36  O6  UNL     1      -8.195 -35.759  41.363  1.00  0.00    -0.304 OA
ENDBRANCH   5  35
TORSDOF 7
ENDMDL
MODEL 5
REMARK VINA RESULT: -6.937171496      2.611      3.881
REMARK  7 active torsions:
REMARK  status: ('A' for Active; 'I' for Inactive)
REMARK       I    between atoms: C1_2  and  N2_4 
REMARK    1  A    between atoms: N2_4  and  N3_6 
REMARK       I    between atoms: N3_6  and  C2_8 
REMARK    2  A    between atoms: C2_8  and  C3_10 
REMARK    3  A    between atoms: C4_11  and  N4_12 
REMARK    4  A    between atoms: C4_11  and  C5_16 
REMARK    5  A    between atoms: C7_21  and  C8_22 
REMARK    6  A    between atoms: C10_29  and  O7_30 
REMARK    7  A    between atoms: C11_32  and  O8_33 
ROOT
HETATM    1  C3  UNL     1      -5.927 -34.910  42.330  1.00  0.00     0.102 C 
HETATM    2  C4  UNL     1      -5.600 -33.629  42.955  1.00  0.00     0.305 C 
HETATM    3  C6  UNL     1      -6.543 -32.486  43.027  1.00  0.00     0.207 C 
HETATM    4  O5  UNL     1      -7.296 -32.447  43.916  1.00  0.00    -0.291 OA
HETATM    5  C7  UNL     1      -6.656 -31.287  42.021  1.00  0.00     0.219 C 
HETATM    6  N5  UNL     1      -6.256 -32.091  40.776  1.00  0.00    -0.345 N 
ATOM      7  H5  UNL     1      -5.528 -31.700  40.179  1.00  0.00     0.163 HD
HETATM    8  C9  UNL     1      -6.770 -33.227  40.423  1.00  0.00     0.176 C 
HETATM    9  N6  UNL     1      -6.230 -33.852  39.218  1.00  0.00    -0.332 N 
ATOM     10  H6  UNL     1      -6.019 -33.455  38.303  1.00  0.00     0.165 HD
HETATM   11  C10 UNL     1      -6.077 -35.260  39.731  1.00  0.00     0.281 C 
HETATM   12  C11 UNL     1      -6.625 -35.229  41.127  1.00  0.00     0.212 C 
HETATM   13  N7  UNL     1      -7.716 -34.175  40.881  1.00  0.00    -0.323 N 
ATOM     14  H7  UNL     1      -8.729 -34.163  41.001  1.00  0.00     0.166 HD
ENDROOT
BRANCH   1  15
HETATM   15  C2  UNL     1      -4.662 -35.732  42.413  1.00  0.00     0.270 C 
HETATM   16  N3  UNL     1      -3.419 -35.184  42.847  1.00  0.00    -0.262 N 
ATOM     17  H3  UNL     1      -3.386 -34.200  43.115  1.00  0.00     0.190 HD
HETATM   18  O2  UNL     1      -4.635 -36.948  42.099  1.00  0.00    -0.266 OA
BRANCH  16  19
HETATM   19  N2  UNL     1      -2.252 -35.934  42.919  1.00  0.00    -0.251 N 
HETATM   20  C1  UNL     1      -1.468 -36.359  41.830  1.00  0.00     0.347 C 
HETATM   21  N1  UNL     1      -0.286 -37.127  42.015  1.00  0.00    -0.038 NA
HETATM   22  O1  UNL     1      -1.751 -36.095  40.633  1.00  0.00    -0.249 OA
ATOM     23  H2  UNL     1      -1.932 -36.202  43.850  1.00  0.00     0.191 HD
ENDBRANCH  16  19
ENDBRANCH   1  15
BRANCH   2  24
HETATM   24  N4  UNL     1      -4.285 -33.123  42.475  1.00  0.00    -0.049 N 
ATOM     25  H43 UNL     1      -3.534 -33.786  42.668  1.00  0.00     0.276 HD
ATOM     26  H42 UNL     1      -4.232 -33.121  41.457  1.00  0.00     0.276 HD
ATOM     27  H41 UNL     1      -4.084 -32.202  42.866  1.00  0.00     0.276 HD
ENDBRANCH   2  24
BRANCH   2  28
HETATM   28  C5  UNL     1      -5.357 -33.925  44.420  1.00  0.00     0.223 C 
HETATM   29  O3  UNL     1      -4.418 -33.318  44.985  1.00  0.00    -0.646 OA
HETATM   30  O4  UNL     1      -6.130 -34.813  45.090  1.00  0.00    -0.646 OA
ENDBRANCH   2  28
BRANCH  12  31
HETATM   31  O8  UNL     1      -7.287 -36.456  41.271  1.00  0.00    -0.363 OA
ATOM     32  H8  UNL     1      -6.799 -37.020  41.858  1.00  0.00     0.213 HD
ENDBRANCH  12  31
BRANCH  11  33
HETATM   33  O7  UNL     1      -7.021 -35.952  38.920  1.00  0.00    -0.371 OA
ATOM     34  H7  UNL     1      -7.648 -36.241  39.573  1.00  0.00     0.212 HD
ENDBRANCH  11  33
BRANCH   5  35
HETATM   35  C8  UNL     1      -8.049 -30.918  41.818  1.00  0.00     0.264 C 
HETATM   36  O6  UNL     1      -8.724 -31.406  40.922  1.00  0.00    -0.304 OA
ENDBRANCH   5  35
TORSDOF 7
ENDMDL
