MODEL 1
REMARK VINA RESULT: -7.621785229      0.000      0.000
REMARK  9 active torsions:
REMARK  status: ('A' for Active; 'I' for Inactive)
REMARK    1  A    between atoms: N1_1  and  N2_4 
REMARK       I    between atoms: N2_4  and  C1_6 
REMARK    2  A    between atoms: C1_6  and  C2_8 
REMARK    3  A    between atoms: C2_8  and  N3_9 
REMARK    4  A    between atoms: C2_8  and  C3_13 
REMARK    5  A    between atoms: C3_13  and  O2_14 
REMARK    6  A    between atoms: C3_13  and  C4_16 
REMARK    7  A    between atoms: C6_18  and  C7_19 
REMARK    8  A    between atoms: C12_30  and  N7_31 
REMARK    9  A    between atoms: C14_36  and  N8_37 
ROOT
HETATM    1  C4  UNL     1      -0.927 -33.538  44.132  1.00  0.00     0.013 C 
HETATM    2  C5  UNL     1      -2.310 -32.965  44.361  1.00  0.00     0.036 C 
HETATM    3  C6  UNL     1      -3.515 -33.786  44.326  1.00  0.00     0.151 C 
HETATM    4  C8  UNL     1      -4.425 -33.505  43.152  1.00  0.00     0.187 C 
HETATM    5  O4  UNL     1      -5.322 -32.714  43.348  1.00  0.00    -0.290 OA
HETATM    6  C9  UNL     1      -4.345 -34.078  41.807  1.00  0.00     0.107 C 
HETATM    7  N5  UNL     1      -4.502 -33.055  40.755  1.00  0.00    -0.097 NA
HETATM    8  C10 UNL     1      -3.356 -35.081  41.441  1.00  0.00     0.114 C 
HETATM    9  N6  UNL     1      -2.021 -34.728  41.062  1.00  0.00    -0.389 N 
ATOM     10  H6  UNL     1      -1.600 -34.998  40.174  1.00  0.00     0.159 HD
HETATM   11  C11 UNL     1      -1.375 -34.000  42.004  1.00  0.00     0.134 C 
HETATM   12  C12 UNL     1      -0.215 -33.084  41.789  1.00  0.00     0.209 C 
HETATM   13  C13 UNL     1      -0.149 -32.534  43.238  1.00  0.00     0.049 C 
HETATM   14  C14 UNL     1      -0.841 -34.684  43.233  1.00  0.00     0.110 C 
ENDROOT
BRANCH   1  15
HETATM   15  C3  UNL     1      -0.269 -33.733  45.439  1.00  0.00     0.168 C 
BRANCH  15  16
HETATM   16  C2  UNL     1      -0.064 -32.676  46.428  1.00  0.00     0.305 C 
BRANCH  16  17
HETATM   17  C1  UNL     1      -0.208 -33.309  47.793  1.00  0.00     0.268 C 
HETATM   18  N2  UNL     1      -1.324 -33.145  48.630  1.00  0.00    -0.275 N 
ATOM     19  H2  UNL     1      -2.106 -32.562  48.328  1.00  0.00     0.189 HD
HETATM   20  O1  UNL     1       0.732 -34.033  48.215  1.00  0.00    -0.269 OA
BRANCH  18  21
HETATM   21  N1  UNL     1      -1.365 -33.783  49.887  1.00  0.00    -0.343 N 
ATOM     22  H12 UNL     1      -1.768 -33.285  50.681  1.00  0.00     0.176 HD
ATOM     23  H11 UNL     1      -0.996 -34.728  49.993  1.00  0.00     0.176 HD
ENDBRANCH  18  21
ENDBRANCH  16  17
BRANCH  16  24
HETATM   24  N3  UNL     1       1.221 -32.030  46.481  1.00  0.00    -0.064 N 
ATOM     25  H33 UNL     1       1.748 -32.213  47.335  1.00  0.00     0.275 HD
ATOM     26  H32 UNL     1       1.913 -32.418  45.841  1.00  0.00     0.275 HD
ATOM     27  H31 UNL     1       1.006 -31.046  46.323  1.00  0.00     0.275 HD
ENDBRANCH  16  24
ENDBRANCH  15  16
BRANCH  15  28
HETATM   28  O2  UNL     1      -0.930 -34.777  46.177  1.00  0.00    -0.392 OA
ATOM     29  H2  UNL     1      -0.255 -35.115  46.754  1.00  0.00     0.210 HD
ENDBRANCH  15  28
ENDBRANCH   1  15
BRANCH  14  30
HETATM   30  N8  UNL     1      -1.285 -35.947  43.533  1.00  0.00    -0.423 N 
ATOM     31  H82 UNL     1      -2.212 -36.058  43.945  1.00  0.00     0.150 HD
ATOM     32  H81 UNL     1      -0.796 -36.605  44.140  1.00  0.00     0.150 HD
ENDBRANCH  14  30
BRANCH   3  33
HETATM   33  C7  UNL     1      -4.372 -33.523  45.525  1.00  0.00     0.242 C 
HETATM   34  N4  UNL     1      -5.760 -33.827  45.552  1.00  0.00    -0.061 NA
HETATM   35  O3  UNL     1      -3.881 -33.018  46.561  1.00  0.00    -0.276 OA
ENDBRANCH   3  33
BRANCH  12  36
HETATM   36  N7  UNL     1       1.003 -33.701  41.376  1.00  0.00    -0.073 N 
ATOM     37  H73 UNL     1       1.794 -33.244  41.829  1.00  0.00     0.274 HD
ATOM     38  H72 UNL     1       1.073 -34.634  41.782  1.00  0.00     0.274 HD
ATOM     39  H71 UNL     1       1.161 -33.750  40.370  1.00  0.00     0.274 HD
ENDBRANCH  12  36
TORSDOF 9
ENDMDL
MODEL 2
REMARK VINA RESULT: -6.888227334      1.123      1.323
REMARK  9 active torsions:
REMARK  status: ('A' for Active; 'I' for Inactive)
REMARK    1  A    between atoms: N1_1  and  N2_4 
REMARK       I    between atoms: N2_4  and  C1_6 
REMARK    2  A    between atoms: C1_6  and  C2_8 
REMARK    3  A    between atoms: C2_8  and  N3_9 
REMARK    4  A    between atoms: C2_8  and  C3_13 
REMARK    5  A    between atoms: C3_13  and  O2_14 
REMARK    6  A    between atoms: C3_13  and  C4_16 
REMARK    7  A    between atoms: C6_18  and  C7_19 
REMARK    8  A    between atoms: C12_30  and  N7_31 
REMARK    9  A    between atoms: C14_36  and  N8_37 
ROOT
HETATM    1  C4  UNL     1      -1.431 -33.340  44.100  1.00  0.00     0.013 C 
HETATM    2  C5  UNL     1      -2.893 -32.951  44.061  1.00  0.00     0.036 C 
HETATM    3  C6  UNL     1      -3.962 -33.929  43.895  1.00  0.00     0.151 C 
HETATM    4  C8  UNL     1      -4.689 -33.837  42.572  1.00  0.00     0.187 C 
HETATM    5  O4  UNL     1      -5.699 -33.166  42.563  1.00  0.00    -0.290 OA
HETATM    6  C9  UNL     1      -4.312 -34.462  41.304  1.00  0.00     0.107 C 
HETATM    7  N5  UNL     1      -4.417 -33.526  40.168  1.00  0.00    -0.097 NA
HETATM    8  C10 UNL     1      -3.157 -35.338  41.176  1.00  0.00     0.114 C 
HETATM    9  N6  UNL     1      -1.833 -34.827  40.991  1.00  0.00    -0.389 N 
ATOM     10  H6  UNL     1      -1.238 -35.083  40.203  1.00  0.00     0.159 HD
HETATM   11  C11 UNL     1      -1.451 -33.970  41.968  1.00  0.00     0.134 C 
HETATM   12  C12 UNL     1      -0.396 -32.916  41.874  1.00  0.00     0.209 C 
HETATM   13  C13 UNL     1      -0.645 -32.288  43.270  1.00  0.00     0.049 C 
HETATM   14  C14 UNL     1      -1.050 -34.509  43.313  1.00  0.00     0.110 C 
ENDROOT
BRANCH   1  15
HETATM   15  C3  UNL     1      -0.983 -33.376  45.506  1.00  0.00     0.168 C 
BRANCH  15  16
HETATM   16  C2  UNL     1      -1.794 -33.860  46.621  1.00  0.00     0.305 C 
BRANCH  16  17
HETATM   17  C1  UNL     1      -0.841 -34.307  47.705  1.00  0.00     0.268 C 
HETATM   18  N2  UNL     1       0.029 -33.451  48.399  1.00  0.00    -0.275 N 
ATOM     19  H2  UNL     1       0.046 -32.454  48.180  1.00  0.00     0.189 HD
HETATM   20  O1  UNL     1      -0.818 -35.529  48.009  1.00  0.00    -0.269 OA
BRANCH  18  21
HETATM   21  N1  UNL     1       0.880 -33.966  49.400  1.00  0.00    -0.343 N 
ATOM     22  H12 UNL     1       1.575 -34.666  49.144  1.00  0.00     0.176 HD
ATOM     23  H11 UNL     1       0.794 -33.638  50.362  1.00  0.00     0.176 HD
ENDBRANCH  18  21
ENDBRANCH  16  17
BRANCH  16  24
HETATM   24  N3  UNL     1      -2.664 -32.929  47.289  1.00  0.00    -0.064 N 
ATOM     25  H33 UNL     1      -2.926 -32.120  46.726  1.00  0.00     0.275 HD
ATOM     26  H32 UNL     1      -3.613 -33.272  47.435  1.00  0.00     0.275 HD
ATOM     27  H31 UNL     1      -2.163 -32.700  48.147  1.00  0.00     0.275 HD
ENDBRANCH  16  24
ENDBRANCH  15  16
BRANCH  15  28
HETATM   28  O2  UNL     1       0.244 -34.120  45.619  1.00  0.00    -0.392 OA
ATOM     29  H2  UNL     1       0.573 -34.157  44.729  1.00  0.00     0.210 HD
ENDBRANCH  15  28
ENDBRANCH   1  15
BRANCH  14  30
HETATM   30  N8  UNL     1      -1.376 -35.804  43.631  1.00  0.00    -0.423 N 
ATOM     31  H82 UNL     1      -0.921 -36.243  44.432  1.00  0.00     0.150 HD
ATOM     32  H81 UNL     1      -1.300 -36.595  42.991  1.00  0.00     0.150 HD
ENDBRANCH  14  30
BRANCH   3  33
HETATM   33  C7  UNL     1      -5.035 -33.724  44.919  1.00  0.00     0.242 C 
HETATM   34  N4  UNL     1      -6.150 -34.596  45.040  1.00  0.00    -0.061 NA
HETATM   35  O3  UNL     1      -4.980 -32.758  45.715  1.00  0.00    -0.276 OA
ENDBRANCH   3  33
BRANCH  12  36
HETATM   36  N7  UNL     1       0.941 -33.383  41.708  1.00  0.00    -0.073 N 
ATOM     37  H73 UNL     1       1.028 -34.325  42.087  1.00  0.00     0.274 HD
ATOM     38  H72 UNL     1       1.124 -33.564  40.721  1.00  0.00     0.274 HD
ATOM     39  H71 UNL     1       1.674 -32.786  42.091  1.00  0.00     0.274 HD
ENDBRANCH  12  36
TORSDOF 9
ENDMDL
MODEL 3
REMARK VINA RESULT: -6.744620157      2.202      5.939
REMARK  9 active torsions:
REMARK  status: ('A' for Active; 'I' for Inactive)
REMARK    1  A    between atoms: N1_1  and  N2_4 
REMARK       I    between atoms: N2_4  and  C1_6 
REMARK    2  A    between atoms: C1_6  and  C2_8 
REMARK    3  A    between atoms: C2_8  and  N3_9 
REMARK    4  A    between atoms: C2_8  and  C3_13 
REMARK    5  A    between atoms: C3_13  and  O2_14 
REMARK    6  A    between atoms: C3_13  and  C4_16 
REMARK    7  A    between atoms: C6_18  and  C7_19 
REMARK    8  A    between atoms: C12_30  and  N7_31 
REMARK    9  A    between atoms: C14_36  and  N8_37 
ROOT
HETATM    1  C4  UNL     1      -3.120 -35.827  42.112  1.00  0.00     0.013 C 
HETATM    2  C5  UNL     1      -3.438 -35.039  43.365  1.00  0.00     0.036 C 
HETATM    3  C6  UNL     1      -3.298 -33.589  43.438  1.00  0.00     0.151 C 
HETATM    4  C8  UNL     1      -2.183 -33.117  44.343  1.00  0.00     0.187 C 
HETATM    5  O4  UNL     1      -2.496 -32.852  45.483  1.00  0.00    -0.290 OA
HETATM    6  C9  UNL     1      -0.771 -32.946  43.999  1.00  0.00     0.107 C 
HETATM    7  N5  UNL     1       0.125 -33.508  45.029  1.00  0.00    -0.097 NA
HETATM    8  C10 UNL     1      -0.258 -33.174  42.657  1.00  0.00     0.114 C 
HETATM    9  N6  UNL     1       0.078 -34.483  42.184  1.00  0.00    -0.389 N 
ATOM     10  H6  UNL     1       1.000 -34.729  41.823  1.00  0.00     0.159 HD
HETATM   11  C11 UNL     1      -0.952 -35.360  42.264  1.00  0.00     0.134 C 
HETATM   12  C12 UNL     1      -0.858 -36.849  42.323  1.00  0.00     0.209 C 
HETATM   13  C13 UNL     1      -2.370 -37.115  42.549  1.00  0.00     0.049 C 
HETATM   14  C14 UNL     1      -2.067 -35.287  41.257  1.00  0.00     0.110 C 
ENDROOT
BRANCH   1  15
HETATM   15  C3  UNL     1      -4.380 -36.138  41.410  1.00  0.00     0.168 C 
BRANCH  15  16
HETATM   16  C2  UNL     1      -5.660 -35.485  41.679  1.00  0.00     0.305 C 
BRANCH  16  17
HETATM   17  C1  UNL     1      -5.994 -34.642  40.469  1.00  0.00     0.268 C 
HETATM   18  N2  UNL     1      -5.556 -33.322  40.277  1.00  0.00    -0.275 N 
ATOM     19  H2  UNL     1      -4.975 -32.869  40.983  1.00  0.00     0.189 HD
HETATM   20  O1  UNL     1      -6.713 -35.152  39.571  1.00  0.00    -0.269 OA
BRANCH  18  21
HETATM   21  N1  UNL     1      -5.918 -32.620  39.108  1.00  0.00    -0.343 N 
ATOM     22  H12 UNL     1      -6.737 -32.925  38.583  1.00  0.00     0.176 HD
ATOM     23  H11 UNL     1      -5.365 -31.821  38.800  1.00  0.00     0.176 HD
ENDBRANCH  18  21
ENDBRANCH  16  17
BRANCH  16  24
HETATM   24  N3  UNL     1      -6.825 -36.310  41.856  1.00  0.00    -0.064 N 
ATOM     25  H33 UNL     1      -7.078 -36.476  42.831  1.00  0.00     0.275 HD
ATOM     26  H32 UNL     1      -7.702 -35.863  41.591  1.00  0.00     0.275 HD
ATOM     27  H31 UNL     1      -6.608 -37.156  41.330  1.00  0.00     0.275 HD
ENDBRANCH  16  24
ENDBRANCH  15  16
BRANCH  15  28
HETATM   28  O2  UNL     1      -4.207 -35.991  39.988  1.00  0.00    -0.392 OA
ATOM     29  H2  UNL     1      -5.067 -36.175  39.631  1.00  0.00     0.210 HD
ENDBRANCH  15  28
ENDBRANCH   1  15
BRANCH  14  30
HETATM   30  N8  UNL     1      -2.189 -34.160  40.485  1.00  0.00    -0.423 N 
ATOM     31  H82 UNL     1      -1.360 -33.790  40.019  1.00  0.00     0.150 HD
ATOM     32  H81 UNL     1      -2.559 -33.268  40.815  1.00  0.00     0.150 HD
ENDBRANCH  14  30
BRANCH   3  33
HETATM   33  C7  UNL     1      -4.530 -32.965  44.016  1.00  0.00     0.242 C 
HETATM   34  N4  UNL     1      -4.950 -33.203  45.353  1.00  0.00    -0.061 NA
HETATM   35  O3  UNL     1      -5.241 -32.200  43.325  1.00  0.00    -0.276 OA
ENDBRANCH   3  33
BRANCH  12  36
HETATM   36  N7  UNL     1      -0.352 -37.492  41.155  1.00  0.00    -0.073 N 
ATOM     37  H73 UNL     1      -0.472 -36.883  40.346  1.00  0.00     0.274 HD
ATOM     38  H72 UNL     1       0.666 -37.539  41.200  1.00  0.00     0.274 HD
ATOM     39  H71 UNL     1      -0.732 -38.416  40.952  1.00  0.00     0.274 HD
ENDBRANCH  12  36
TORSDOF 9
ENDMDL
MODEL 4
REMARK VINA RESULT: -6.466805490      2.326      6.111
REMARK  9 active torsions:
REMARK  status: ('A' for Active; 'I' for Inactive)
REMARK    1  A    between atoms: N1_1  and  N2_4 
REMARK       I    between atoms: N2_4  and  C1_6 
REMARK    2  A    between atoms: C1_6  and  C2_8 
REMARK    3  A    between atoms: C2_8  and  N3_9 
REMARK    4  A    between atoms: C2_8  and  C3_13 
REMARK    5  A    between atoms: C3_13  and  O2_14 
REMARK    6  A    between atoms: C3_13  and  C4_16 
REMARK    7  A    between atoms: C6_18  and  C7_19 
REMARK    8  A    between atoms: C12_30  and  N7_31 
REMARK    9  A    between atoms: C14_36  and  N8_37 
ROOT
HETATM    1  C4  UNL     1      -4.085 -35.582  42.124  1.00  0.00     0.013 C 
HETATM    2  C5  UNL     1      -4.471 -35.007  43.470  1.00  0.00     0.036 C 
HETATM    3  C6  UNL     1      -4.455 -33.575  43.746  1.00  0.00     0.151 C 
HETATM    4  C8  UNL     1      -3.384 -33.142  44.721  1.00  0.00     0.187 C 
HETATM    5  O4  UNL     1      -3.721 -33.065  45.884  1.00  0.00    -0.290 OA
HETATM    6  C9  UNL     1      -1.992 -32.806  44.423  1.00  0.00     0.107 C 
HETATM    7  N5  UNL     1      -1.052 -33.429  45.376  1.00  0.00    -0.097 NA
HETATM    8  C10 UNL     1      -1.460 -32.801  43.069  1.00  0.00     0.114 C 
HETATM    9  N6  UNL     1      -1.013 -33.997  42.423  1.00  0.00    -0.389 N 
ATOM     10  H6  UNL     1      -0.074 -34.113  42.043  1.00  0.00     0.159 HD
HETATM   11  C11 UNL     1      -1.965 -34.960  42.367  1.00  0.00     0.134 C 
HETATM   12  C12 UNL     1      -1.745 -36.430  42.220  1.00  0.00     0.209 C 
HETATM   13  C13 UNL     1      -3.229 -36.851  42.387  1.00  0.00     0.049 C 
HETATM   14  C14 UNL     1      -3.081 -34.842  41.366  1.00  0.00     0.110 C 
ENDROOT
BRANCH   1  15
HETATM   15  C3  UNL     1      -5.314 -35.897  41.369  1.00  0.00     0.168 C 
BRANCH  15  16
HETATM   16  C2  UNL     1      -6.659 -35.490  41.772  1.00  0.00     0.305 C 
BRANCH  16  17
HETATM   17  C1  UNL     1      -7.107 -34.415  40.808  1.00  0.00     0.268 C 
HETATM   18  N2  UNL     1      -6.795 -33.052  40.939  1.00  0.00    -0.275 N 
ATOM     19  H2  UNL     1      -6.233 -32.732  41.729  1.00  0.00     0.189 HD
HETATM   20  O1  UNL     1      -7.808 -34.758  39.820  1.00  0.00    -0.269 OA
BRANCH  18  21
HETATM   21  N1  UNL     1      -7.257 -32.126  39.982  1.00  0.00    -0.343 N 
ATOM     22  H12 UNL     1      -7.658 -32.474  39.111  1.00  0.00     0.176 HD
ATOM     23  H11 UNL     1      -7.188 -31.125  40.164  1.00  0.00     0.176 HD
ENDBRANCH  18  21
ENDBRANCH  16  17
BRANCH  16  24
HETATM   24  N3  UNL     1      -7.715 -36.466  41.714  1.00  0.00    -0.064 N 
ATOM     25  H33 UNL     1      -8.467 -36.312  42.386  1.00  0.00     0.275 HD
ATOM     26  H32 UNL     1      -8.299 -36.405  40.881  1.00  0.00     0.275 HD
ATOM     27  H31 UNL     1      -7.230 -37.357  41.823  1.00  0.00     0.275 HD
ENDBRANCH  16  24
ENDBRANCH  15  16
BRANCH  15  28
HETATM   28  O2  UNL     1      -5.199 -35.427  40.013  1.00  0.00    -0.392 OA
ATOM     29  H2  UNL     1      -5.824 -35.956  39.532  1.00  0.00     0.210 HD
ENDBRANCH  15  28
ENDBRANCH   1  15
BRANCH  14  30
HETATM   30  N8  UNL     1      -3.299 -33.632  40.757  1.00  0.00    -0.423 N 
ATOM     31  H82 UNL     1      -3.958 -33.584  39.980  1.00  0.00     0.150 HD
ATOM     32  H81 UNL     1      -2.570 -33.052  40.341  1.00  0.00     0.150 HD
ENDBRANCH  14  30
BRANCH   3  33
HETATM   33  C7  UNL     1      -5.736 -33.143  44.389  1.00  0.00     0.242 C 
HETATM   34  N4  UNL     1      -6.281 -33.805  45.522  1.00  0.00    -0.061 NA
HETATM   35  O3  UNL     1      -6.378 -32.167  43.938  1.00  0.00    -0.276 OA
ENDBRANCH   3  33
BRANCH  12  36
HETATM   36  N7  UNL     1      -1.185 -36.858  40.980  1.00  0.00    -0.073 N 
ATOM     37  H73 UNL     1      -1.822 -37.508  40.519  1.00  0.00     0.274 HD
ATOM     38  H72 UNL     1      -1.193 -36.088  40.312  1.00  0.00     0.274 HD
ATOM     39  H71 UNL     1      -0.251 -37.264  41.028  1.00  0.00     0.274 HD
ENDBRANCH  12  36
TORSDOF 9
ENDMDL
MODEL 5
REMARK VINA RESULT: -6.265932941      2.535      4.733
REMARK  9 active torsions:
REMARK  status: ('A' for Active; 'I' for Inactive)
REMARK    1  A    between atoms: N1_1  and  N2_4 
REMARK       I    between atoms: N2_4  and  C1_6 
REMARK    2  A    between atoms: C1_6  and  C2_8 
REMARK    3  A    between atoms: C2_8  and  N3_9 
REMARK    4  A    between atoms: C2_8  and  C3_13 
REMARK    5  A    between atoms: C3_13  and  O2_14 
REMARK    6  A    between atoms: C3_13  and  C4_16 
REMARK    7  A    between atoms: C6_18  and  C7_19 
REMARK    8  A    between atoms: C12_30  and  N7_31 
REMARK    9  A    between atoms: C14_36  and  N8_37 
ROOT
HETATM    1  C4  UNL     1      -3.952 -33.617  43.764  1.00  0.00     0.013 C 
HETATM    2  C5  UNL     1      -3.636 -35.010  43.262  1.00  0.00     0.036 C 
HETATM    3  C6  UNL     1      -3.492 -35.319  41.843  1.00  0.00     0.151 C 
HETATM    4  C8  UNL     1      -4.591 -36.191  41.282  1.00  0.00     0.187 C 
HETATM    5  O4  UNL     1      -4.372 -37.383  41.264  1.00  0.00    -0.290 OA
HETATM    6  C9  UNL     1      -5.889 -35.761  40.759  1.00  0.00     0.107 C 
HETATM    7  N5  UNL     1      -6.997 -36.596  41.261  1.00  0.00    -0.097 NA
HETATM    8  C10 UNL     1      -6.270 -34.359  40.666  1.00  0.00     0.114 C 
HETATM    9  N6  UNL     1      -6.801 -33.641  41.784  1.00  0.00    -0.389 N 
ATOM     10  H6  UNL     1      -7.703 -33.165  41.769  1.00  0.00     0.159 HD
HETATM   11  C11 UNL     1      -5.985 -33.658  42.866  1.00  0.00     0.134 C 
HETATM   12  C12 UNL     1      -6.381 -33.452  44.291  1.00  0.00     0.209 C 
HETATM   13  C13 UNL     1      -4.991 -33.759  44.909  1.00  0.00     0.049 C 
HETATM   14  C14 UNL     1      -4.764 -32.780  42.887  1.00  0.00     0.110 C 
ENDROOT
BRANCH   1  15
HETATM   15  C3  UNL     1      -2.703 -32.984  44.232  1.00  0.00     0.168 C 
BRANCH  15  16
HETATM   16  C2  UNL     1      -1.763 -33.600  45.166  1.00  0.00     0.305 C 
BRANCH  16  17
HETATM   17  C1  UNL     1      -0.414 -32.961  44.927  1.00  0.00     0.268 C 
HETATM   18  N2  UNL     1       0.621 -33.549  44.181  1.00  0.00    -0.275 N 
ATOM     19  H2  UNL     1       0.488 -34.470  43.762  1.00  0.00     0.189 HD
HETATM   20  O1  UNL     1      -0.197 -31.827  45.428  1.00  0.00    -0.269 OA
BRANCH  18  21
HETATM   21  N1  UNL     1       1.844 -32.868  44.011  1.00  0.00    -0.343 N 
ATOM     22  H12 UNL     1       2.541 -33.256  43.375  1.00  0.00     0.176 HD
ATOM     23  H11 UNL     1       2.022 -32.002  44.519  1.00  0.00     0.176 HD
ENDBRANCH  18  21
ENDBRANCH  16  17
BRANCH  16  24
HETATM   24  N3  UNL     1      -1.984 -33.421  46.577  1.00  0.00    -0.064 N 
ATOM     25  H33 UNL     1      -1.149 -33.163  47.103  1.00  0.00     0.275 HD
ATOM     26  H32 UNL     1      -2.524 -32.591  46.815  1.00  0.00     0.275 HD
ATOM     27  H31 UNL     1      -2.410 -34.299  46.871  1.00  0.00     0.275 HD
ENDBRANCH  16  24
ENDBRANCH  15  16
BRANCH  15  28
HETATM   28  O2  UNL     1      -1.884 -32.610  43.109  1.00  0.00    -0.392 OA
ATOM     29  H2  UNL     1      -2.076 -31.689  42.981  1.00  0.00     0.210 HD
ENDBRANCH  15  28
ENDBRANCH   1  15
BRANCH  14  30
HETATM   30  N8  UNL     1      -4.326 -32.227  41.711  1.00  0.00    -0.423 N 
ATOM     31  H82 UNL     1      -3.490 -32.609  41.268  1.00  0.00     0.150 HD
ATOM     32  H81 UNL     1      -4.099 -31.241  41.582  1.00  0.00     0.150 HD
ENDBRANCH  14  30
BRANCH   3  33
HETATM   33  C7  UNL     1      -2.239 -36.100  41.595  1.00  0.00     0.242 C 
HETATM   34  N4  UNL     1      -1.515 -36.733  42.641  1.00  0.00    -0.061 NA
HETATM   35  O3  UNL     1      -1.784 -36.222  40.434  1.00  0.00    -0.276 OA
ENDBRANCH   3  33
BRANCH  12  36
HETATM   36  N7  UNL     1      -6.860 -32.152  44.626  1.00  0.00    -0.073 N 
ATOM     37  H73 UNL     1      -7.880 -32.146  44.619  1.00  0.00     0.274 HD
ATOM     38  H72 UNL     1      -6.683 -31.961  45.612  1.00  0.00     0.274 HD
ATOM     39  H71 UNL     1      -6.505 -31.384  44.057  1.00  0.00     0.274 HD
ENDBRANCH  12  36
TORSDOF 9
ENDMDL
