MODEL 1
REMARK VINA RESULT: -6.115210010      0.000      0.000
REMARK  1 active torsions:
REMARK  status: ('A' for Active; 'I' for Inactive)
REMARK    1  A    between atoms: N1_1  and  C1_4 
ROOT
HETATM    1  C1  UNL     1      23.889  46.862  68.853  1.00  0.00     0.679 A 
HETATM    2  N2  UNL     1      25.159  46.839  68.405  1.00  0.00    -0.156 N 
ATOM      3  H2  UNL     1      25.674  47.719  68.374  1.00  0.00     0.187 HD
HETATM    4  C2  UNL     1      25.785  45.726  67.997  1.00  0.00     0.274 A 
HETATM    5  O1  UNL     1      26.976  45.718  67.580  1.00  0.00    -0.267 OA
HETATM    6  C3  UNL     1      25.111  44.520  68.029  1.00  0.00     0.088 A 
HETATM    7  C4  UNL     1      23.801  44.522  68.488  1.00  0.00     0.093 A 
HETATM    8  N3  UNL     1      23.242  45.681  68.879  1.00  0.00    -0.189 N 
ATOM      9  H3  UNL     1      22.278  45.665  69.212  1.00  0.00     0.184 HD
HETATM   10  C5  UNL     1      23.679  43.210  68.309  1.00  0.00     0.100 A 
HETATM   11  N4  UNL     1      22.653  42.245  68.505  1.00  0.00    -0.098 NA
HETATM   12  C6  UNL     1      25.059  43.210  67.827  1.00  0.00     0.090 A 
HETATM   13  N5  UNL     1      25.983  42.240  67.340  1.00  0.00    -0.099 NA
ENDROOT
BRANCH   1  14
HETATM   14  N1  UNL     1      23.316  47.961  69.238  1.00  0.00    -0.234 N 
ATOM     15  H12 UNL     1      23.129  48.725  68.588  1.00  0.00     0.174 HD
ATOM     16  H11 UNL     1      23.030  48.110  70.205  1.00  0.00     0.174 HD
ENDBRANCH   1  14
TORSDOF 1
ENDMDL
MODEL 2
REMARK VINA RESULT: -5.927417392      1.714      3.953
REMARK  1 active torsions:
REMARK  status: ('A' for Active; 'I' for Inactive)
REMARK    1  A    between atoms: N1_1  and  C1_4 
ROOT
HETATM    1  C1  UNL     1      22.661  41.839  67.623  1.00  0.00     0.679 A 
HETATM    2  N2  UNL     1      23.908  41.432  67.313  1.00  0.00    -0.156 N 
ATOM      3  H2  UNL     1      24.039  40.464  67.022  1.00  0.00     0.187 HD
HETATM    4  C2  UNL     1      24.985  42.229  67.365  1.00  0.00     0.274 A 
HETATM    5  O1  UNL     1      26.148  41.836  67.072  1.00  0.00    -0.267 OA
HETATM    6  C3  UNL     1      24.835  43.546  67.755  1.00  0.00     0.088 A 
HETATM    7  C4  UNL     1      23.558  43.985  68.079  1.00  0.00     0.093 A 
HETATM    8  N3  UNL     1      22.528  43.124  68.002  1.00  0.00    -0.189 N 
ATOM      9  H3  UNL     1      21.597  43.462  68.245  1.00  0.00     0.184 HD
HETATM   10  C5  UNL     1      23.991  45.212  68.353  1.00  0.00     0.100 A 
HETATM   11  N4  UNL     1      23.398  46.429  68.785  1.00  0.00    -0.098 NA
HETATM   12  C6  UNL     1      25.335  44.748  68.011  1.00  0.00     0.090 A 
HETATM   13  N5  UNL     1      26.641  45.315  67.963  1.00  0.00    -0.099 NA
ENDROOT
BRANCH   1  14
HETATM   14  N1  UNL     1      21.642  41.037  67.561  1.00  0.00    -0.234 N 
ATOM     15  H12 UNL     1      21.708  40.119  67.120  1.00  0.00     0.174 HD
ATOM     16  H11 UNL     1      20.734  41.289  67.949  1.00  0.00     0.174 HD
ENDBRANCH   1  14
TORSDOF 1
ENDMDL
MODEL 3
REMARK VINA RESULT: -5.525213017      1.935      4.451
REMARK  1 active torsions:
REMARK  status: ('A' for Active; 'I' for Inactive)
REMARK    1  A    between atoms: N1_1  and  C1_4 
ROOT
HETATM    1  C1  UNL     1      25.596  42.909  68.426  1.00  0.00     0.679 A 
HETATM    2  N2  UNL     1      24.487  42.942  69.191  1.00  0.00    -0.156 N 
ATOM      3  H2  UNL     1      24.216  42.091  69.682  1.00  0.00     0.187 HD
HETATM    4  C2  UNL     1      23.720  44.031  69.343  1.00  0.00     0.274 A 
HETATM    5  O1  UNL     1      22.684  44.050  70.063  1.00  0.00    -0.267 OA
HETATM    6  C3  UNL     1      24.065  45.199  68.690  1.00  0.00     0.088 A 
HETATM    7  C4  UNL     1      25.204  45.186  67.897  1.00  0.00     0.093 A 
HETATM    8  N3  UNL     1      25.921  44.053  67.794  1.00  0.00    -0.189 N 
ATOM      9  H3  UNL     1      26.755  44.060  67.206  1.00  0.00     0.184 HD
HETATM   10  C5  UNL     1      25.048  46.462  67.556  1.00  0.00     0.100 A 
HETATM   11  N4  UNL     1      25.746  47.392  66.739  1.00  0.00    -0.098 NA
HETATM   12  C6  UNL     1      23.849  46.473  68.393  1.00  0.00     0.090 A 
HETATM   13  N5  UNL     1      22.852  47.426  68.754  1.00  0.00    -0.099 NA
ENDROOT
BRANCH   1  14
HETATM   14  N1  UNL     1      26.313  41.834  68.302  1.00  0.00    -0.234 N 
ATOM     15  H12 UNL     1      25.931  40.979  67.898  1.00  0.00     0.174 HD
ATOM     16  H11 UNL     1      27.286  41.798  68.604  1.00  0.00     0.174 HD
ENDBRANCH   1  14
TORSDOF 1
ENDMDL
MODEL 4
REMARK VINA RESULT: -5.520365423      1.382      3.600
REMARK  1 active torsions:
REMARK  status: ('A' for Active; 'I' for Inactive)
REMARK    1  A    between atoms: N1_1  and  C1_4 
ROOT
HETATM    1  C1  UNL     1      23.046  43.165  68.166  1.00  0.00     0.679 A 
HETATM    2  N2  UNL     1      24.198  42.647  67.696  1.00  0.00    -0.156 N 
ATOM      3  H2  UNL     1      24.223  41.652  67.475  1.00  0.00     0.187 HD
HETATM    4  C2  UNL     1      25.312  43.366  67.502  1.00  0.00     0.274 A 
HETATM    5  O1  UNL     1      26.385  42.869  67.062  1.00  0.00    -0.267 OA
HETATM    6  C3  UNL     1      25.306  44.717  67.792  1.00  0.00     0.088 A 
HETATM    7  C4  UNL     1      24.128  45.270  68.277  1.00  0.00     0.093 A 
HETATM    8  N3  UNL     1      23.052  44.482  68.445  1.00  0.00    -0.189 N 
ATOM      9  H3  UNL     1      22.195  44.904  68.803  1.00  0.00     0.184 HD
HETATM   10  C5  UNL     1      24.670  46.481  68.366  1.00  0.00     0.100 A 
HETATM   11  N4  UNL     1      24.229  47.768  68.778  1.00  0.00    -0.098 NA
HETATM   12  C6  UNL     1      25.909  45.896  67.855  1.00  0.00     0.090 A 
HETATM   13  N5  UNL     1      27.220  46.363  67.546  1.00  0.00    -0.099 NA
ENDROOT
BRANCH   1  14
HETATM   14  N1  UNL     1      21.986  42.435  68.341  1.00  0.00    -0.234 N 
ATOM     15  H12 UNL     1      21.058  42.765  68.075  1.00  0.00     0.174 HD
ATOM     16  H11 UNL     1      22.035  41.503  68.751  1.00  0.00     0.174 HD
ENDBRANCH   1  14
TORSDOF 1
ENDMDL
MODEL 5
REMARK VINA RESULT: -5.456359573      1.717      2.860
REMARK  1 active torsions:
REMARK  status: ('A' for Active; 'I' for Inactive)
REMARK    1  A    between atoms: N1_1  and  C1_4 
ROOT
HETATM    1  C1  UNL     1      26.716  46.069  68.077  1.00  0.00     0.679 A 
HETATM    2  N2  UNL     1      25.509  46.543  68.442  1.00  0.00    -0.156 N 
ATOM      3  H2  UNL     1      25.439  47.522  68.716  1.00  0.00     0.187 HD
HETATM    4  C2  UNL     1      24.393  45.800  68.465  1.00  0.00     0.274 A 
HETATM    5  O1  UNL     1      23.268  46.256  68.808  1.00  0.00    -0.267 OA
HETATM    6  C3  UNL     1      24.458  44.469  68.098  1.00  0.00     0.088 A 
HETATM    7  C4  UNL     1      25.693  43.961  67.718  1.00  0.00     0.093 A 
HETATM    8  N3  UNL     1      26.767  44.771  67.722  1.00  0.00    -0.189 N 
ATOM      9  H3  UNL     1      27.667  44.381  67.442  1.00  0.00     0.184 HD
HETATM   10  C5  UNL     1      25.188  42.751  67.496  1.00  0.00     0.100 A 
HETATM   11  N4  UNL     1      25.698  41.497  67.061  1.00  0.00    -0.098 NA
HETATM   12  C6  UNL     1      23.888  43.289  67.895  1.00  0.00     0.090 A 
HETATM   13  N5  UNL     1      22.560  42.788  68.025  1.00  0.00    -0.099 NA
ENDROOT
BRANCH   1  14
HETATM   14  N1  UNL     1      27.774  46.820  68.069  1.00  0.00    -0.234 N 
ATOM     15  H12 UNL     1      28.583  46.614  68.656  1.00  0.00     0.174 HD
ATOM     16  H11 UNL     1      27.843  47.647  67.477  1.00  0.00     0.174 HD
ENDBRANCH   1  14
TORSDOF 1
ENDMDL
