MODEL 1
REMARK VINA RESULT: -5.724680759      0.000      0.000
REMARK  2 active torsions:
REMARK  status: ('A' for Active; 'I' for Inactive)
REMARK       I    between atoms: N1_2  and  C2_4 
REMARK       I    between atoms: C2_4  and  N2_6 
REMARK    1  A    between atoms: N2_6  and  N3_8 
REMARK       I    between atoms: N3_8  and  C3_10 
REMARK    2  A    between atoms: C3_10  and  C4_12 
ROOT
HETATM    1  C1  UNL     1      22.930  49.029  67.738  1.00  0.00     0.151 C 
HETATM    2  N1  UNL     1      22.679  47.810  68.465  1.00  0.00    -0.346 N 
ATOM      3  H1  UNL     1      21.841  47.731  69.041  1.00  0.00     0.163 HD
HETATM    4  C2  UNL     1      23.582  46.718  68.391  1.00  0.00     0.334 C 
HETATM    5  O1  UNL     1      24.624  46.836  67.668  1.00  0.00    -0.246 OA
HETATM    6  N2  UNL     1      23.336  45.515  69.107  1.00  0.00    -0.249 N 
ATOM      7  H2  UNL     1      22.496  45.445  69.679  1.00  0.00     0.192 HD
ENDROOT
BRANCH   6   8
HETATM    8  N3  UNL     1      24.207  44.424  69.052  1.00  0.00    -0.258 N 
HETATM    9  C3  UNL     1      23.816  43.141  68.598  1.00  0.00     0.325 C 
HETATM   10  O2  UNL     1      22.632  42.945  68.222  1.00  0.00    -0.261 OA
ATOM     11  H3  UNL     1      25.173  44.559  69.352  1.00  0.00     0.190 HD
BRANCH   9  12
HETATM   12  C4  UNL     1      24.744  42.025  68.552  1.00  0.00     0.324 C 
HETATM   13  N4  UNL     1      25.935  41.966  69.314  1.00  0.00    -0.053 NA
HETATM   14  O3  UNL     1      24.476  41.062  67.796  1.00  0.00    -0.266 OA
ENDBRANCH   9  12
ENDBRANCH   6   8
TORSDOF 2
ENDMDL
MODEL 2
REMARK VINA RESULT: -5.596446723      4.586      7.133
REMARK  2 active torsions:
REMARK  status: ('A' for Active; 'I' for Inactive)
REMARK       I    between atoms: N1_2  and  C2_4 
REMARK       I    between atoms: C2_4  and  N2_6 
REMARK    1  A    between atoms: N2_6  and  N3_8 
REMARK       I    between atoms: N3_8  and  C3_10 
REMARK    2  A    between atoms: C3_10  and  C4_12 
ROOT
HETATM    1  C1  UNL     1      25.486  47.665  67.855  1.00  0.00     0.151 C 
HETATM    2  N1  UNL     1      24.610  48.635  67.245  1.00  0.00    -0.346 N 
ATOM      3  H1  UNL     1      24.990  49.307  66.578  1.00  0.00     0.163 HD
HETATM    4  C2  UNL     1      23.227  48.666  67.559  1.00  0.00     0.334 C 
HETATM    5  O1  UNL     1      22.771  47.820  68.394  1.00  0.00    -0.246 OA
HETATM    6  N2  UNL     1      22.361  49.620  66.958  1.00  0.00    -0.249 N 
ATOM      7  H2  UNL     1      22.750  50.288  66.292  1.00  0.00     0.192 HD
ENDROOT
BRANCH   6   8
HETATM    8  N3  UNL     1      20.996  49.674  67.248  1.00  0.00    -0.258 N 
HETATM    9  C3  UNL     1      19.990  49.654  66.251  1.00  0.00     0.325 C 
HETATM   10  O2  UNL     1      20.314  49.584  65.037  1.00  0.00    -0.261 OA
ATOM     11  H3  UNL     1      20.710  49.730  68.225  1.00  0.00     0.190 HD
BRANCH   9  12
HETATM   12  C4  UNL     1      18.577  49.710  66.581  1.00  0.00     0.324 C 
HETATM   13  N4  UNL     1      18.084  49.714  67.909  1.00  0.00    -0.053 NA
HETATM   14  O3  UNL     1      17.750  49.758  65.642  1.00  0.00    -0.266 OA
ENDBRANCH   9  12
ENDBRANCH   6   8
TORSDOF 2
ENDMDL
MODEL 3
REMARK VINA RESULT: -5.594173872      1.121      1.123
REMARK  2 active torsions:
REMARK  status: ('A' for Active; 'I' for Inactive)
REMARK       I    between atoms: N1_2  and  C2_4 
REMARK       I    between atoms: C2_4  and  N2_6 
REMARK    1  A    between atoms: N2_6  and  N3_8 
REMARK       I    between atoms: N3_8  and  C3_10 
REMARK    2  A    between atoms: C3_10  and  C4_12 
ROOT
HETATM    1  C1  UNL     1      23.659  49.836  67.832  1.00  0.00     0.151 C 
HETATM    2  N1  UNL     1      23.263  48.656  68.561  1.00  0.00    -0.346 N 
ATOM      3  H1  UNL     1      22.582  48.736  69.316  1.00  0.00     0.163 HD
HETATM    4  C2  UNL     1      23.808  47.385  68.241  1.00  0.00     0.334 C 
HETATM    5  O1  UNL     1      24.659  47.306  67.297  1.00  0.00    -0.246 OA
HETATM    6  N2  UNL     1      23.419  46.221  68.957  1.00  0.00    -0.249 N 
ATOM      7  H2  UNL     1      22.736  46.310  69.710  1.00  0.00     0.192 HD
ENDROOT
BRANCH   6   8
HETATM    8  N3  UNL     1      23.938  44.958  68.664  1.00  0.00    -0.258 N 
HETATM    9  C3  UNL     1      23.622  43.796  69.410  1.00  0.00     0.325 C 
HETATM   10  O2  UNL     1      22.838  43.878  70.391  1.00  0.00    -0.261 OA
ATOM     11  H3  UNL     1      24.576  44.868  67.873  1.00  0.00     0.190 HD
BRANCH   9  12
HETATM   12  C4  UNL     1      24.178  42.496  69.083  1.00  0.00     0.324 C 
HETATM   13  N4  UNL     1      25.221  41.883  69.819  1.00  0.00    -0.053 NA
HETATM   14  O3  UNL     1      23.709  41.882  68.096  1.00  0.00    -0.266 OA
ENDBRANCH   9  12
ENDBRANCH   6   8
TORSDOF 2
ENDMDL
MODEL 4
REMARK VINA RESULT: -5.589994860      1.492      1.492
REMARK  2 active torsions:
REMARK  status: ('A' for Active; 'I' for Inactive)
REMARK       I    between atoms: N1_2  and  C2_4 
REMARK       I    between atoms: C2_4  and  N2_6 
REMARK    1  A    between atoms: N2_6  and  N3_8 
REMARK       I    between atoms: N3_8  and  C3_10 
REMARK    2  A    between atoms: C3_10  and  C4_12 
ROOT
HETATM    1  C1  UNL     1      23.453  48.866  67.686  1.00  0.00     0.151 C 
HETATM    2  N1  UNL     1      24.551  47.933  67.729  1.00  0.00    -0.346 N 
ATOM      3  H1  UNL     1      25.461  48.210  67.361  1.00  0.00     0.163 HD
HETATM    4  C2  UNL     1      24.382  46.634  68.276  1.00  0.00     0.334 C 
HETATM    5  O1  UNL     1      23.238  46.306  68.728  1.00  0.00    -0.246 OA
HETATM    6  N2  UNL     1      25.464  45.713  68.320  1.00  0.00    -0.249 N 
ATOM      7  H2  UNL     1      26.371  45.999  67.951  1.00  0.00     0.192 HD
ENDROOT
BRANCH   6   8
HETATM    8  N3  UNL     1      25.327  44.429  68.853  1.00  0.00    -0.258 N 
HETATM    9  C3  UNL     1      24.984  43.298  68.073  1.00  0.00     0.325 C 
HETATM   10  O2  UNL     1      24.787  43.428  66.837  1.00  0.00    -0.261 OA
ATOM     11  H3  UNL     1      25.482  44.300  69.853  1.00  0.00     0.190 HD
BRANCH   9  12
HETATM   12  C4  UNL     1      24.849  41.974  68.654  1.00  0.00     0.324 C 
HETATM   13  N4  UNL     1      25.154  41.678  70.004  1.00  0.00    -0.053 NA
HETATM   14  O3  UNL     1      24.440  41.044  67.921  1.00  0.00    -0.266 OA
ENDBRANCH   9  12
ENDBRANCH   6   8
TORSDOF 2
ENDMDL
MODEL 5
REMARK VINA RESULT: -5.535614045      4.115      6.360
REMARK  2 active torsions:
REMARK  status: ('A' for Active; 'I' for Inactive)
REMARK       I    between atoms: N1_2  and  C2_4 
REMARK       I    between atoms: C2_4  and  N2_6 
REMARK    1  A    between atoms: N2_6  and  N3_8 
REMARK       I    between atoms: N3_8  and  C3_10 
REMARK    2  A    between atoms: C3_10  and  C4_12 
ROOT
HETATM    1  C1  UNL     1      26.602  47.485  68.480  1.00  0.00     0.151 C 
HETATM    2  N1  UNL     1      25.289  47.698  69.036  1.00  0.00    -0.346 N 
ATOM      3  H1  UNL     1      25.174  47.759  70.048  1.00  0.00     0.163 HD
HETATM    4  C2  UNL     1      24.153  47.825  68.195  1.00  0.00     0.334 C 
HETATM    5  O1  UNL     1      24.315  47.745  66.934  1.00  0.00    -0.246 OA
HETATM    6  N2  UNL     1      22.858  48.037  68.741  1.00  0.00    -0.249 N 
ATOM      7  H2  UNL     1      22.753  48.097  69.753  1.00  0.00     0.192 HD
ENDROOT
BRANCH   6   8
HETATM    8  N3  UNL     1      21.723  48.165  67.936  1.00  0.00    -0.258 N 
HETATM    9  C3  UNL     1      21.417  49.341  67.208  1.00  0.00     0.325 C 
HETATM   10  O2  UNL     1      22.189  50.333  67.271  1.00  0.00    -0.261 OA
ATOM     11  H3  UNL     1      21.083  47.374  67.870  1.00  0.00     0.190 HD
BRANCH   9  12
HETATM   12  C4  UNL     1      20.230  49.447  66.379  1.00  0.00     0.324 C 
HETATM   13  N4  UNL     1      20.268  49.715  64.989  1.00  0.00    -0.053 NA
HETATM   14  O3  UNL     1      19.112  49.294  66.922  1.00  0.00    -0.266 OA
ENDBRANCH   9  12
ENDBRANCH   6   8
TORSDOF 2
ENDMDL
