MODEL 1
REMARK VINA RESULT: -6.778025985      0.000      0.000
REMARK  3 active torsions:
REMARK  status: ('A' for Active; 'I' for Inactive)
REMARK       I    between atoms: C1_4  and  N2_5 
REMARK       I    between atoms: C1_4  and  N6_14 
REMARK    1  A    between atoms: N2_5  and  N3_7 
REMARK    2  A    between atoms: N4_9  and  N5_11 
REMARK       I    between atoms: N6_14  and  C2_16 
REMARK    3  A    between atoms: C2_16  and  C3_18 
ROOT
HETATM    1  N1  UNL     1      23.431  50.033  65.996  1.00  0.00    -0.233 N 
ATOM      2  H11 UNL     1      23.495  50.275  65.007  1.00  0.00     0.174 HD
ATOM      3  H12 UNL     1      24.283  49.991  66.555  1.00  0.00     0.174 HD
HETATM    4  C1  UNL     1      22.304  49.774  66.582  1.00  0.00     0.694 C 
HETATM    5  N2  UNL     1      22.216  49.439  67.950  1.00  0.00    -0.117 N 
ATOM      6  H2  UNL     1      21.952  50.148  68.634  1.00  0.00     0.207 HD
HETATM    7  N6  UNL     1      21.127  49.833  65.809  1.00  0.00    -0.151 N 
ATOM      8  H6  UNL     1      21.181  50.073  64.819  1.00  0.00     0.188 HD
HETATM    9  C2  UNL     1      19.865  49.560  66.399  1.00  0.00     0.324 C 
HETATM   10  O1  UNL     1      19.777  49.255  67.638  1.00  0.00    -0.262 OA
ENDROOT
BRANCH   5  11
HETATM   11  N3  UNL     1      22.489  48.146  68.363  1.00  0.00    -0.214 N 
HETATM   12  N4  UNL     1      23.310  47.810  69.246  1.00  0.00    -0.234 N 
ATOM     13  H4  UNL     1      23.439  46.825  69.479  1.00  0.00     0.209 HD
ATOM     14  H3  UNL     1      21.972  47.396  67.904  1.00  0.00     0.210 HD
BRANCH  12  15
HETATM   15  N5  UNL     1      24.045  48.787  69.905  1.00  0.00    -0.330 N 
ATOM     16  H52 UNL     1      23.561  49.592  70.300  1.00  0.00     0.178 HD
ATOM     17  H51 UNL     1      25.057  48.687  69.986  1.00  0.00     0.178 HD
ENDBRANCH  12  15
ENDBRANCH   5  11
BRANCH   9  18
HETATM   18  C3  UNL     1      18.656  49.621  65.602  1.00  0.00     0.323 C 
HETATM   19  N7  UNL     1      17.466  50.132  66.165  1.00  0.00    -0.053 NA
HETATM   20  O2  UNL     1      18.662  49.224  64.414  1.00  0.00    -0.266 OA
ENDBRANCH   9  18
TORSDOF 3
ENDMDL
MODEL 2
REMARK VINA RESULT: -6.642628386      5.090      6.766
REMARK  3 active torsions:
REMARK  status: ('A' for Active; 'I' for Inactive)
REMARK       I    between atoms: C1_4  and  N2_5 
REMARK       I    between atoms: C1_4  and  N6_14 
REMARK    1  A    between atoms: N2_5  and  N3_7 
REMARK    2  A    between atoms: N4_9  and  N5_11 
REMARK       I    between atoms: N6_14  and  C2_16 
REMARK    3  A    between atoms: C2_16  and  C3_18 
ROOT
HETATM    1  N1  UNL     1      27.068  46.299  68.176  1.00  0.00    -0.233 N 
ATOM      2  H11 UNL     1      27.862  45.675  68.320  1.00  0.00     0.174 HD
ATOM      3  H12 UNL     1      27.237  47.264  67.895  1.00  0.00     0.174 HD
HETATM    4  C1  UNL     1      25.839  45.916  68.334  1.00  0.00     0.694 C 
HETATM    5  N2  UNL     1      24.741  46.779  68.135  1.00  0.00    -0.117 N 
ATOM      6  H2  UNL     1      24.219  46.748  67.259  1.00  0.00     0.207 HD
HETATM    7  N6  UNL     1      25.606  44.581  68.722  1.00  0.00    -0.151 N 
ATOM      8  H6  UNL     1      26.395  43.950  68.870  1.00  0.00     0.188 HD
HETATM    9  C2  UNL     1      24.281  44.108  68.909  1.00  0.00     0.324 C 
HETATM   10  O1  UNL     1      23.281  44.883  68.730  1.00  0.00    -0.262 OA
ENDROOT
BRANCH   5  11
HETATM   11  N3  UNL     1      24.373  47.669  69.129  1.00  0.00    -0.214 N 
HETATM   12  N4  UNL     1      23.226  48.135  69.315  1.00  0.00    -0.234 N 
ATOM     13  H4  UNL     1      23.056  48.788  70.080  1.00  0.00     0.209 HD
ATOM     14  H3  UNL     1      25.105  47.973  69.771  1.00  0.00     0.210 HD
BRANCH  12  15
HETATM   15  N5  UNL     1      22.188  47.759  68.473  1.00  0.00    -0.330 N 
ATOM     16  H52 UNL     1      22.231  46.856  68.002  1.00  0.00     0.178 HD
ATOM     17  H51 UNL     1      21.398  48.389  68.336  1.00  0.00     0.178 HD
ENDBRANCH  12  15
ENDBRANCH   5  11
BRANCH   9  18
HETATM   18  C3  UNL     1      24.045  42.734  69.307  1.00  0.00     0.323 C 
HETATM   19  N7  UNL     1      25.084  41.982  69.897  1.00  0.00    -0.053 NA
HETATM   20  O2  UNL     1      22.921  42.210  69.131  1.00  0.00    -0.266 OA
ENDBRANCH   9  18
TORSDOF 3
ENDMDL
MODEL 3
REMARK VINA RESULT: -6.427661061      7.107      8.717
REMARK  3 active torsions:
REMARK  status: ('A' for Active; 'I' for Inactive)
REMARK       I    between atoms: C1_4  and  N2_5 
REMARK       I    between atoms: C1_4  and  N6_14 
REMARK    1  A    between atoms: N2_5  and  N3_7 
REMARK    2  A    between atoms: N4_9  and  N5_11 
REMARK       I    between atoms: N6_14  and  C2_16 
REMARK    3  A    between atoms: C2_16  and  C3_18 
ROOT
HETATM    1  N1  UNL     1      23.534  45.526  68.623  1.00  0.00    -0.233 N 
ATOM      2  H11 UNL     1      22.957  46.069  69.265  1.00  0.00     0.174 HD
ATOM      3  H12 UNL     1      23.705  45.881  67.683  1.00  0.00     0.174 HD
HETATM    4  C1  UNL     1      24.068  44.391  68.952  1.00  0.00     0.694 C 
HETATM    5  N2  UNL     1      24.867  43.639  68.063  1.00  0.00    -0.117 N 
ATOM      6  H2  UNL     1      25.884  43.683  68.129  1.00  0.00     0.207 HD
HETATM    7  N6  UNL     1      23.832  43.899  70.252  1.00  0.00    -0.151 N 
ATOM      8  H6  UNL     1      23.254  44.436  70.900  1.00  0.00     0.188 HD
HETATM    9  C2  UNL     1      24.392  42.663  70.665  1.00  0.00     0.324 C 
HETATM   10  O1  UNL     1      25.117  41.976  69.867  1.00  0.00    -0.262 OA
ENDROOT
BRANCH   5  11
HETATM   11  N3  UNL     1      24.268  42.842  67.103  1.00  0.00    -0.214 N 
HETATM   12  N4  UNL     1      24.747  41.797  66.607  1.00  0.00    -0.234 N 
ATOM     13  H4  UNL     1      24.224  41.278  65.902  1.00  0.00     0.209 HD
ATOM     14  H3  UNL     1      23.351  43.134  66.766  1.00  0.00     0.210 HD
BRANCH  12  15
HETATM   15  N5  UNL     1      25.993  41.349  67.024  1.00  0.00    -0.330 N 
ATOM     16  H52 UNL     1      26.097  40.969  67.964  1.00  0.00     0.178 HD
ATOM     17  H51 UNL     1      26.788  41.407  66.387  1.00  0.00     0.178 HD
ENDBRANCH  12  15
ENDBRANCH   5  11
BRANCH   9  18
HETATM   18  C3  UNL     1      24.148  42.160  72.003  1.00  0.00     0.323 C 
HETATM   19  N7  UNL     1      23.912  43.063  73.063  1.00  0.00    -0.053 NA
HETATM   20  O2  UNL     1      24.144  40.927  72.224  1.00  0.00    -0.266 OA
ENDBRANCH   9  18
TORSDOF 3
ENDMDL
MODEL 4
REMARK VINA RESULT: -6.362108406      1.906      2.986
REMARK  3 active torsions:
REMARK  status: ('A' for Active; 'I' for Inactive)
REMARK       I    between atoms: C1_4  and  N2_5 
REMARK       I    between atoms: C1_4  and  N6_14 
REMARK    1  A    between atoms: N2_5  and  N3_7 
REMARK    2  A    between atoms: N4_9  and  N5_11 
REMARK       I    between atoms: N6_14  and  C2_16 
REMARK    3  A    between atoms: C2_16  and  C3_18 
ROOT
HETATM    1  N1  UNL     1      25.043  50.168  69.058  1.00  0.00    -0.233 N 
ATOM      2  H11 UNL     1      25.021  51.136  68.737  1.00  0.00     0.174 HD
ATOM      3  H12 UNL     1      25.825  49.849  69.628  1.00  0.00     0.174 HD
HETATM    4  C1  UNL     1      24.108  49.315  68.774  1.00  0.00     0.694 C 
HETATM    5  N2  UNL     1      24.138  47.976  69.218  1.00  0.00    -0.117 N 
ATOM      6  H2  UNL     1      23.593  47.696  70.034  1.00  0.00     0.207 HD
HETATM    7  N6  UNL     1      23.026  49.756  67.986  1.00  0.00    -0.151 N 
ATOM      8  H6  UNL     1      22.997  50.723  67.659  1.00  0.00     0.188 HD
HETATM    9  C2  UNL     1      21.975  48.865  67.645  1.00  0.00     0.324 C 
HETATM   10  O1  UNL     1      21.995  47.651  68.044  1.00  0.00    -0.262 OA
ENDROOT
BRANCH   5  11
HETATM   11  N3  UNL     1      24.908  47.042  68.547  1.00  0.00    -0.214 N 
HETATM   12  N4  UNL     1      24.655  45.822  68.431  1.00  0.00    -0.234 N 
ATOM     13  H4  UNL     1      25.289  45.213  67.913  1.00  0.00     0.209 HD
ATOM     14  H3  UNL     1      25.762  47.380  68.103  1.00  0.00     0.210 HD
BRANCH  12  15
HETATM   15  N5  UNL     1      23.507  45.302  69.014  1.00  0.00    -0.330 N 
ATOM     16  H52 UNL     1      23.181  45.686  69.900  1.00  0.00     0.178 HD
ATOM     17  H51 UNL     1      23.005  44.544  68.550  1.00  0.00     0.178 HD
ENDBRANCH  12  15
ENDBRANCH   5  11
BRANCH   9  18
HETATM   18  C3  UNL     1      20.863  49.323  66.835  1.00  0.00     0.323 C 
HETATM   19  N7  UNL     1      21.039  49.533  65.449  1.00  0.00    -0.053 NA
HETATM   20  O2  UNL     1      19.745  49.532  67.359  1.00  0.00    -0.266 OA
ENDBRANCH   9  18
TORSDOF 3
ENDMDL
MODEL 5
REMARK VINA RESULT: -6.043016553      5.551      7.151
REMARK  3 active torsions:
REMARK  status: ('A' for Active; 'I' for Inactive)
REMARK       I    between atoms: C1_4  and  N2_5 
REMARK       I    between atoms: C1_4  and  N6_14 
REMARK    1  A    between atoms: N2_5  and  N3_7 
REMARK    2  A    between atoms: N4_9  and  N5_11 
REMARK       I    between atoms: N6_14  and  C2_16 
REMARK    3  A    between atoms: C2_16  and  C3_18 
ROOT
HETATM    1  N1  UNL     1      26.637  46.713  68.679  1.00  0.00    -0.233 N 
ATOM      2  H11 UNL     1      27.569  46.388  68.937  1.00  0.00     0.174 HD
ATOM      3  H12 UNL     1      26.477  47.711  68.541  1.00  0.00     0.174 HD
HETATM    4  C1  UNL     1      25.635  45.907  68.514  1.00  0.00     0.694 C 
HETATM    5  N2  UNL     1      24.345  46.358  68.157  1.00  0.00    -0.117 N 
ATOM      6  H2  UNL     1      24.035  46.302  67.187  1.00  0.00     0.207 HD
HETATM    7  N6  UNL     1      25.856  44.528  68.704  1.00  0.00    -0.151 N 
ATOM      8  H6  UNL     1      26.784  44.194  68.964  1.00  0.00     0.188 HD
HETATM    9  C2  UNL     1      24.794  43.601  68.537  1.00  0.00     0.324 C 
HETATM   10  O1  UNL     1      23.624  44.000  68.214  1.00  0.00    -0.262 OA
ENDROOT
BRANCH   5  11
HETATM   11  N3  UNL     1      23.503  46.875  69.125  1.00  0.00    -0.214 N 
HETATM   12  N4  UNL     1      23.166  48.074  69.247  1.00  0.00    -0.234 N 
ATOM     13  H4  UNL     1      22.536  48.357  69.998  1.00  0.00     0.209 HD
ATOM     14  H3  UNL     1      23.119  46.217  69.804  1.00  0.00     0.210 HD
BRANCH  12  15
HETATM   15  N5  UNL     1      23.657  49.018  68.354  1.00  0.00    -0.330 N 
ATOM     16  H52 UNL     1      23.076  49.309  67.569  1.00  0.00     0.178 HD
ATOM     17  H51 UNL     1      24.589  49.407  68.495  1.00  0.00     0.178 HD
ENDBRANCH  12  15
ENDBRANCH   5  11
BRANCH   9  18
HETATM   18  C3  UNL     1      25.025  42.183  68.733  1.00  0.00     0.323 C 
HETATM   19  N7  UNL     1      24.434  41.245  67.858  1.00  0.00    -0.053 NA
HETATM   20  O2  UNL     1      25.747  41.784  69.676  1.00  0.00    -0.266 OA
ENDBRANCH   9  18
TORSDOF 3
ENDMDL
