MODEL 1
REMARK VINA RESULT: -5.854385154      0.000      0.000
REMARK  3 active torsions:
REMARK  status: ('A' for Active; 'I' for Inactive)
REMARK    1  A    between atoms: N1_1  and  N2_4 
REMARK    2  A    between atoms: N2_4  and  N3_6 
REMARK    3  A    between atoms: N6_13  and  C2_14 
ROOT
HETATM    1  N3  UNL     1      25.442  44.344  68.250  1.00  0.00    -0.122 N 
HETATM    2  N4  UNL     1      26.186  43.458  67.480  1.00  0.00    -0.223 N 
ATOM      3  H4  UNL     1      27.153  43.700  67.263  1.00  0.00     0.194 HD
HETATM    4  C1  UNL     1      25.670  42.226  66.978  1.00  0.00     0.355 A 
HETATM    5  O1  UNL     1      26.441  41.486  66.284  1.00  0.00    -0.244 OA
HETATM    6  N5  UNL     1      24.341  41.871  67.263  1.00  0.00    -0.237 N 
ATOM      7  H5  UNL     1      23.957  40.995  66.909  1.00  0.00     0.192 HD
HETATM    8  N6  UNL     1      23.542  42.737  68.042  1.00  0.00    -0.173 N 
HETATM    9  C3  UNL     1      24.084  43.953  68.527  1.00  0.00     0.386 A 
HETATM   10  O3  UNL     1      23.343  44.694  69.215  1.00  0.00    -0.241 OA
ENDROOT
BRANCH   1  11
HETATM   11  N2  UNL     1      25.854  45.532  68.766  1.00  0.00    -0.223 N 
ATOM     12  H2  UNL     1      26.609  45.555  69.451  1.00  0.00     0.210 HD
BRANCH  11  13
HETATM   13  N1  UNL     1      25.270  46.668  68.378  1.00  0.00    -0.329 N 
ATOM     14  H12 UNL     1      25.853  47.484  68.190  1.00  0.00     0.178 HD
ATOM     15  H11 UNL     1      24.256  46.712  68.273  1.00  0.00     0.178 HD
ENDBRANCH  11  13
ENDBRANCH   1  11
BRANCH   8  16
HETATM   16  C2  UNL     1      22.215  42.330  68.297  1.00  0.00     0.380 C 
HETATM   17  O2  UNL     1      21.922  41.141  67.891  1.00  0.00    -0.281 OA
ENDBRANCH   8  16
TORSDOF 3
ENDMDL
MODEL 2
REMARK VINA RESULT: -5.726190887      1.438      3.054
REMARK  3 active torsions:
REMARK  status: ('A' for Active; 'I' for Inactive)
REMARK    1  A    between atoms: N1_1  and  N2_4 
REMARK    2  A    between atoms: N2_4  and  N3_6 
REMARK    3  A    between atoms: N6_13  and  C2_14 
ROOT
HETATM    1  N3  UNL     1      23.531  44.351  68.631  1.00  0.00    -0.122 N 
HETATM    2  N4  UNL     1      22.543  43.374  68.599  1.00  0.00    -0.223 N 
ATOM      3  H4  UNL     1      21.655  43.569  69.059  1.00  0.00     0.194 HD
HETATM    4  C1  UNL     1      22.707  42.111  67.956  1.00  0.00     0.355 A 
HETATM    5  O1  UNL     1      21.734  41.287  67.985  1.00  0.00    -0.244 OA
HETATM    6  N5  UNL     1      23.922  41.818  67.316  1.00  0.00    -0.237 N 
ATOM      7  H5  UNL     1      24.055  40.919  66.854  1.00  0.00     0.192 HD
HETATM    8  N6  UNL     1      24.958  42.778  67.318  1.00  0.00    -0.173 N 
HETATM    9  C3  UNL     1      24.765  44.024  67.965  1.00  0.00     0.386 A 
HETATM   10  O3  UNL     1      25.708  44.850  67.944  1.00  0.00    -0.241 OA
ENDROOT
BRANCH   1  11
HETATM   11  N2  UNL     1      23.458  45.575  69.217  1.00  0.00    -0.223 N 
ATOM     12  H2  UNL     1      23.250  45.652  70.212  1.00  0.00     0.210 HD
BRANCH  11  13
HETATM   13  N1  UNL     1      23.658  46.678  68.490  1.00  0.00    -0.329 N 
ATOM     14  H12 UNL     1      24.570  46.827  68.060  1.00  0.00     0.178 HD
ATOM     15  H11 UNL     1      22.904  47.355  68.372  1.00  0.00     0.178 HD
ENDBRANCH  11  13
ENDBRANCH   1  11
BRANCH   8  16
HETATM   16  C2  UNL     1      26.157  42.431  66.660  1.00  0.00     0.380 C 
HETATM   17  O2  UNL     1      26.264  41.185  66.343  1.00  0.00    -0.281 OA
ENDBRANCH   8  16
TORSDOF 3
ENDMDL
MODEL 3
REMARK VINA RESULT: -5.687128325      2.090      3.104
REMARK  3 active torsions:
REMARK  status: ('A' for Active; 'I' for Inactive)
REMARK    1  A    between atoms: N1_1  and  N2_4 
REMARK    2  A    between atoms: N2_4  and  N3_6 
REMARK    3  A    between atoms: N6_13  and  C2_14 
ROOT
HETATM    1  N3  UNL     1      23.908  44.410  69.111  1.00  0.00    -0.122 N 
HETATM    2  N4  UNL     1      23.878  43.598  70.238  1.00  0.00    -0.223 N 
ATOM      3  H4  UNL     1      23.343  43.914  71.047  1.00  0.00     0.194 HD
HETATM    4  C1  UNL     1      24.554  42.345  70.323  1.00  0.00     0.355 A 
HETATM    5  O1  UNL     1      24.458  41.678  71.405  1.00  0.00    -0.244 OA
HETATM    6  N5  UNL     1      25.297  41.889  69.222  1.00  0.00    -0.237 N 
ATOM      7  H5  UNL     1      25.788  40.996  69.268  1.00  0.00     0.192 HD
HETATM    8  N6  UNL     1      25.360  42.676  68.051  1.00  0.00    -0.173 N 
HETATM    9  C3  UNL     1      24.675  43.917  67.997  1.00  0.00     0.386 A 
HETATM   10  O3  UNL     1      24.754  44.586  66.940  1.00  0.00    -0.241 OA
ENDROOT
BRANCH   1  11
HETATM   11  N2  UNL     1      23.294  45.612  68.946  1.00  0.00    -0.223 N 
ATOM     12  H2  UNL     1      22.278  45.659  68.873  1.00  0.00     0.210 HD
BRANCH  11  13
HETATM   13  N1  UNL     1      24.021  46.730  68.880  1.00  0.00    -0.329 N 
ATOM     14  H12 UNL     1      24.734  46.900  69.589  1.00  0.00     0.178 HD
ATOM     15  H11 UNL     1      23.860  47.400  68.127  1.00  0.00     0.178 HD
ENDBRANCH  11  13
ENDBRANCH   1  11
BRANCH   8  16
HETATM   16  C2  UNL     1      26.120  42.170  66.975  1.00  0.00     0.380 C 
HETATM   17  O2  UNL     1      25.483  41.374  66.185  1.00  0.00    -0.281 OA
ENDBRANCH   8  16
TORSDOF 3
ENDMDL
MODEL 4
REMARK VINA RESULT: -5.509288695      2.302      2.901
REMARK  3 active torsions:
REMARK  status: ('A' for Active; 'I' for Inactive)
REMARK    1  A    between atoms: N1_1  and  N2_4 
REMARK    2  A    between atoms: N2_4  and  N3_6 
REMARK    3  A    between atoms: N6_13  and  C2_14 
ROOT
HETATM    1  N3  UNL     1      24.211  45.943  68.636  1.00  0.00    -0.122 N 
HETATM    2  N4  UNL     1      25.478  46.343  68.226  1.00  0.00    -0.223 N 
ATOM      3  H4  UNL     1      25.647  47.339  68.082  1.00  0.00     0.194 HD
HETATM    4  C1  UNL     1      26.553  45.435  67.993  1.00  0.00     0.355 A 
HETATM    5  O1  UNL     1      27.675  45.910  67.620  1.00  0.00    -0.244 OA
HETATM    6  N5  UNL     1      26.344  44.060  68.182  1.00  0.00    -0.237 N 
ATOM      7  H5  UNL     1      27.102  43.398  68.018  1.00  0.00     0.192 HD
HETATM    8  N6  UNL     1      25.075  43.600  68.601  1.00  0.00    -0.173 N 
HETATM    9  C3  UNL     1      24.027  44.528  68.824  1.00  0.00     0.386 A 
HETATM   10  O3  UNL     1      22.916  44.081  69.195  1.00  0.00    -0.241 OA
ENDROOT
BRANCH   1  11
HETATM   11  N2  UNL     1      23.136  46.738  68.880  1.00  0.00    -0.223 N 
ATOM     12  H2  UNL     1      22.196  46.401  68.674  1.00  0.00     0.210 HD
BRANCH  11  13
HETATM   13  N1  UNL     1      23.311  47.960  69.389  1.00  0.00    -0.329 N 
ATOM     14  H12 UNL     1      24.206  48.195  69.818  1.00  0.00     0.178 HD
ATOM     15  H11 UNL     1      22.554  48.644  69.345  1.00  0.00     0.178 HD
ENDBRANCH  11  13
ENDBRANCH   1  11
BRANCH   8  16
HETATM   16  C2  UNL     1      24.921  42.208  68.775  1.00  0.00     0.380 C 
HETATM   17  O2  UNL     1      25.203  41.773  69.957  1.00  0.00    -0.281 OA
ENDBRANCH   8  16
TORSDOF 3
ENDMDL
MODEL 5
REMARK VINA RESULT: -5.451572526      1.708      3.692
REMARK  3 active torsions:
REMARK  status: ('A' for Active; 'I' for Inactive)
REMARK    1  A    between atoms: N1_1  and  N2_4 
REMARK    2  A    between atoms: N2_4  and  N3_6 
REMARK    3  A    between atoms: N6_13  and  C2_14 
ROOT
HETATM    1  N3  UNL     1      23.584  43.056  67.817  1.00  0.00    -0.122 N 
HETATM    2  N4  UNL     1      24.416  42.142  67.181  1.00  0.00    -0.223 N 
ATOM      3  H4  UNL     1      24.017  41.252  66.883  1.00  0.00     0.194 HD
HETATM    4  C1  UNL     1      25.798  42.383  66.922  1.00  0.00     0.355 A 
HETATM    5  O1  UNL     1      26.469  41.476  66.330  1.00  0.00    -0.244 OA
HETATM    6  N5  UNL     1      26.370  43.601  67.324  1.00  0.00    -0.237 N 
ATOM      7  H5  UNL     1      27.357  43.787  67.149  1.00  0.00     0.192 HD
HETATM    8  N6  UNL     1      25.568  44.565  67.974  1.00  0.00    -0.173 N 
HETATM    9  C3  UNL     1      24.197  44.297  68.216  1.00  0.00     0.386 A 
HETATM   10  O3  UNL     1      23.519  45.178  68.794  1.00  0.00    -0.241 OA
ENDROOT
BRANCH   1  11
HETATM   11  N2  UNL     1      22.263  42.908  68.100  1.00  0.00    -0.223 N 
ATOM     12  H2  UNL     1      21.779  43.612  68.658  1.00  0.00     0.210 HD
BRANCH  11  13
HETATM   13  N1  UNL     1      21.598  41.842  67.649  1.00  0.00    -0.329 N 
ATOM     14  H12 UNL     1      21.564  41.000  68.224  1.00  0.00     0.178 HD
ATOM     15  H11 UNL     1      21.135  41.876  66.741  1.00  0.00     0.178 HD
ENDBRANCH  11  13
ENDBRANCH   1  11
BRANCH   8  16
HETATM   16  C2  UNL     1      26.194  45.771  68.355  1.00  0.00     0.380 C 
HETATM   17  O2  UNL     1      27.390  45.931  67.900  1.00  0.00    -0.281 OA
ENDBRANCH   8  16
TORSDOF 3
ENDMDL
