MODEL 1
REMARK VINA RESULT: -6.129915304      0.000      0.000
REMARK  3 active torsions:
REMARK  status: ('A' for Active; 'I' for Inactive)
REMARK    1  A    between atoms: N1_1  and  N2_4 
REMARK       I    between atoms: N2_4  and  C1_6 
REMARK    2  A    between atoms: C1_6  and  C2_8 
REMARK       I    between atoms: C2_8  and  N3_10 
REMARK    3  A    between atoms: N3_10  and  N4_12 
REMARK       I    between atoms: N4_12  and  C3_14 
ROOT
HETATM    1  C2  UNL     1      24.285  44.270  68.609  1.00  0.00     0.329 C 
HETATM    2  O2  UNL     1      25.550  44.242  68.724  1.00  0.00    -0.261 OA
HETATM    3  N3  UNL     1      23.538  45.452  68.700  1.00  0.00    -0.258 N 
ATOM      4  H3  UNL     1      22.526  45.393  68.596  1.00  0.00     0.190 HD
ENDROOT
BRANCH   1   5
HETATM    5  C1  UNL     1      23.612  42.988  68.371  1.00  0.00     0.329 C 
HETATM    6  N2  UNL     1      22.325  42.924  67.760  1.00  0.00    -0.268 N 
ATOM      7  H2  UNL     1      21.836  43.772  67.472  1.00  0.00     0.190 HD
HETATM    8  O1  UNL     1      24.211  41.923  68.727  1.00  0.00    -0.261 OA
BRANCH   6   9
HETATM    9  N1  UNL     1      21.757  41.664  67.571  1.00  0.00    -0.342 N 
ATOM     10  H12 UNL     1      22.320  40.824  67.699  1.00  0.00     0.176 HD
ATOM     11  H11 UNL     1      20.773  41.622  67.303  1.00  0.00     0.176 HD
ENDBRANCH   6   9
ENDBRANCH   1   5
BRANCH   3  12
HETATM   12  N4  UNL     1      24.107  46.706  68.925  1.00  0.00    -0.251 N 
HETATM   13  C3  UNL     1      23.396  47.912  68.676  1.00  0.00     0.347 C 
HETATM   14  N5  UNL     1      23.980  49.175  68.907  1.00  0.00    -0.038 NA
HETATM   15  O3  UNL     1      22.200  47.806  68.232  1.00  0.00    -0.249 OA
ATOM     16  H4  UNL     1      25.061  46.759  69.280  1.00  0.00     0.191 HD
ENDBRANCH   3  12
TORSDOF 3
ENDMDL
MODEL 2
REMARK VINA RESULT: -5.888082598      5.351      6.473
REMARK  3 active torsions:
REMARK  status: ('A' for Active; 'I' for Inactive)
REMARK    1  A    between atoms: N1_1  and  N2_4 
REMARK       I    between atoms: N2_4  and  C1_6 
REMARK    2  A    between atoms: C1_6  and  C2_8 
REMARK       I    between atoms: C2_8  and  N3_10 
REMARK    3  A    between atoms: N3_10  and  N4_12 
REMARK       I    between atoms: N4_12  and  C3_14 
ROOT
HETATM    1  C2  UNL     1      22.444  49.824  66.975  1.00  0.00     0.329 C 
HETATM    2  O2  UNL     1      22.809  50.037  65.777  1.00  0.00    -0.261 OA
HETATM    3  N3  UNL     1      21.100  49.699  67.351  1.00  0.00    -0.258 N 
ATOM      4  H3  UNL     1      20.887  49.528  68.333  1.00  0.00     0.190 HD
ENDROOT
BRANCH   1   5
HETATM    5  C1  UNL     1      23.506  49.709  67.981  1.00  0.00     0.329 C 
HETATM    6  N2  UNL     1      23.402  48.798  69.074  1.00  0.00    -0.268 N 
ATOM      7  H2  UNL     1      22.583  48.199  69.184  1.00  0.00     0.190 HD
HETATM    8  O1  UNL     1      24.532  50.450  67.855  1.00  0.00    -0.261 OA
BRANCH   6   9
HETATM    9  N1  UNL     1      24.457  48.752  69.985  1.00  0.00    -0.342 N 
ATOM     10  H12 UNL     1      25.294  48.209  69.773  1.00  0.00     0.176 HD
ATOM     11  H11 UNL     1      24.356  49.274  70.856  1.00  0.00     0.176 HD
ENDBRANCH   6   9
ENDBRANCH   1   5
BRANCH   3  12
HETATM   12  N4  UNL     1      20.037  49.798  66.452  1.00  0.00    -0.251 N 
HETATM   13  C3  UNL     1      18.684  49.826  66.886  1.00  0.00     0.347 C 
HETATM   14  N5  UNL     1      17.616  49.925  65.968  1.00  0.00    -0.038 NA
HETATM   15  O3  UNL     1      18.470  49.757  68.146  1.00  0.00    -0.249 OA
ATOM     16  H4  UNL     1      20.238  49.852  65.454  1.00  0.00     0.191 HD
ENDBRANCH   3  12
TORSDOF 3
ENDMDL
MODEL 3
REMARK VINA RESULT: -5.799534868      4.868      6.770
REMARK  3 active torsions:
REMARK  status: ('A' for Active; 'I' for Inactive)
REMARK    1  A    between atoms: N1_1  and  N2_4 
REMARK       I    between atoms: N2_4  and  C1_6 
REMARK    2  A    between atoms: C1_6  and  C2_8 
REMARK       I    between atoms: C2_8  and  N3_10 
REMARK    3  A    between atoms: N3_10  and  N4_12 
REMARK       I    between atoms: N4_12  and  C3_14 
ROOT
HETATM    1  C2  UNL     1      20.017  49.719  66.237  1.00  0.00     0.329 C 
HETATM    2  O2  UNL     1      20.252  49.749  64.989  1.00  0.00    -0.261 OA
HETATM    3  N3  UNL     1      21.029  49.771  67.205  1.00  0.00    -0.258 N 
ATOM      4  H3  UNL     1      20.761  49.744  68.188  1.00  0.00     0.190 HD
ENDROOT
BRANCH   1   5
HETATM    5  C1  UNL     1      18.610  49.625  66.645  1.00  0.00     0.329 C 
HETATM    6  N2  UNL     1      18.240  49.474  68.015  1.00  0.00    -0.268 N 
ATOM      7  H2  UNL     1      18.947  49.427  68.749  1.00  0.00     0.190 HD
HETATM    8  O1  UNL     1      17.720  49.681  65.738  1.00  0.00    -0.261 OA
BRANCH   6   9
HETATM    9  N1  UNL     1      16.881  49.392  68.316  1.00  0.00    -0.342 N 
ATOM     10  H12 UNL     1      16.541  48.682  68.964  1.00  0.00     0.176 HD
ATOM     11  H11 UNL     1      16.254  50.061  67.868  1.00  0.00     0.176 HD
ENDBRANCH   6   9
ENDBRANCH   1   5
BRANCH   3  12
HETATM   12  N4  UNL     1      22.387  49.860  66.893  1.00  0.00    -0.251 N 
HETATM   13  C3  UNL     1      23.338  48.933  67.401  1.00  0.00     0.347 C 
HETATM   14  N5  UNL     1      24.708  49.032  67.080  1.00  0.00    -0.038 NA
HETATM   15  O3  UNL     1      22.901  48.002  68.163  1.00  0.00    -0.249 OA
ATOM     16  H4  UNL     1      22.706  50.612  66.283  1.00  0.00     0.191 HD
ENDBRANCH   3  12
TORSDOF 3
ENDMDL
MODEL 4
REMARK VINA RESULT: -5.651875042      1.900      1.941
REMARK  3 active torsions:
REMARK  status: ('A' for Active; 'I' for Inactive)
REMARK    1  A    between atoms: N1_1  and  N2_4 
REMARK       I    between atoms: N2_4  and  C1_6 
REMARK    2  A    between atoms: C1_6  and  C2_8 
REMARK       I    between atoms: C2_8  and  N3_10 
REMARK    3  A    between atoms: N3_10  and  N4_12 
REMARK       I    between atoms: N4_12  and  C3_14 
ROOT
HETATM    1  C2  UNL     1      23.820  44.227  68.883  1.00  0.00     0.329 C 
HETATM    2  O2  UNL     1      23.066  44.105  69.899  1.00  0.00    -0.261 OA
HETATM    3  N3  UNL     1      24.215  45.471  68.374  1.00  0.00    -0.258 N 
ATOM      4  H3  UNL     1      24.823  45.487  67.555  1.00  0.00     0.190 HD
ENDROOT
BRANCH   1   5
HETATM    5  C1  UNL     1      24.277  42.988  68.243  1.00  0.00     0.329 C 
HETATM    6  N2  UNL     1      24.683  42.962  66.876  1.00  0.00    -0.268 N 
ATOM      7  H2  UNL     1      24.666  43.808  66.305  1.00  0.00     0.190 HD
HETATM    8  O1  UNL     1      24.301  41.927  68.944  1.00  0.00    -0.261 OA
BRANCH   6   9
HETATM    9  N1  UNL     1      25.103  41.743  66.345  1.00  0.00    -0.342 N 
ATOM     10  H12 UNL     1      24.750  41.428  65.442  1.00  0.00     0.176 HD
ATOM     11  H11 UNL     1      25.766  41.190  66.890  1.00  0.00     0.176 HD
ENDBRANCH   6   9
ENDBRANCH   1   5
BRANCH   3  12
HETATM   12  N4  UNL     1      23.821  46.690  68.927  1.00  0.00    -0.251 N 
HETATM   13  C3  UNL     1      24.568  47.883  68.731  1.00  0.00     0.347 C 
HETATM   14  N5  UNL     1      24.160  49.111  69.296  1.00  0.00    -0.038 NA
HETATM   15  O3  UNL     1      25.628  47.801  68.019  1.00  0.00    -0.249 OA
ATOM     16  H4  UNL     1      22.971  46.725  69.490  1.00  0.00     0.191 HD
ENDBRANCH   3  12
TORSDOF 3
ENDMDL
MODEL 5
REMARK VINA RESULT: -5.593849765      2.076      4.967
REMARK  3 active torsions:
REMARK  status: ('A' for Active; 'I' for Inactive)
REMARK    1  A    between atoms: N1_1  and  N2_4 
REMARK       I    between atoms: N2_4  and  C1_6 
REMARK    2  A    between atoms: C1_6  and  C2_8 
REMARK       I    between atoms: C2_8  and  N3_10 
REMARK    3  A    between atoms: N3_10  and  N4_12 
REMARK       I    between atoms: N4_12  and  C3_14 
ROOT
HETATM    1  C2  UNL     1      23.977  46.844  68.408  1.00  0.00     0.329 C 
HETATM    2  O2  UNL     1      25.227  47.040  68.295  1.00  0.00    -0.261 OA
HETATM    3  N3  UNL     1      23.433  45.639  68.872  1.00  0.00    -0.258 N 
ATOM      4  H3  UNL     1      22.419  45.559  68.936  1.00  0.00     0.190 HD
ENDROOT
BRANCH   1   5
HETATM    5  C1  UNL     1      23.095  47.953  68.026  1.00  0.00     0.329 C 
HETATM    6  N2  UNL     1      21.676  47.848  68.134  1.00  0.00    -0.268 N 
ATOM      7  H2  UNL     1      21.236  46.995  68.480  1.00  0.00     0.190 HD
HETATM    8  O1  UNL     1      23.632  49.022  67.592  1.00  0.00    -0.261 OA
BRANCH   6   9
HETATM    9  N1  UNL     1      20.911  48.949  67.750  1.00  0.00    -0.342 N 
ATOM     10  H12 UNL     1      20.342  48.908  66.904  1.00  0.00     0.176 HD
ATOM     11  H11 UNL     1      20.945  49.781  68.340  1.00  0.00     0.176 HD
ENDBRANCH   6   9
ENDBRANCH   1   5
BRANCH   3  12
HETATM   12  N4  UNL     1      24.207  44.541  69.251  1.00  0.00    -0.251 N 
HETATM   13  C3  UNL     1      23.802  43.205  68.984  1.00  0.00     0.347 C 
HETATM   14  N5  UNL     1      24.592  42.103  69.372  1.00  0.00    -0.038 NA
HETATM   15  O3  UNL     1      22.689  43.041  68.374  1.00  0.00    -0.249 OA
ATOM     16  H4  UNL     1      25.090  44.703  69.735  1.00  0.00     0.191 HD
ENDBRANCH   3  12
TORSDOF 3
ENDMDL
