MODEL 1
REMARK VINA RESULT: -9.229153291      0.000      0.000
REMARK  7 active torsions:
REMARK  status: ('A' for Active; 'I' for Inactive)
REMARK    1  A    between atoms: O1_2  and  C2_3 
REMARK    2  A    between atoms: C2_3  and  C3_5 
REMARK    3  A    between atoms: C3_5  and  N1_6 
REMARK    4  A    between atoms: N2_9  and  C6_10 
REMARK    5  A    between atoms: C6_10  and  C7_11 
REMARK    6  A    between atoms: C7_11  and  N3_12 
REMARK       I    between atoms: N3_12  and  C8_14 
REMARK    7  A    between atoms: C8_14  and  C9_16 
ROOT
HETATM    1  N1  UNL     1      -2.867  10.910  24.596  1.00  0.00    -0.380 N 
HETATM    2  C4  UNL     1      -3.070  10.635  23.226  1.00  0.00     0.142 C 
HETATM    3  C5  UNL     1      -3.695  11.821  22.523  1.00  0.00     0.143 C 
HETATM    4  N2  UNL     1      -4.944  12.073  23.222  1.00  0.00    -0.369 N 
HETATM    5  C19 UNL     1      -4.705  12.582  24.509  1.00  0.00     0.230 C 
HETATM    6  C20 UNL     1      -4.017  13.873  24.464  1.00  0.00     0.090 C 
HETATM    7  N4  UNL     1      -3.482  14.870  24.417  1.00  0.00    -0.195 NA
HETATM    8  C21 UNL     1      -3.846  11.623  25.301  1.00  0.00     0.098 C 
ENDROOT
BRANCH   4   9
HETATM    9  C6  UNL     1      -5.944  12.637  22.405  1.00  0.00     0.079 C 
BRANCH   9  10
HETATM   10  C7  UNL     1      -7.006  11.622  22.077  1.00  0.00     0.166 C 
BRANCH  10  11
HETATM   11  N3  UNL     1      -6.658  10.789  20.932  1.00  0.00    -0.356 N 
HETATM   12  C8  UNL     1      -7.031   9.438  20.836  1.00  0.00     0.226 C 
HETATM   13  O3  UNL     1      -7.684   8.893  21.754  1.00  0.00    -0.273 OA
ATOM     14  H3  UNL     1      -6.123  11.205  20.170  1.00  0.00     0.162 HD
BRANCH  12  15
HETATM   15  C9  UNL     1      -6.649   8.647  19.634  1.00  0.00     0.043 C 
HETATM   16  C10 UNL     1      -5.149   8.638  19.503  1.00  0.00     0.024 C 
HETATM   17  C11 UNL     1      -4.691   7.889  18.289  1.00  0.00    -0.012 C 
HETATM   18  C12 UNL     1      -5.103   6.444  18.464  1.00  0.00     0.009 C 
HETATM   19  C16 UNL     1      -5.357   8.487  17.070  1.00  0.00     0.025 C 
HETATM   20  C13 UNL     1      -6.590   6.388  18.646  1.00  0.00    -0.012 C 
HETATM   21  C14 UNL     1      -7.238   6.918  17.381  1.00  0.00     0.025 C 
HETATM   22  C18 UNL     1      -7.083   7.205  19.796  1.00  0.00     0.024 C 
HETATM   23  C15 UNL     1      -6.857   8.353  17.212  1.00  0.00     0.020 C 
HETATM   24 BR1  UNL     1      -7.717   9.063  15.623  1.00  0.00    -0.085 Br
HETATM   25  C17 UNL     1      -7.301   9.182  18.394  1.00  0.00     0.040 C 
ENDBRANCH  12  15
ENDBRANCH  10  11
ENDBRANCH   9  10
ENDBRANCH   4   9
BRANCH   1  26
HETATM   26  C3  UNL     1      -1.507  11.090  25.010  1.00  0.00     0.233 C 
BRANCH  26  27
HETATM   27  C2  UNL     1      -1.061   9.844  25.736  1.00  0.00     0.276 C 
HETATM   28  O2  UNL     1       0.131   9.450  25.710  1.00  0.00    -0.263 OA
BRANCH  27  29
HETATM   29  O1  UNL     1      -1.967   9.087  26.462  1.00  0.00    -0.325 OA
HETATM   30  C1  UNL     1      -1.653   8.320  27.583  1.00  0.00     0.213 C 
ENDBRANCH  27  29
ENDBRANCH  26  27
ENDBRANCH   1  26
TORSDOF 7
ENDMDL
MODEL 2
REMARK VINA RESULT: -9.175738543      1.496      2.196
REMARK  7 active torsions:
REMARK  status: ('A' for Active; 'I' for Inactive)
REMARK    1  A    between atoms: O1_2  and  C2_3 
REMARK    2  A    between atoms: C2_3  and  C3_5 
REMARK    3  A    between atoms: C3_5  and  N1_6 
REMARK    4  A    between atoms: N2_9  and  C6_10 
REMARK    5  A    between atoms: C6_10  and  C7_11 
REMARK    6  A    between atoms: C7_11  and  N3_12 
REMARK       I    between atoms: N3_12  and  C8_14 
REMARK    7  A    between atoms: C8_14  and  C9_16 
ROOT
HETATM    1  N1  UNL     1      -1.228  10.688  24.772  1.00  0.00    -0.380 N 
HETATM    2  C4  UNL     1      -2.635  10.594  24.693  1.00  0.00     0.142 C 
HETATM    3  C5  UNL     1      -3.109  10.764  23.265  1.00  0.00     0.143 C 
HETATM    4  N2  UNL     1      -2.623  12.068  22.847  1.00  0.00    -0.369 N 
HETATM    5  C19 UNL     1      -1.226  12.058  22.697  1.00  0.00     0.230 C 
HETATM    6  C20 UNL     1      -0.799  11.129  21.651  1.00  0.00     0.090 C 
HETATM    7  N4  UNL     1      -0.479  10.405  20.840  1.00  0.00    -0.195 NA
HETATM    8  C21 UNL     1      -0.564  11.642  23.990  1.00  0.00     0.098 C 
ENDROOT
BRANCH   4   9
HETATM    9  C6  UNL     1      -3.441  12.692  21.884  1.00  0.00     0.079 C 
BRANCH   9  10
HETATM   10  C7  UNL     1      -4.802  12.053  21.838  1.00  0.00     0.166 C 
BRANCH  10  11
HETATM   11  N3  UNL     1      -4.910  11.026  20.810  1.00  0.00    -0.356 N 
HETATM   12  C8  UNL     1      -6.050  10.216  20.662  1.00  0.00     0.226 C 
HETATM   13  O3  UNL     1      -7.028  10.352  21.431  1.00  0.00    -0.273 OA
ATOM     14  H3  UNL     1      -4.126  10.889  20.171  1.00  0.00     0.162 HD
BRANCH  12  15
HETATM   15  C9  UNL     1      -6.096   9.191  19.585  1.00  0.00     0.043 C 
HETATM   16  C10 UNL     1      -4.703   8.679  19.327  1.00  0.00     0.024 C 
HETATM   17  C11 UNL     1      -4.668   7.666  18.224  1.00  0.00    -0.012 C 
HETATM   18  C12 UNL     1      -5.474   6.469  18.679  1.00  0.00     0.009 C 
HETATM   19  C16 UNL     1      -5.279   8.277  16.984  1.00  0.00     0.025 C 
HETATM   20  C13 UNL     1      -6.867   6.923  18.997  1.00  0.00    -0.012 C 
HETATM   21  C14 UNL     1      -7.489   7.459  17.721  1.00  0.00     0.025 C 
HETATM   22  C18 UNL     1      -6.924   8.002  20.028  1.00  0.00     0.024 C 
HETATM   23  C15 UNL     1      -6.714   8.657  17.276  1.00  0.00     0.020 C 
HETATM   24 BR1  UNL     1      -7.524   9.386  15.670  1.00  0.00    -0.085 Br
HETATM   25  C17 UNL     1      -6.716   9.736  18.333  1.00  0.00     0.040 C 
ENDBRANCH  12  15
ENDBRANCH  10  11
ENDBRANCH   9  10
ENDBRANCH   4   9
BRANCH   1  26
HETATM   26  C3  UNL     1      -0.528   9.468  25.044  1.00  0.00     0.233 C 
BRANCH  26  27
HETATM   27  C2  UNL     1      -0.801   9.070  26.473  1.00  0.00     0.276 C 
HETATM   28  O2  UNL     1       0.101   9.069  27.348  1.00  0.00    -0.263 OA
BRANCH  27  29
HETATM   29  O1  UNL     1      -2.074   8.689  26.870  1.00  0.00    -0.325 OA
HETATM   30  C1  UNL     1      -2.364   7.910  27.989  1.00  0.00     0.213 C 
ENDBRANCH  27  29
ENDBRANCH  26  27
ENDBRANCH   1  26
TORSDOF 7
ENDMDL
MODEL 3
REMARK VINA RESULT: -9.164311625      1.224      1.434
REMARK  7 active torsions:
REMARK  status: ('A' for Active; 'I' for Inactive)
REMARK    1  A    between atoms: O1_2  and  C2_3 
REMARK    2  A    between atoms: C2_3  and  C3_5 
REMARK    3  A    between atoms: C3_5  and  N1_6 
REMARK    4  A    between atoms: N2_9  and  C6_10 
REMARK    5  A    between atoms: C6_10  and  C7_11 
REMARK    6  A    between atoms: C7_11  and  N3_12 
REMARK       I    between atoms: N3_12  and  C8_14 
REMARK    7  A    between atoms: C8_14  and  C9_16 
ROOT
HETATM    1  N1  UNL     1      -1.212  10.175  24.315  1.00  0.00    -0.380 N 
HETATM    2  C4  UNL     1      -0.768  10.755  23.107  1.00  0.00     0.142 C 
HETATM    3  C5  UNL     1      -1.476  12.068  22.845  1.00  0.00     0.143 C 
HETATM    4  N2  UNL     1      -2.892  11.745  22.809  1.00  0.00    -0.369 N 
HETATM    5  C19 UNL     1      -3.361  11.405  24.089  1.00  0.00     0.230 C 
HETATM    6  C20 UNL     1      -3.240  12.521  25.027  1.00  0.00     0.090 C 
HETATM    7  N4  UNL     1      -3.138  13.391  25.745  1.00  0.00    -0.195 NA
HETATM    8  C21 UNL     1      -2.573  10.241  24.644  1.00  0.00     0.098 C 
ENDROOT
BRANCH   4   9
HETATM    9  C6  UNL     1      -3.645  12.597  21.976  1.00  0.00     0.079 C 
BRANCH   9  10
HETATM   10  C7  UNL     1      -5.032  12.054  21.766  1.00  0.00     0.166 C 
BRANCH  10  11
HETATM   11  N3  UNL     1      -5.083  11.005  20.755  1.00  0.00    -0.356 N 
HETATM   12  C8  UNL     1      -6.199  10.168  20.586  1.00  0.00     0.226 C 
HETATM   13  O3  UNL     1      -7.205  10.297  21.318  1.00  0.00    -0.273 OA
ATOM     14  H3  UNL     1      -4.275  10.873  20.146  1.00  0.00     0.162 HD
BRANCH  12  15
HETATM   15  C9  UNL     1      -6.186   9.120  19.529  1.00  0.00     0.043 C 
HETATM   16  C10 UNL     1      -4.765   8.689  19.275  1.00  0.00     0.024 C 
HETATM   17  C11 UNL     1      -4.672   7.659  18.192  1.00  0.00    -0.012 C 
HETATM   18  C12 UNL     1      -5.403   6.424  18.672  1.00  0.00     0.009 C 
HETATM   19  C16 UNL     1      -5.322   8.208  16.942  1.00  0.00     0.025 C 
HETATM   20  C13 UNL     1      -6.820   6.799  18.987  1.00  0.00    -0.012 C 
HETATM   21  C14 UNL     1      -7.476   7.271  17.704  1.00  0.00     0.025 C 
HETATM   22  C18 UNL     1      -6.939   7.892  19.998  1.00  0.00     0.024 C 
HETATM   23  C15 UNL     1      -6.777   8.505  17.233  1.00  0.00     0.020 C 
HETATM   24 BR1  UNL     1      -7.635   9.153  15.616  1.00  0.00    -0.085 Br
HETATM   25  C17 UNL     1      -6.842   9.602  18.269  1.00  0.00     0.040 C 
ENDBRANCH  12  15
ENDBRANCH  10  11
ENDBRANCH   9  10
ENDBRANCH   4   9
BRANCH   1  26
HETATM   26  C3  UNL     1      -0.279  10.189  25.403  1.00  0.00     0.233 C 
BRANCH  26  27
HETATM   27  C2  UNL     1      -0.482   8.937  26.220  1.00  0.00     0.276 C 
HETATM   28  O2  UNL     1      -0.126   7.806  25.805  1.00  0.00    -0.263 OA
BRANCH  27  29
HETATM   29  O1  UNL     1      -1.078   8.998  27.471  1.00  0.00    -0.325 OA
HETATM   30  C1  UNL     1      -1.921   8.025  28.005  1.00  0.00     0.213 C 
ENDBRANCH  27  29
ENDBRANCH  26  27
ENDBRANCH   1  26
TORSDOF 7
ENDMDL
MODEL 4
REMARK VINA RESULT: -8.947768186      1.537      1.831
REMARK  7 active torsions:
REMARK  status: ('A' for Active; 'I' for Inactive)
REMARK    1  A    between atoms: O1_2  and  C2_3 
REMARK    2  A    between atoms: C2_3  and  C3_5 
REMARK    3  A    between atoms: C3_5  and  N1_6 
REMARK    4  A    between atoms: N2_9  and  C6_10 
REMARK    5  A    between atoms: C6_10  and  C7_11 
REMARK    6  A    between atoms: C7_11  and  N3_12 
REMARK       I    between atoms: N3_12  and  C8_14 
REMARK    7  A    between atoms: C8_14  and  C9_16 
ROOT
HETATM    1  N1  UNL     1      -1.879  10.285  24.726  1.00  0.00    -0.380 N 
HETATM    2  C4  UNL     1      -1.652  10.623  23.374  1.00  0.00     0.142 C 
HETATM    3  C5  UNL     1      -2.305  11.945  23.030  1.00  0.00     0.143 C 
HETATM    4  N2  UNL     1      -3.717  11.769  23.321  1.00  0.00    -0.369 N 
HETATM    5  C19 UNL     1      -3.937  11.680  24.706  1.00  0.00     0.230 C 
HETATM    6  C20 UNL     1      -3.548  12.909  25.397  1.00  0.00     0.090 C 
HETATM    7  N4  UNL     1      -3.240  13.865  25.922  1.00  0.00    -0.195 NA
HETATM    8  C21 UNL     1      -3.135  10.541  25.291  1.00  0.00     0.098 C 
ENDROOT
BRANCH   4   9
HETATM    9  C6  UNL     1      -4.563  12.554  22.512  1.00  0.00     0.079 C 
BRANCH   9  10
HETATM   10  C7  UNL     1      -4.120  12.514  21.074  1.00  0.00     0.166 C 
BRANCH  10  11
HETATM   11  N3  UNL     1      -4.842  11.522  20.288  1.00  0.00    -0.356 N 
HETATM   12  C8  UNL     1      -4.309  10.256  19.989  1.00  0.00     0.226 C 
HETATM   13  O3  UNL     1      -3.168   9.937  20.394  1.00  0.00    -0.273 OA
ATOM     14  H3  UNL     1      -5.773  11.755  19.941  1.00  0.00     0.162 HD
BRANCH  12  15
HETATM   15  C9  UNL     1      -5.103   9.287  19.186  1.00  0.00     0.043 C 
HETATM   16  C10 UNL     1      -4.398   7.956  19.176  1.00  0.00     0.024 C 
HETATM   17  C11 UNL     1      -5.125   6.937  18.353  1.00  0.00    -0.012 C 
HETATM   18  C12 UNL     1      -6.466   6.694  19.009  1.00  0.00     0.009 C 
HETATM   19  C16 UNL     1      -5.310   7.485  16.955  1.00  0.00     0.025 C 
HETATM   20  C13 UNL     1      -7.203   7.996  19.091  1.00  0.00    -0.012 C 
HETATM   21  C14 UNL     1      -7.447   8.488  17.677  1.00  0.00     0.025 C 
HETATM   22  C18 UNL     1      -6.456   9.060  19.828  1.00  0.00     0.024 C 
HETATM   23  C15 UNL     1      -6.129   8.755  17.027  1.00  0.00     0.020 C 
HETATM   24 BR1  UNL     1      -6.423   9.431  15.231  1.00  0.00    -0.085 Br
HETATM   25  C17 UNL     1      -5.339   9.790  17.793  1.00  0.00     0.040 C 
ENDBRANCH  12  15
ENDBRANCH  10  11
ENDBRANCH   9  10
ENDBRANCH   4   9
BRANCH   1  26
HETATM   26  C3  UNL     1      -0.744  10.370  25.597  1.00  0.00     0.233 C 
BRANCH  26  27
HETATM   27  C2  UNL     1      -0.537   9.022  26.241  1.00  0.00     0.276 C 
HETATM   28  O2  UNL     1      -0.070   8.045  25.604  1.00  0.00    -0.263 OA
BRANCH  27  29
HETATM   29  O1  UNL     1      -0.859   8.818  27.574  1.00  0.00    -0.325 OA
HETATM   30  C1  UNL     1      -1.656   7.780  28.056  1.00  0.00     0.213 C 
ENDBRANCH  27  29
ENDBRANCH  26  27
ENDBRANCH   1  26
TORSDOF 7
ENDMDL
MODEL 5
REMARK VINA RESULT: -8.904392954      1.793      2.436
REMARK  7 active torsions:
REMARK  status: ('A' for Active; 'I' for Inactive)
REMARK    1  A    between atoms: O1_2  and  C2_3 
REMARK    2  A    between atoms: C2_3  and  C3_5 
REMARK    3  A    between atoms: C3_5  and  N1_6 
REMARK    4  A    between atoms: N2_9  and  C6_10 
REMARK    5  A    between atoms: C6_10  and  C7_11 
REMARK    6  A    between atoms: C7_11  and  N3_12 
REMARK       I    between atoms: N3_12  and  C8_14 
REMARK    7  A    between atoms: C8_14  and  C9_16 
ROOT
HETATM    1  N1  UNL     1      -2.282  11.640  23.026  1.00  0.00    -0.380 N 
HETATM    2  C4  UNL     1      -2.731  12.267  21.844  1.00  0.00     0.142 C 
HETATM    3  C5  UNL     1      -3.857  13.236  22.139  1.00  0.00     0.143 C 
HETATM    4  N2  UNL     1      -4.899  12.442  22.767  1.00  0.00    -0.369 N 
HETATM    5  C19 UNL     1      -4.512  12.034  24.054  1.00  0.00     0.230 C 
HETATM    6  C20 UNL     1      -4.303  13.175  24.946  1.00  0.00     0.090 C 
HETATM    7  N4  UNL     1      -4.141  14.066  25.626  1.00  0.00    -0.195 NA
HETATM    8  C21 UNL     1      -3.222  11.249  23.989  1.00  0.00     0.098 C 
ENDROOT
BRANCH   4   9
HETATM    9  C6  UNL     1      -6.200  12.930  22.533  1.00  0.00     0.079 C 
BRANCH   9  10
HETATM   10  C7  UNL     1      -7.156  11.801  22.258  1.00  0.00     0.166 C 
BRANCH  10  11
HETATM   11  N3  UNL     1      -6.752  10.981  21.124  1.00  0.00    -0.356 N 
HETATM   12  C8  UNL     1      -7.165   9.646  20.967  1.00  0.00     0.226 C 
HETATM   13  O3  UNL     1      -7.905   9.107  21.820  1.00  0.00    -0.273 OA
ATOM     14  H3  UNL     1      -6.145  11.392  20.414  1.00  0.00     0.162 HD
BRANCH  12  15
HETATM   15  C9  UNL     1      -6.721   8.867  19.779  1.00  0.00     0.043 C 
HETATM   16  C10 UNL     1      -5.223   8.970  19.651  1.00  0.00     0.024 C 
HETATM   17  C11 UNL     1      -4.707   8.238  18.451  1.00  0.00    -0.012 C 
HETATM   18  C12 UNL     1      -5.008   6.769  18.649  1.00  0.00     0.009 C 
HETATM   19  C16 UNL     1      -5.412   8.763  17.221  1.00  0.00     0.025 C 
HETATM   20  C13 UNL     1      -6.487   6.603  18.829  1.00  0.00    -0.012 C 
HETATM   21  C14 UNL     1      -7.170   7.062  17.554  1.00  0.00     0.025 C 
HETATM   22  C18 UNL     1      -7.044   7.399  19.964  1.00  0.00     0.024 C 
HETATM   23  C15 UNL     1      -6.898   8.519  17.362  1.00  0.00     0.020 C 
HETATM   24 BR1  UNL     1      -7.804   9.135  15.759  1.00  0.00    -0.085 Br
HETATM   25  C17 UNL     1      -7.407   9.331  18.529  1.00  0.00     0.040 C 
ENDBRANCH  12  15
ENDBRANCH  10  11
ENDBRANCH   9  10
ENDBRANCH   4   9
BRANCH   1  26
HETATM   26  C3  UNL     1      -0.990  12.038  23.502  1.00  0.00     0.233 C 
BRANCH  26  27
HETATM   27  C2  UNL     1       0.029  11.714  22.438  1.00  0.00     0.276 C 
HETATM   28  O2  UNL     1       0.141  10.560  21.954  1.00  0.00    -0.263 OA
BRANCH  27  29
HETATM   29  O1  UNL     1       0.885  12.693  21.956  1.00  0.00    -0.325 OA
HETATM   30  C1  UNL     1       0.865  13.207  20.660  1.00  0.00     0.213 C 
ENDBRANCH  27  29
ENDBRANCH  26  27
ENDBRANCH   1  26
TORSDOF 7
ENDMDL
