MODEL 1
REMARK VINA RESULT: -10.208105573      0.000      0.000
REMARK  8 active torsions:
REMARK  status: ('A' for Active; 'I' for Inactive)
REMARK    1  A    between atoms: C2_2  and  N1_3 
REMARK    2  A    between atoms: C2_2  and  C9_15 
REMARK    3  A    between atoms: N1_3  and  S1_5 
REMARK    4  A    between atoms: S1_5  and  C3_8 
REMARK    5  A    between atoms: C9_15  and  O6_23 
REMARK       I    between atoms: N2_16  and  C10_18 
REMARK    6  A    between atoms: C10_18  and  C11_20 
REMARK    7  A    between atoms: O6_23  and  C12_24 
REMARK    8  A    between atoms: C12_24  and  C13_25 
ROOT
HETATM    1  C9  UNL     1      -3.403  11.064  21.406  1.00  0.00     0.144 C 
HETATM    2  N2  UNL     1      -2.444  11.325  20.630  1.00  0.00    -0.300 N 
ATOM      3  H2  UNL     1      -2.372  10.728  19.806  1.00  0.00     0.171 HD
HETATM    4  C10 UNL     1      -1.472  12.310  20.740  1.00  0.00     0.324 C 
HETATM    5  O3  UNL     1      -1.821  13.518  20.708  1.00  0.00    -0.260 OA
ENDROOT
BRANCH   1   6
HETATM    6  C2  UNL     1      -3.687  11.811  22.653  1.00  0.00     0.164 C 
HETATM    7  C1  UNL     1      -5.079  12.390  22.683  1.00  0.00     0.041 C 
BRANCH   6   8
HETATM    8  N1  UNL     1      -3.526  10.990  23.803  1.00  0.00    -0.303 N 
ATOM      9  H1  UNL     1      -4.075  10.143  23.947  1.00  0.00     0.173 HD
BRANCH   8  10
HETATM   10  S1  UNL     1      -2.360  11.513  24.922  1.00  0.00     0.259 S 
HETATM   11  O1  UNL     1      -2.871  12.573  25.857  1.00  0.00    -0.201 OA
HETATM   12  O2  UNL     1      -1.128  12.068  24.270  1.00  0.00    -0.201 OA
BRANCH  10  13
HETATM   13  C3  UNL     1      -1.828  10.092  25.837  1.00  0.00     0.079 A 
HETATM   14  C4  UNL     1      -2.573   9.720  26.934  1.00  0.00     0.026 A 
HETATM   15  C5  UNL     1      -2.188   8.626  27.657  1.00  0.00     0.020 A 
HETATM   16  C6  UNL     1      -1.078   7.874  27.333  1.00  0.00     0.011 A 
HETATM   17 BR1  UNL     1      -0.573   6.352  28.365  1.00  0.00    -0.051 Br
HETATM   18  C7  UNL     1      -0.356   8.282  26.220  1.00  0.00     0.020 A 
HETATM   19  C8  UNL     1      -0.722   9.381  25.474  1.00  0.00     0.026 A 
ENDBRANCH  10  13
ENDBRANCH   8  10
ENDBRANCH   6   8
ENDBRANCH   1   6
BRANCH   1  20
HETATM   20  O6  UNL     1      -4.217  10.010  21.033  1.00  0.00    -0.333 OA
BRANCH  20  21
HETATM   21  C12 UNL     1      -4.886   9.886  19.830  1.00  0.00     0.215 C 
BRANCH  21  22
HETATM   22  C13 UNL     1      -5.352   8.562  19.435  1.00  0.00    -0.034 A 
HETATM   23  C14 UNL     1      -6.636   8.126  19.714  1.00  0.00     0.009 A 
HETATM   24  C15 UNL     1      -7.065   6.872  19.321  1.00  0.00     0.001 A 
HETATM   25  C16 UNL     1      -6.243   5.999  18.638  1.00  0.00     0.000 A 
HETATM   26  C17 UNL     1      -4.962   6.427  18.358  1.00  0.00     0.001 A 
HETATM   27  C18 UNL     1      -4.530   7.691  18.752  1.00  0.00     0.009 A 
ENDBRANCH  21  22
ENDBRANCH  20  21
ENDBRANCH   1  20
BRANCH   4  28
HETATM   28  C11 UNL     1      -0.041  12.044  20.891  1.00  0.00     0.270 C 
HETATM   29  O4  UNL     1       0.317  11.087  21.631  1.00  0.00    -0.640 OA
HETATM   30  O5  UNL     1       0.938  12.775  20.275  1.00  0.00    -0.640 OA
ENDBRANCH   4  28
TORSDOF 8
ENDMDL
MODEL 2
REMARK VINA RESULT: -9.583271540      3.079      7.317
REMARK  8 active torsions:
REMARK  status: ('A' for Active; 'I' for Inactive)
REMARK    1  A    between atoms: C2_2  and  N1_3 
REMARK    2  A    between atoms: C2_2  and  C9_15 
REMARK    3  A    between atoms: N1_3  and  S1_5 
REMARK    4  A    between atoms: S1_5  and  C3_8 
REMARK    5  A    between atoms: C9_15  and  O6_23 
REMARK       I    between atoms: N2_16  and  C10_18 
REMARK    6  A    between atoms: C10_18  and  C11_20 
REMARK    7  A    between atoms: O6_23  and  C12_24 
REMARK    8  A    between atoms: C12_24  and  C13_25 
ROOT
HETATM    1  C9  UNL     1      -2.152  11.089  23.767  1.00  0.00     0.144 C 
HETATM    2  N2  UNL     1      -2.549  11.986  24.558  1.00  0.00    -0.300 N 
ATOM      3  H2  UNL     1      -2.130  11.968  25.488  1.00  0.00     0.171 HD
HETATM    4  C10 UNL     1      -3.476  12.997  24.342  1.00  0.00     0.324 C 
HETATM    5  O3  UNL     1      -3.233  13.875  23.475  1.00  0.00    -0.260 OA
ENDROOT
BRANCH   1   6
HETATM    6  C2  UNL     1      -2.632  10.942  22.372  1.00  0.00     0.164 C 
HETATM    7  C1  UNL     1      -1.632  10.249  21.481  1.00  0.00     0.041 C 
BRANCH   6   8
HETATM    8  N1  UNL     1      -3.854  10.217  22.314  1.00  0.00    -0.303 N 
ATOM      9  H1  UNL     1      -4.080   9.479  22.980  1.00  0.00     0.173 HD
BRANCH   8  10
HETATM   10  S1  UNL     1      -4.912  10.658  21.060  1.00  0.00     0.259 S 
HETATM   11  O1  UNL     1      -4.315  11.655  20.107  1.00  0.00    -0.201 OA
HETATM   12  O2  UNL     1      -6.197  11.251  21.559  1.00  0.00    -0.201 OA
BRANCH  10  13
HETATM   13  C3  UNL     1      -5.361   9.177  20.198  1.00  0.00     0.079 A 
HETATM   14  C4  UNL     1      -6.620   8.663  20.422  1.00  0.00     0.026 A 
HETATM   15  C5  UNL     1      -6.995   7.524  19.768  1.00  0.00     0.020 A 
HETATM   16  C6  UNL     1      -6.163   6.861  18.889  1.00  0.00     0.011 A 
HETATM   17 BR1  UNL     1      -6.724   5.274  17.995  1.00  0.00    -0.051 Br
HETATM   18  C7  UNL     1      -4.905   7.413  18.692  1.00  0.00     0.020 A 
HETATM   19  C8  UNL     1      -4.501   8.560  19.339  1.00  0.00     0.026 A 
ENDBRANCH  10  13
ENDBRANCH   8  10
ENDBRANCH   6   8
ENDBRANCH   1   6
BRANCH   1  20
HETATM   20  O6  UNL     1      -1.210  10.210  24.268  1.00  0.00    -0.333 OA
BRANCH  20  21
HETATM   21  C12 UNL     1      -0.688  10.220  25.547  1.00  0.00     0.215 C 
BRANCH  21  22
HETATM   22  C13 UNL     1      -1.209   9.259  26.512  1.00  0.00    -0.034 A 
HETATM   23  C14 UNL     1      -2.376   9.491  27.218  1.00  0.00     0.009 A 
HETATM   24  C15 UNL     1      -2.861   8.564  28.120  1.00  0.00     0.001 A 
HETATM   25  C16 UNL     1      -2.213   7.369  28.361  1.00  0.00     0.000 A 
HETATM   26  C17 UNL     1      -1.049   7.132  27.661  1.00  0.00     0.001 A 
HETATM   27  C18 UNL     1      -0.560   8.066  26.751  1.00  0.00     0.009 A 
ENDBRANCH  21  22
ENDBRANCH  20  21
ENDBRANCH   1  20
BRANCH   4  28
HETATM   28  C11 UNL     1      -4.743  13.122  25.064  1.00  0.00     0.270 C 
HETATM   29  O4  UNL     1      -4.778  13.845  26.097  1.00  0.00    -0.640 OA
HETATM   30  O5  UNL     1      -5.900  12.498  24.684  1.00  0.00    -0.640 OA
ENDBRANCH   4  28
TORSDOF 8
ENDMDL
MODEL 3
REMARK VINA RESULT: -9.582386013      3.096      7.370
REMARK  8 active torsions:
REMARK  status: ('A' for Active; 'I' for Inactive)
REMARK    1  A    between atoms: C2_2  and  N1_3 
REMARK    2  A    between atoms: C2_2  and  C9_15 
REMARK    3  A    between atoms: N1_3  and  S1_5 
REMARK    4  A    between atoms: S1_5  and  C3_8 
REMARK    5  A    between atoms: C9_15  and  O6_23 
REMARK       I    between atoms: N2_16  and  C10_18 
REMARK    6  A    between atoms: C10_18  and  C11_20 
REMARK    7  A    between atoms: O6_23  and  C12_24 
REMARK    8  A    between atoms: C12_24  and  C13_25 
ROOT
HETATM    1  C9  UNL     1      -2.216  11.098  23.817  1.00  0.00     0.144 C 
HETATM    2  N2  UNL     1      -2.600  11.993  24.617  1.00  0.00    -0.300 N 
ATOM      3  H2  UNL     1      -2.182  11.957  25.547  1.00  0.00     0.171 HD
HETATM    4  C10 UNL     1      -3.511  13.020  24.412  1.00  0.00     0.324 C 
HETATM    5  O3  UNL     1      -3.253  13.903  23.555  1.00  0.00    -0.260 OA
ENDROOT
BRANCH   1   6
HETATM    6  C2  UNL     1      -2.696  10.974  22.420  1.00  0.00     0.164 C 
HETATM    7  C1  UNL     1      -1.693  10.305  21.515  1.00  0.00     0.041 C 
BRANCH   6   8
HETATM    8  N1  UNL     1      -3.913  10.242  22.349  1.00  0.00    -0.303 N 
ATOM      9  H1  UNL     1      -4.142   9.502  23.012  1.00  0.00     0.173 HD
BRANCH   8  10
HETATM   10  S1  UNL     1      -4.962  10.679  21.086  1.00  0.00     0.259 S 
HETATM   11  O1  UNL     1      -4.363  11.682  20.141  1.00  0.00    -0.201 OA
HETATM   12  O2  UNL     1      -6.255  11.263  21.574  1.00  0.00    -0.201 OA
BRANCH  10  13
HETATM   13  C3  UNL     1      -5.394   9.197  20.217  1.00  0.00     0.079 A 
HETATM   14  C4  UNL     1      -6.651   8.675  20.428  1.00  0.00     0.026 A 
HETATM   15  C5  UNL     1      -7.013   7.534  19.769  1.00  0.00     0.020 A 
HETATM   16  C6  UNL     1      -6.169   6.880  18.896  1.00  0.00     0.011 A 
HETATM   17 BR1  UNL     1      -6.711   5.290  17.992  1.00  0.00    -0.051 Br
HETATM   18  C7  UNL     1      -4.912   7.439  18.712  1.00  0.00     0.020 A 
HETATM   19  C8  UNL     1      -4.522   8.588  19.364  1.00  0.00     0.026 A 
ENDBRANCH  10  13
ENDBRANCH   8  10
ENDBRANCH   6   8
ENDBRANCH   1   6
BRANCH   1  20
HETATM   20  O6  UNL     1      -1.288  10.199  24.309  1.00  0.00    -0.333 OA
BRANCH  20  21
HETATM   21  C12 UNL     1      -0.759  10.194  25.585  1.00  0.00     0.215 C 
BRANCH  21  22
HETATM   22  C13 UNL     1      -1.248   9.197  26.530  1.00  0.00    -0.034 A 
HETATM   23  C14 UNL     1      -0.587   7.998  26.735  1.00  0.00     0.009 A 
HETATM   24  C15 UNL     1      -1.059   7.069  27.643  1.00  0.00     0.001 A 
HETATM   25  C16 UNL     1      -2.202   7.286  28.384  1.00  0.00     0.000 A 
HETATM   26  C17 UNL     1      -2.866   8.479  28.184  1.00  0.00     0.001 A 
HETATM   27  C18 UNL     1      -2.390   9.416  27.270  1.00  0.00     0.009 A 
ENDBRANCH  21  22
ENDBRANCH  20  21
ENDBRANCH   1  20
BRANCH   4  28
HETATM   28  C11 UNL     1      -4.777  13.156  25.133  1.00  0.00     0.270 C 
HETATM   29  O4  UNL     1      -5.762  12.463  24.756  1.00  0.00    -0.640 OA
HETATM   30  O5  UNL     1      -4.960  13.993  26.200  1.00  0.00    -0.640 OA
ENDBRANCH   4  28
TORSDOF 8
ENDMDL
MODEL 4
REMARK VINA RESULT: -9.568876312      3.084      7.357
REMARK  8 active torsions:
REMARK  status: ('A' for Active; 'I' for Inactive)
REMARK    1  A    between atoms: C2_2  and  N1_3 
REMARK    2  A    between atoms: C2_2  and  C9_15 
REMARK    3  A    between atoms: N1_3  and  S1_5 
REMARK    4  A    between atoms: S1_5  and  C3_8 
REMARK    5  A    between atoms: C9_15  and  O6_23 
REMARK       I    between atoms: N2_16  and  C10_18 
REMARK    6  A    between atoms: C10_18  and  C11_20 
REMARK    7  A    between atoms: O6_23  and  C12_24 
REMARK    8  A    between atoms: C12_24  and  C13_25 
ROOT
HETATM    1  C9  UNL     1      -2.160  11.103  23.838  1.00  0.00     0.144 C 
HETATM    2  N2  UNL     1      -2.538  11.997  24.642  1.00  0.00    -0.300 N 
ATOM      3  H2  UNL     1      -2.119  11.956  25.572  1.00  0.00     0.171 HD
HETATM    4  C10 UNL     1      -3.443  13.031  24.441  1.00  0.00     0.324 C 
HETATM    5  O3  UNL     1      -3.180  13.915  23.587  1.00  0.00    -0.260 OA
ENDROOT
BRANCH   1   6
HETATM    6  C2  UNL     1      -2.643  10.987  22.442  1.00  0.00     0.164 C 
HETATM    7  C1  UNL     1      -1.655  10.292  21.539  1.00  0.00     0.041 C 
BRANCH   6   8
HETATM    8  N1  UNL     1      -3.876  10.282  22.372  1.00  0.00    -0.303 N 
ATOM      9  H1  UNL     1      -4.123   9.550  23.038  1.00  0.00     0.173 HD
BRANCH   8  10
HETATM   10  S1  UNL     1      -4.913  10.739  21.107  1.00  0.00     0.259 S 
HETATM   11  O1  UNL     1      -4.271  11.678  20.125  1.00  0.00    -0.201 OA
HETATM   12  O2  UNL     1      -6.167  11.408  21.588  1.00  0.00    -0.201 OA
BRANCH  10  13
HETATM   13  C3  UNL     1      -5.437   9.257  20.288  1.00  0.00     0.079 A 
HETATM   14  C4  UNL     1      -4.545   8.649  19.432  1.00  0.00     0.026 A 
HETATM   15  C5  UNL     1      -4.919   7.503  18.790  1.00  0.00     0.020 A 
HETATM   16  C6  UNL     1      -6.161   6.926  18.961  1.00  0.00     0.011 A 
HETATM   17 BR1  UNL     1      -6.647   5.325  18.047  1.00  0.00    -0.051 Br
HETATM   18  C7  UNL     1      -7.029   7.570  19.832  1.00  0.00     0.020 A 
HETATM   19  C8  UNL     1      -6.676   8.726  20.492  1.00  0.00     0.026 A 
ENDBRANCH  10  13
ENDBRANCH   8  10
ENDBRANCH   6   8
ENDBRANCH   1   6
BRANCH   1  20
HETATM   20  O6  UNL     1      -1.238  10.196  24.327  1.00  0.00    -0.333 OA
BRANCH  20  21
HETATM   21  C12 UNL     1      -0.705  10.185  25.601  1.00  0.00     0.215 C 
BRANCH  21  22
HETATM   22  C13 UNL     1      -1.233   9.222  26.560  1.00  0.00    -0.034 A 
HETATM   23  C14 UNL     1      -2.395   9.460  27.272  1.00  0.00     0.009 A 
HETATM   24  C15 UNL     1      -2.887   8.531  28.168  1.00  0.00     0.001 A 
HETATM   25  C16 UNL     1      -2.249   7.329  28.399  1.00  0.00     0.000 A 
HETATM   26  C17 UNL     1      -1.089   7.085  27.693  1.00  0.00     0.001 A 
HETATM   27  C18 UNL     1      -0.594   8.022  26.789  1.00  0.00     0.009 A 
ENDBRANCH  21  22
ENDBRANCH  20  21
ENDBRANCH   1  20
BRANCH   4  28
HETATM   28  C11 UNL     1      -4.707  13.173  25.165  1.00  0.00     0.270 C 
HETATM   29  O4  UNL     1      -5.665  12.412  24.856  1.00  0.00    -0.640 OA
HETATM   30  O5  UNL     1      -4.915  14.086  26.162  1.00  0.00    -0.640 OA
ENDBRANCH   4  28
TORSDOF 8
ENDMDL
MODEL 5
REMARK VINA RESULT: -9.487449749      1.334      1.760
REMARK  8 active torsions:
REMARK  status: ('A' for Active; 'I' for Inactive)
REMARK    1  A    between atoms: C2_2  and  N1_3 
REMARK    2  A    between atoms: C2_2  and  C9_15 
REMARK    3  A    between atoms: N1_3  and  S1_5 
REMARK    4  A    between atoms: S1_5  and  C3_8 
REMARK    5  A    between atoms: C9_15  and  O6_23 
REMARK       I    between atoms: N2_16  and  C10_18 
REMARK    6  A    between atoms: C10_18  and  C11_20 
REMARK    7  A    between atoms: O6_23  and  C12_24 
REMARK    8  A    between atoms: C12_24  and  C13_25 
ROOT
HETATM    1  C9  UNL     1      -2.999  11.320  20.226  1.00  0.00     0.144 C 
HETATM    2  N2  UNL     1      -2.585  12.351  19.630  1.00  0.00    -0.300 N 
ATOM      3  H2  UNL     1      -2.663  12.330  18.613  1.00  0.00     0.171 HD
HETATM    4  C10 UNL     1      -2.039  13.510  20.163  1.00  0.00     0.324 C 
HETATM    5  O3  UNL     1      -2.747  14.232  20.910  1.00  0.00    -0.260 OA
ENDROOT
BRANCH   1   6
HETATM    6  C2  UNL     1      -2.979  11.149  21.698  1.00  0.00     0.164 C 
HETATM    7  C1  UNL     1      -3.959  10.109  22.178  1.00  0.00     0.041 C 
BRANCH   6   8
HETATM    8  N1  UNL     1      -1.685  10.786  22.164  1.00  0.00    -0.303 N 
ATOM      9  H1  UNL     1      -1.112  10.089  21.689  1.00  0.00     0.173 HD
BRANCH   8  10
HETATM   10  S1  UNL     1      -1.156  11.590  23.564  1.00  0.00     0.259 S 
HETATM   11  O1  UNL     1      -1.936  12.840  23.858  1.00  0.00    -0.201 OA
HETATM   12  O2  UNL     1       0.290  11.986  23.502  1.00  0.00    -0.201 OA
BRANCH  10  13
HETATM   13  C3  UNL     1      -1.291  10.449  24.913  1.00  0.00     0.079 A 
HETATM   14  C4  UNL     1      -0.350   9.447  25.001  1.00  0.00     0.026 A 
HETATM   15  C5  UNL     1      -0.427   8.555  26.033  1.00  0.00     0.020 A 
HETATM   16  C6  UNL     1      -1.412   8.616  26.997  1.00  0.00     0.011 A 
HETATM   17 BR1  UNL     1      -1.486   7.353  28.424  1.00  0.00    -0.051 Br
HETATM   18  C7  UNL     1      -2.340   9.640  26.872  1.00  0.00     0.020 A 
HETATM   19  C8  UNL     1      -2.285  10.553  25.841  1.00  0.00     0.026 A 
ENDBRANCH  10  13
ENDBRANCH   8  10
ENDBRANCH   6   8
ENDBRANCH   1   6
BRANCH   1  20
HETATM   20  O6  UNL     1      -3.496  10.311  19.421  1.00  0.00    -0.333 OA
BRANCH  20  21
HETATM   21  C12 UNL     1      -4.816  10.147  19.045  1.00  0.00     0.215 C 
BRANCH  21  22
HETATM   22  C13 UNL     1      -5.344   8.791  18.959  1.00  0.00    -0.034 A 
HETATM   23  C14 UNL     1      -6.654   8.495  19.291  1.00  0.00     0.009 A 
HETATM   24  C15 UNL     1      -7.142   7.206  19.192  1.00  0.00     0.001 A 
HETATM   25  C16 UNL     1      -6.354   6.157  18.762  1.00  0.00     0.000 A 
HETATM   26  C17 UNL     1      -5.047   6.446  18.430  1.00  0.00     0.001 A 
HETATM   27  C18 UNL     1      -4.556   7.745  18.528  1.00  0.00     0.009 A 
ENDBRANCH  21  22
ENDBRANCH  20  21
ENDBRANCH   1  20
BRANCH   4  28
HETATM   28  C11 UNL     1      -0.671  13.968  19.914  1.00  0.00     0.270 C 
HETATM   29  O4  UNL     1       0.231  13.102  19.746  1.00  0.00    -0.640 OA
HETATM   30  O5  UNL     1      -0.308  15.285  19.852  1.00  0.00    -0.640 OA
ENDBRANCH   4  28
TORSDOF 8
ENDMDL
