MODEL 1
REMARK VINA RESULT: -8.667435475      0.000      0.000
REMARK  7 active torsions:
REMARK  status: ('A' for Active; 'I' for Inactive)
REMARK    1  A    between atoms: C2_2  and  C3_4 
REMARK    2  A    between atoms: C3_4  and  C4_6 
REMARK    3  A    between atoms: C12_14  and  C13_15 
REMARK    4  A    between atoms: C13_15  and  N1_16 
REMARK       I    between atoms: N1_16  and  C14_18 
REMARK    5  A    between atoms: C14_18  and  C15_20 
REMARK    6  A    between atoms: C15_20  and  N2_21 
REMARK    7  A    between atoms: N3_25  and  S1_26 
ROOT
HETATM    1  C13 UNL     1      -4.405  11.608  19.560  1.00  0.00     0.133 C 
ENDROOT
BRANCH   1   2
HETATM    2  C12 UNL     1      -5.164  10.420  19.122  1.00  0.00    -0.013 C 
HETATM    3  C4  UNL     1      -4.664   9.916  17.770  1.00  0.00     0.071 C 
HETATM    4  C5  UNL     1      -5.295   8.589  17.469  1.00  0.00    -0.002 C 
HETATM    5  C6  UNL     1      -6.803   8.759  17.413  1.00  0.00     0.010 C 
HETATM    6  C10 UNL     1      -4.899   7.554  18.461  1.00  0.00     0.010 C 
HETATM    7  C7  UNL     1      -7.297   9.199  18.745  1.00  0.00    -0.013 C 
HETATM    8  C8  UNL     1      -6.928   8.180  19.780  1.00  0.00     0.009 C 
HETATM    9  C22 UNL     1      -6.624  10.518  19.177  1.00  0.00     0.016 C 
HETATM   10  C9  UNL     1      -5.437   8.005  19.807  1.00  0.00    -0.013 C 
HETATM   11  C11 UNL     1      -4.759   9.301  20.129  1.00  0.00     0.016 C 
BRANCH   3  12
HETATM   12  C3  UNL     1      -4.944  10.897  16.683  1.00  0.00     0.150 C 
HETATM   13  O1  UNL     1      -5.576  11.922  16.793  1.00  0.00    -0.296 OA
BRANCH  12  14
HETATM   14  C2  UNL     1      -4.387  10.571  15.332  1.00  0.00     0.148 C 
HETATM   15  C1  UNL     1      -5.474  10.705  14.291  1.00  0.00     0.034 C 
HETATM   16 CL1  UNL     1      -3.063  11.655  14.891  1.00  0.00    -0.117 Cl
ENDBRANCH  12  14
ENDBRANCH   3  12
ENDBRANCH   1   2
BRANCH   1  17
HETATM   17  N1  UNL     1      -4.055  11.747  20.925  1.00  0.00    -0.356 N 
HETATM   18  C14 UNL     1      -3.115  12.507  21.605  1.00  0.00     0.256 C 
HETATM   19  O2  UNL     1      -2.303  13.298  21.032  1.00  0.00    -0.267 OA
ATOM     20  H1  UNL     1      -4.615  11.160  21.543  1.00  0.00     0.162 HD
BRANCH  18  21
HETATM   21  C15 UNL     1      -2.958  12.483  23.087  1.00  0.00     0.164 C 
BRANCH  21  22
HETATM   22  N2  UNL     1      -2.860  11.238  23.696  1.00  0.00    -0.364 N 
HETATM   23  C16 UNL     1      -2.079  10.222  23.096  1.00  0.00     0.129 C 
HETATM   24  C17 UNL     1      -0.587  10.374  23.426  1.00  0.00     0.041 C 
HETATM   25  C18 UNL     1      -0.413  10.715  24.902  1.00  0.00     0.137 C 
HETATM   26  N3  UNL     1      -1.411  10.004  25.623  1.00  0.00    -0.306 N 
HETATM   27  C20 UNL     1      -2.502  10.788  26.086  1.00  0.00     0.179 C 
HETATM   28  C21 UNL     1      -3.474  10.986  24.934  1.00  0.00     0.084 C 
BRANCH  26  29
HETATM   29  S1  UNL     1      -0.846   8.790  26.648  1.00  0.00     0.225 S 
HETATM   30  C19 UNL     1      -2.018   8.200  27.824  1.00  0.00     0.186 C 
HETATM   31  O3  UNL     1      -0.402   7.617  25.820  1.00  0.00    -0.206 OA
HETATM   32  O4  UNL     1       0.404   9.311  27.340  1.00  0.00    -0.206 OA
ENDBRANCH  26  29
ENDBRANCH  21  22
ENDBRANCH  18  21
ENDBRANCH   1  17
TORSDOF 7
ENDMDL
MODEL 2
REMARK VINA RESULT: -8.643225163      1.956      3.072
REMARK  7 active torsions:
REMARK  status: ('A' for Active; 'I' for Inactive)
REMARK    1  A    between atoms: C2_2  and  C3_4 
REMARK    2  A    between atoms: C3_4  and  C4_6 
REMARK    3  A    between atoms: C12_14  and  C13_15 
REMARK    4  A    between atoms: C13_15  and  N1_16 
REMARK       I    between atoms: N1_16  and  C14_18 
REMARK    5  A    between atoms: C14_18  and  C15_20 
REMARK    6  A    between atoms: C15_20  and  N2_21 
REMARK    7  A    between atoms: N3_25  and  S1_26 
ROOT
HETATM    1  C13 UNL     1      -4.588  11.349  19.472  1.00  0.00     0.133 C 
ENDROOT
BRANCH   1   2
HETATM    2  C12 UNL     1      -5.216  10.058  19.127  1.00  0.00    -0.013 C 
HETATM    3  C4  UNL     1      -6.739  10.174  19.119  1.00  0.00     0.071 C 
HETATM    4  C5  UNL     1      -7.331   8.919  18.548  1.00  0.00    -0.002 C 
HETATM    5  C6  UNL     1      -6.923   7.740  19.414  1.00  0.00     0.010 C 
HETATM    6  C10 UNL     1      -6.931   8.718  17.130  1.00  0.00     0.010 C 
HETATM    7  C7  UNL     1      -5.443   7.595  19.380  1.00  0.00    -0.013 C 
HETATM    8  C8  UNL     1      -4.992   7.381  17.967  1.00  0.00     0.009 C 
HETATM    9  C22 UNL     1      -4.749   8.883  19.866  1.00  0.00     0.016 C 
HETATM   10  C9  UNL     1      -5.422   8.543  17.118  1.00  0.00    -0.013 C 
HETATM   11  C11 UNL     1      -4.836   9.821  17.634  1.00  0.00     0.016 C 
BRANCH   3  12
HETATM   12  C3  UNL     1      -7.274  10.440  20.485  1.00  0.00     0.150 C 
HETATM   13  O1  UNL     1      -6.628  10.504  21.505  1.00  0.00    -0.296 OA
BRANCH  12  14
HETATM   14  C2  UNL     1      -8.754  10.644  20.592  1.00  0.00     0.148 C 
HETATM   15  C1  UNL     1      -9.214  10.288  21.986  1.00  0.00     0.034 C 
HETATM   16 CL1  UNL     1      -9.208  12.322  20.272  1.00  0.00    -0.117 Cl
ENDBRANCH  12  14
ENDBRANCH   3  12
ENDBRANCH   1   2
BRANCH   1  17
HETATM   17  N1  UNL     1      -4.090  11.553  20.782  1.00  0.00    -0.356 N 
HETATM   18  C14 UNL     1      -3.169  12.429  21.337  1.00  0.00     0.256 C 
HETATM   19  O2  UNL     1      -2.532  13.297  20.662  1.00  0.00    -0.267 OA
ATOM     20  H1  UNL     1      -4.498  10.917  21.468  1.00  0.00     0.162 HD
BRANCH  18  21
HETATM   21  C15 UNL     1      -2.829  12.452  22.787  1.00  0.00     0.164 C 
BRANCH  21  22
HETATM   22  N2  UNL     1      -2.761  11.228  23.444  1.00  0.00    -0.364 N 
HETATM   23  C16 UNL     1      -1.961  10.189  22.912  1.00  0.00     0.129 C 
HETATM   24  C17 UNL     1      -0.484  10.348  23.297  1.00  0.00     0.041 C 
HETATM   25  C18 UNL     1      -0.368  10.741  24.766  1.00  0.00     0.137 C 
HETATM   26  N3  UNL     1      -1.398  10.060  25.471  1.00  0.00    -0.306 N 
HETATM   27  C20 UNL     1      -2.503  10.864  25.861  1.00  0.00     0.179 C 
HETATM   28  C21 UNL     1      -3.427  11.023  24.664  1.00  0.00     0.084 C 
BRANCH  26  29
HETATM   29  S1  UNL     1      -0.881   8.881  26.560  1.00  0.00     0.225 S 
HETATM   30  C19 UNL     1      -2.101   8.340  27.710  1.00  0.00     0.186 C 
HETATM   31  O3  UNL     1      -0.411   7.677  25.794  1.00  0.00    -0.206 OA
HETATM   32  O4  UNL     1       0.344   9.422  27.282  1.00  0.00    -0.206 OA
ENDBRANCH  26  29
ENDBRANCH  21  22
ENDBRANCH  18  21
ENDBRANCH   1  17
TORSDOF 7
ENDMDL
MODEL 3
REMARK VINA RESULT: -8.539232405      3.448      4.823
REMARK  7 active torsions:
REMARK  status: ('A' for Active; 'I' for Inactive)
REMARK    1  A    between atoms: C2_2  and  C3_4 
REMARK    2  A    between atoms: C3_4  and  C4_6 
REMARK    3  A    between atoms: C12_14  and  C13_15 
REMARK    4  A    between atoms: C13_15  and  N1_16 
REMARK       I    between atoms: N1_16  and  C14_18 
REMARK    5  A    between atoms: C14_18  and  C15_20 
REMARK    6  A    between atoms: C15_20  and  N2_21 
REMARK    7  A    between atoms: N3_25  and  S1_26 
ROOT
HETATM    1  C13 UNL     1      -4.268  10.308  19.289  1.00  0.00     0.133 C 
ENDROOT
BRANCH   1   2
HETATM    2  C12 UNL     1      -5.055   9.142  18.839  1.00  0.00    -0.013 C 
HETATM    3  C4  UNL     1      -6.537   9.325  19.157  1.00  0.00     0.071 C 
HETATM    4  C5  UNL     1      -7.327   8.238  18.489  1.00  0.00    -0.002 C 
HETATM    5  C6  UNL     1      -6.864   6.892  19.018  1.00  0.00     0.010 C 
HETATM    6  C10 UNL     1      -7.217   8.309  17.007  1.00  0.00     0.010 C 
HETATM    7  C7  UNL     1      -5.434   6.691  18.663  1.00  0.00    -0.013 C 
HETATM    8  C8  UNL     1      -5.274   6.746  17.174  1.00  0.00     0.009 C 
HETATM    9  C22 UNL     1      -4.557   7.823  19.235  1.00  0.00     0.016 C 
HETATM   10  C9  UNL     1      -5.757   8.073  16.663  1.00  0.00    -0.013 C 
HETATM   11  C11 UNL     1      -4.981   9.193  17.283  1.00  0.00     0.016 C 
BRANCH   3  12
HETATM   12  C3  UNL     1      -6.784   9.335  20.627  1.00  0.00     0.150 C 
HETATM   13  O1  UNL     1      -6.427   8.491  21.417  1.00  0.00    -0.296 OA
BRANCH  12  14
HETATM   14  C2  UNL     1      -7.551  10.503  21.166  1.00  0.00     0.148 C 
HETATM   15  C1  UNL     1      -7.921  11.431  20.033  1.00  0.00     0.034 C 
HETATM   16 CL1  UNL     1      -9.040   9.993  21.971  1.00  0.00    -0.117 Cl
ENDBRANCH  12  14
ENDBRANCH   3  12
ENDBRANCH   1   2
BRANCH   1  17
HETATM   17  N1  UNL     1      -4.045  10.505  20.674  1.00  0.00    -0.356 N 
HETATM   18  C14 UNL     1      -2.913  10.509  21.475  1.00  0.00     0.256 C 
HETATM   19  O2  UNL     1      -1.740  10.297  21.035  1.00  0.00    -0.267 OA
ATOM     20  H1  UNL     1      -4.903  10.681  21.196  1.00  0.00     0.162 HD
BRANCH  18  21
HETATM   21  C15 UNL     1      -2.948  10.767  22.942  1.00  0.00     0.164 C 
BRANCH  21  22
HETATM   22  N2  UNL     1      -2.920  12.094  23.356  1.00  0.00    -0.364 N 
HETATM   23  C16 UNL     1      -3.420  13.106  22.503  1.00  0.00     0.129 C 
HETATM   24  C17 UNL     1      -4.948  13.229  22.592  1.00  0.00     0.041 C 
HETATM   25  C18 UNL     1      -5.391  13.154  24.049  1.00  0.00     0.137 C 
HETATM   26  N3  UNL     1      -4.404  13.815  24.829  1.00  0.00    -0.306 N 
HETATM   27  C20 UNL     1      -3.542  12.962  25.569  1.00  0.00     0.179 C 
HETATM   28  C21 UNL     1      -2.460  12.445  24.636  1.00  0.00     0.084 C 
BRANCH  26  29
HETATM   29  S1  UNL     1      -4.897  15.246  25.572  1.00  0.00     0.225 S 
HETATM   30  C19 UNL     1      -6.626  15.366  25.888  1.00  0.00     0.186 C 
HETATM   31  O3  UNL     1      -4.183  15.387  26.888  1.00  0.00    -0.206 OA
HETATM   32  O4  UNL     1      -4.420  16.405  24.711  1.00  0.00    -0.206 OA
ENDBRANCH  26  29
ENDBRANCH  21  22
ENDBRANCH  18  21
ENDBRANCH   1  17
TORSDOF 7
ENDMDL
MODEL 4
REMARK VINA RESULT: -8.533606329      2.555      3.489
REMARK  7 active torsions:
REMARK  status: ('A' for Active; 'I' for Inactive)
REMARK    1  A    between atoms: C2_2  and  C3_4 
REMARK    2  A    between atoms: C3_4  and  C4_6 
REMARK    3  A    between atoms: C12_14  and  C13_15 
REMARK    4  A    between atoms: C13_15  and  N1_16 
REMARK       I    between atoms: N1_16  and  C14_18 
REMARK    5  A    between atoms: C14_18  and  C15_20 
REMARK    6  A    between atoms: C15_20  and  N2_21 
REMARK    7  A    between atoms: N3_25  and  S1_26 
ROOT
HETATM    1  C13 UNL     1      -7.425  10.636  20.226  1.00  0.00     0.133 C 
ENDROOT
BRANCH   1   2
HETATM    2  C12 UNL     1      -6.908   9.609  19.300  1.00  0.00    -0.013 C 
HETATM    3  C4  UNL     1      -5.507   9.967  18.809  1.00  0.00     0.071 C 
HETATM    4  C5  UNL     1      -4.929   8.802  18.061  1.00  0.00    -0.002 C 
HETATM    5  C6  UNL     1      -5.814   8.493  16.866  1.00  0.00     0.010 C 
HETATM    6  C10 UNL     1      -4.761   7.613  18.938  1.00  0.00     0.010 C 
HETATM    7  C7  UNL     1      -7.163   8.093  17.346  1.00  0.00    -0.013 C 
HETATM    8  C8  UNL     1      -7.046   6.889  18.230  1.00  0.00     0.009 C 
HETATM    9  C22 UNL     1      -7.796   9.204  18.208  1.00  0.00     0.016 C 
HETATM   10  C9  UNL     1      -6.150   7.203  19.394  1.00  0.00    -0.013 C 
HETATM   11  C11 UNL     1      -6.698   8.346  20.190  1.00  0.00     0.016 C 
BRANCH   3  12
HETATM   12  C3  UNL     1      -5.522  11.191  17.959  1.00  0.00     0.150 C 
HETATM   13  O1  UNL     1      -6.504  11.798  17.598  1.00  0.00    -0.296 OA
BRANCH  12  14
HETATM   14  C2  UNL     1      -4.189  11.708  17.513  1.00  0.00     0.148 C 
HETATM   15  C1  UNL     1      -4.101  11.648  16.006  1.00  0.00     0.034 C 
HETATM   16 CL1  UNL     1      -3.936  13.384  18.015  1.00  0.00    -0.117 Cl
ENDBRANCH  12  14
ENDBRANCH   3  12
ENDBRANCH   1   2
BRANCH   1  17
HETATM   17  N1  UNL     1      -6.626  11.054  21.319  1.00  0.00    -0.356 N 
HETATM   18  C14 UNL     1      -6.515  12.237  22.033  1.00  0.00     0.256 C 
HETATM   19  O2  UNL     1      -7.198  13.279  21.777  1.00  0.00    -0.267 OA
ATOM     20  H1  UNL     1      -5.996  10.326  21.653  1.00  0.00     0.162 HD
BRANCH  18  21
HETATM   21  C15 UNL     1      -5.586  12.417  23.182  1.00  0.00     0.164 C 
BRANCH  21  22
HETATM   22  N2  UNL     1      -4.313  12.903  22.903  1.00  0.00    -0.364 N 
HETATM   23  C16 UNL     1      -3.444  13.248  23.965  1.00  0.00     0.129 C 
HETATM   24  C17 UNL     1      -2.725  12.019  24.539  1.00  0.00     0.041 C 
HETATM   25  C18 UNL     1      -2.244  11.120  23.405  1.00  0.00     0.137 C 
HETATM   26  N3  UNL     1      -1.837  11.965  22.336  1.00  0.00    -0.306 N 
HETATM   27  C20 UNL     1      -2.733  12.028  21.236  1.00  0.00     0.179 C 
HETATM   28  C21 UNL     1      -3.849  13.001  21.580  1.00  0.00     0.084 C 
BRANCH  26  29
HETATM   29  S1  UNL     1      -0.187  11.957  21.987  1.00  0.00     0.225 S 
HETATM   30  C19 UNL     1       0.290  12.953  20.614  1.00  0.00     0.186 C 
HETATM   31  O3  UNL     1       0.572  12.444  23.189  1.00  0.00    -0.206 OA
HETATM   32  O4  UNL     1       0.237  10.511  21.782  1.00  0.00    -0.206 OA
ENDBRANCH  26  29
ENDBRANCH  21  22
ENDBRANCH  18  21
ENDBRANCH   1  17
TORSDOF 7
ENDMDL
MODEL 5
REMARK VINA RESULT: -8.527706174      2.720      3.803
REMARK  7 active torsions:
REMARK  status: ('A' for Active; 'I' for Inactive)
REMARK    1  A    between atoms: C2_2  and  C3_4 
REMARK    2  A    between atoms: C3_4  and  C4_6 
REMARK    3  A    between atoms: C12_14  and  C13_15 
REMARK    4  A    between atoms: C13_15  and  N1_16 
REMARK       I    between atoms: N1_16  and  C14_18 
REMARK    5  A    between atoms: C14_18  and  C15_20 
REMARK    6  A    between atoms: C15_20  and  N2_21 
REMARK    7  A    between atoms: N3_25  and  S1_26 
ROOT
HETATM    1  C13 UNL     1      -4.087  10.179  19.272  1.00  0.00     0.133 C 
ENDROOT
BRANCH   1   2
HETATM    2  C12 UNL     1      -5.060   9.199  18.750  1.00  0.00    -0.013 C 
HETATM    3  C4  UNL     1      -5.031   9.158  17.223  1.00  0.00     0.071 C 
HETATM    4  C5  UNL     1      -5.857   8.002  16.740  1.00  0.00    -0.002 C 
HETATM    5  C6  UNL     1      -7.290   8.188  17.209  1.00  0.00     0.010 C 
HETATM    6  C10 UNL     1      -5.299   6.700  17.194  1.00  0.00     0.010 C 
HETATM    7  C7  UNL     1      -7.325   8.175  18.696  1.00  0.00    -0.013 C 
HETATM    8  C8  UNL     1      -6.778   6.875  19.201  1.00  0.00     0.009 C 
HETATM    9  C22 UNL     1      -6.423   9.280  19.280  1.00  0.00     0.016 C 
HETATM   10  C9  UNL     1      -5.370   6.694  18.711  1.00  0.00    -0.013 C 
HETATM   11  C11 UNL     1      -4.497   7.813  19.187  1.00  0.00     0.016 C 
BRANCH   3  12
HETATM   12  C3  UNL     1      -5.513  10.439  16.632  1.00  0.00     0.150 C 
HETATM   13  O1  UNL     1      -5.999  11.366  17.237  1.00  0.00    -0.296 OA
BRANCH  12  14
HETATM   14  C2  UNL     1      -5.378  10.579  15.147  1.00  0.00     0.148 C 
HETATM   15  C1  UNL     1      -6.274  11.694  14.661  1.00  0.00     0.034 C 
HETATM   16 CL1  UNL     1      -3.718  10.959  14.674  1.00  0.00    -0.117 Cl
ENDBRANCH  12  14
ENDBRANCH   3  12
ENDBRANCH   1   2
BRANCH   1  17
HETATM   17  N1  UNL     1      -4.007  10.403  20.669  1.00  0.00    -0.356 N 
HETATM   18  C14 UNL     1      -2.959  10.453  21.577  1.00  0.00     0.256 C 
HETATM   19  O2  UNL     1      -1.743  10.270  21.257  1.00  0.00    -0.267 OA
ATOM     20  H1  UNL     1      -4.917  10.562  21.101  1.00  0.00     0.162 HD
BRANCH  18  21
HETATM   21  C15 UNL     1      -3.145  10.731  23.028  1.00  0.00     0.164 C 
BRANCH  21  22
HETATM   22  N2  UNL     1      -3.067  12.057  23.437  1.00  0.00    -0.364 N 
HETATM   23  C16 UNL     1      -3.496  13.087  22.567  1.00  0.00     0.129 C 
HETATM   24  C17 UNL     1      -5.018  13.281  22.614  1.00  0.00     0.041 C 
HETATM   25  C18 UNL     1      -5.504  13.235  24.058  1.00  0.00     0.137 C 
HETATM   26  N3  UNL     1      -4.507  13.854  24.862  1.00  0.00    -0.306 N 
HETATM   27  C20 UNL     1      -3.707  12.966  25.630  1.00  0.00     0.179 C 
HETATM   28  C21 UNL     1      -2.625  12.393  24.728  1.00  0.00     0.084 C 
BRANCH  26  29
HETATM   29  S1  UNL     1      -4.953  15.310  25.587  1.00  0.00     0.225 S 
HETATM   30  C19 UNL     1      -6.682  15.506  25.867  1.00  0.00     0.186 C 
HETATM   31  O3  UNL     1      -4.260  15.430  26.915  1.00  0.00    -0.206 OA
HETATM   32  O4  UNL     1      -4.410  16.441  24.728  1.00  0.00    -0.206 OA
ENDBRANCH  26  29
ENDBRANCH  21  22
ENDBRANCH  18  21
ENDBRANCH   1  17
TORSDOF 7
ENDMDL
