MODEL 1
REMARK VINA RESULT: -8.196745587      0.000      0.000
REMARK  7 active torsions:
REMARK  status: ('A' for Active; 'I' for Inactive)
REMARK       I    between atoms: C2_2  and  N1_4 
REMARK       I    between atoms: N1_4  and  C3_6 
REMARK    1  A    between atoms: C3_6  and  C4_8 
REMARK    2  A    between atoms: C4_8  and  N2_9 
REMARK    3  A    between atoms: N2_9  and  C5_10 
REMARK    4  A    between atoms: N2_9  and  S1_16 
REMARK    5  A    between atoms: S1_16  and  C11_19 
REMARK    6  A    between atoms: C14_22  and  O5_23 
REMARK    7  A    between atoms: O5_23  and  C15_24 
ROOT
HETATM    1  N2  UNL     1      -6.148  10.237  19.679  1.00  0.00    -0.263 N 
ENDROOT
BRANCH   1   2
HETATM    2  C4  UNL     1      -7.457  10.689  19.991  1.00  0.00     0.245 C 
BRANCH   2   3
HETATM    3  C3  UNL     1      -7.687  11.200  21.340  1.00  0.00     0.243 C 
HETATM    4  N1  UNL     1      -7.538  12.601  21.628  1.00  0.00    -0.297 N 
HETATM    5  C2  UNL     1      -7.762  13.092  22.938  1.00  0.00     0.220 C 
ATOM      6  H1  UNL     1      -7.270  13.245  20.885  1.00  0.00     0.171 HD
HETATM    7  C1  UNL     1      -7.611  14.532  23.240  1.00  0.00     0.117 C 
HETATM    8  O1  UNL     1      -8.094  12.339  23.888  1.00  0.00    -0.274 OA
HETATM    9  O2  UNL     1      -8.020  10.425  22.278  1.00  0.00    -0.271 OA
ENDBRANCH   2   3
ENDBRANCH   1   2
BRANCH   1  10
HETATM   10  C5  UNL     1      -5.930   8.870  19.333  1.00  0.00     0.045 A 
HETATM   11  C6  UNL     1      -4.706   8.402  18.993  1.00  0.00     0.030 A 
HETATM   12  C7  UNL     1      -4.619   7.041  18.664  1.00  0.00     0.002 A 
HETATM   13  C8  UNL     1      -5.708   6.214  18.682  1.00  0.00     0.000 A 
HETATM   14  C9  UNL     1      -6.934   6.750  19.037  1.00  0.00     0.002 A 
HETATM   15  C10 UNL     1      -7.072   8.074  19.367  1.00  0.00     0.030 A 
ENDBRANCH   1  10
BRANCH   1  16
HETATM   16  S1  UNL     1      -4.760  11.275  19.650  1.00  0.00     0.265 S 
HETATM   17  O3  UNL     1      -5.198  12.709  19.383  1.00  0.00    -0.200 OA
HETATM   18  O4  UNL     1      -3.851  10.925  18.498  1.00  0.00    -0.200 OA
BRANCH  16  19
HETATM   19  C11 UNL     1      -3.872  11.229  21.135  1.00  0.00     0.081 A 
HETATM   20  C12 UNL     1      -2.647  10.577  21.183  1.00  0.00     0.028 A 
HETATM   21  C13 UNL     1      -1.926  10.524  22.357  1.00  0.00     0.040 A 
HETATM   22  C14 UNL     1      -2.374  11.103  23.525  1.00  0.00     0.096 A 
HETATM   23  C17 UNL     1      -3.589  11.748  23.477  1.00  0.00     0.046 A 
HETATM   24 BR1  UNL     1      -4.278  12.576  25.054  1.00  0.00    -0.048 Br
HETATM   25  C18 UNL     1      -4.331  11.818  22.317  1.00  0.00     0.047 A 
BRANCH  22  26
HETATM   26  O5  UNL     1      -1.666  11.062  24.720  1.00  0.00    -0.278 OA
BRANCH  26  27
HETATM   27  C15 UNL     1      -1.523   9.934  25.498  1.00  0.00     0.260 C 
HETATM   28  C16 UNL     1      -0.295   9.096  25.516  1.00  0.00     0.126 C 
HETATM   29  O6  UNL     1      -2.488   9.597  26.231  1.00  0.00    -0.265 OA
ENDBRANCH  26  27
ENDBRANCH  22  26
ENDBRANCH  16  19
ENDBRANCH   1  16
TORSDOF 7
ENDMDL
MODEL 2
REMARK VINA RESULT: -8.161013961      1.393      1.560
REMARK  7 active torsions:
REMARK  status: ('A' for Active; 'I' for Inactive)
REMARK       I    between atoms: C2_2  and  N1_4 
REMARK       I    between atoms: N1_4  and  C3_6 
REMARK    1  A    between atoms: C3_6  and  C4_8 
REMARK    2  A    between atoms: C4_8  and  N2_9 
REMARK    3  A    between atoms: N2_9  and  C5_10 
REMARK    4  A    between atoms: N2_9  and  S1_16 
REMARK    5  A    between atoms: S1_16  and  C11_19 
REMARK    6  A    between atoms: C14_22  and  O5_23 
REMARK    7  A    between atoms: O5_23  and  C15_24 
ROOT
HETATM    1  N2  UNL     1      -6.105  10.159  19.414  1.00  0.00    -0.263 N 
ENDROOT
BRANCH   1   2
HETATM    2  C4  UNL     1      -7.370  10.625  19.859  1.00  0.00     0.245 C 
BRANCH   2   3
HETATM    3  C3  UNL     1      -7.464  11.098  21.238  1.00  0.00     0.243 C 
HETATM    4  N1  UNL     1      -6.940  12.383  21.610  1.00  0.00    -0.297 N 
HETATM    5  C2  UNL     1      -7.034  12.837  22.949  1.00  0.00     0.220 C 
ATOM      6  H1  UNL     1      -6.497  12.973  20.906  1.00  0.00     0.171 HD
HETATM    7  C1  UNL     1      -6.496  14.159  23.338  1.00  0.00     0.117 C 
HETATM    8  O1  UNL     1      -7.570  12.148  23.853  1.00  0.00    -0.274 OA
HETATM    9  O2  UNL     1      -8.008  10.388  22.129  1.00  0.00    -0.271 OA
ENDBRANCH   2   3
ENDBRANCH   1   2
BRANCH   1  10
HETATM   10  C5  UNL     1      -5.915   8.773  19.135  1.00  0.00     0.045 A 
HETATM   11  C6  UNL     1      -4.694   8.258  18.860  1.00  0.00     0.030 A 
HETATM   12  C7  UNL     1      -4.634   6.882  18.593  1.00  0.00     0.002 A 
HETATM   13  C8  UNL     1      -5.747   6.086  18.606  1.00  0.00     0.000 A 
HETATM   14  C9  UNL     1      -6.969   6.671  18.894  1.00  0.00     0.002 A 
HETATM   15  C10 UNL     1      -7.080   8.011  19.162  1.00  0.00     0.030 A 
ENDBRANCH   1  10
BRANCH   1  16
HETATM   16  S1  UNL     1      -4.746  11.200  19.140  1.00  0.00     0.265 S 
HETATM   17  O3  UNL     1      -5.224  12.635  18.969  1.00  0.00    -0.200 OA
HETATM   18  O4  UNL     1      -4.062  10.860  17.839  1.00  0.00    -0.200 OA
BRANCH  16  19
HETATM   19  C11 UNL     1      -3.601  11.142  20.437  1.00  0.00     0.081 A 
HETATM   20  C12 UNL     1      -3.943  10.518  21.629  1.00  0.00     0.028 A 
HETATM   21  C13 UNL     1      -3.047  10.466  22.676  1.00  0.00     0.040 A 
HETATM   22  C14 UNL     1      -1.787  11.021  22.599  1.00  0.00     0.096 A 
HETATM   23  C17 UNL     1      -1.449  11.641  21.416  1.00  0.00     0.046 A 
HETATM   24 BR1  UNL     1       0.278  12.434  21.230  1.00  0.00    -0.048 Br
HETATM   25  C18 UNL     1      -2.324  11.707  20.353  1.00  0.00     0.047 A 
BRANCH  22  26
HETATM   26  O5  UNL     1      -0.868  10.982  23.640  1.00  0.00    -0.278 OA
BRANCH  26  27
HETATM   27  C15 UNL     1      -1.175  10.611  24.930  1.00  0.00     0.260 C 
HETATM   28  C16 UNL     1      -0.727   9.336  25.551  1.00  0.00     0.126 C 
HETATM   29  O6  UNL     1      -1.875  11.398  25.619  1.00  0.00    -0.265 OA
ENDBRANCH  26  27
ENDBRANCH  22  26
ENDBRANCH  16  19
ENDBRANCH   1  16
TORSDOF 7
ENDMDL
MODEL 3
REMARK VINA RESULT: -8.155624356      2.068      3.508
REMARK  7 active torsions:
REMARK  status: ('A' for Active; 'I' for Inactive)
REMARK       I    between atoms: C2_2  and  N1_4 
REMARK       I    between atoms: N1_4  and  C3_6 
REMARK    1  A    between atoms: C3_6  and  C4_8 
REMARK    2  A    between atoms: C4_8  and  N2_9 
REMARK    3  A    between atoms: N2_9  and  C5_10 
REMARK    4  A    between atoms: N2_9  and  S1_16 
REMARK    5  A    between atoms: S1_16  and  C11_19 
REMARK    6  A    between atoms: C14_22  and  O5_23 
REMARK    7  A    between atoms: O5_23  and  C15_24 
ROOT
HETATM    1  N2  UNL     1      -6.173   9.981  19.052  1.00  0.00    -0.263 N 
ENDROOT
BRANCH   1   2
HETATM    2  C4  UNL     1      -6.003  10.938  18.018  1.00  0.00     0.245 C 
BRANCH   2   3
HETATM    3  C3  UNL     1      -4.694  11.575  17.902  1.00  0.00     0.243 C 
HETATM    4  N1  UNL     1      -4.328  12.662  18.767  1.00  0.00    -0.297 N 
HETATM    5  C2  UNL     1      -3.056  13.276  18.651  1.00  0.00     0.220 C 
ATOM      6  H1  UNL     1      -4.988  12.994  19.470  1.00  0.00     0.171 HD
HETATM    7  C1  UNL     1      -2.674  14.396  19.539  1.00  0.00     0.117 C 
HETATM    8  O1  UNL     1      -2.208  12.904  17.802  1.00  0.00    -0.274 OA
HETATM    9  O2  UNL     1      -3.858  11.183  17.041  1.00  0.00    -0.271 OA
ENDBRANCH   2   3
ENDBRANCH   1   2
BRANCH   1  10
HETATM   10  C5  UNL     1      -6.017   8.591  18.770  1.00  0.00     0.045 A 
HETATM   11  C6  UNL     1      -4.813   7.976  18.838  1.00  0.00     0.030 A 
HETATM   12  C7  UNL     1      -4.784   6.608  18.530  1.00  0.00     0.002 A 
HETATM   13  C8  UNL     1      -5.908   5.915  18.176  1.00  0.00     0.000 A 
HETATM   14  C9  UNL     1      -7.112   6.598  18.124  1.00  0.00     0.002 A 
HETATM   15  C10 UNL     1      -7.193   7.936  18.416  1.00  0.00     0.030 A 
ENDBRANCH   1  10
BRANCH   1  16
HETATM   16  S1  UNL     1      -6.529  10.403  20.696  1.00  0.00     0.265 S 
HETATM   17  O3  UNL     1      -7.016   9.173  21.448  1.00  0.00    -0.200 OA
HETATM   18  O4  UNL     1      -7.675  11.381  20.764  1.00  0.00    -0.200 OA
BRANCH  16  19
HETATM   19  C11 UNL     1      -5.152  11.054  21.520  1.00  0.00     0.081 A 
HETATM   20  C12 UNL     1      -3.936  10.387  21.459  1.00  0.00     0.028 A 
HETATM   21  C13 UNL     1      -2.829  10.886  22.113  1.00  0.00     0.040 A 
HETATM   22  C14 UNL     1      -2.868  12.050  22.850  1.00  0.00     0.096 A 
HETATM   23  C17 UNL     1      -4.076  12.711  22.911  1.00  0.00     0.046 A 
HETATM   24 BR1  UNL     1      -4.212  14.331  23.911  1.00  0.00    -0.048 Br
HETATM   25  C18 UNL     1      -5.199  12.235  22.267  1.00  0.00     0.047 A 
BRANCH  22  26
HETATM   26  O5  UNL     1      -1.768  12.572  23.517  1.00  0.00    -0.278 OA
BRANCH  26  27
HETATM   27  C15 UNL     1      -0.573  11.905  23.680  1.00  0.00     0.260 C 
HETATM   28  C16 UNL     1      -0.372  10.800  24.655  1.00  0.00     0.126 C 
HETATM   29  O6  UNL     1       0.400  12.254  22.964  1.00  0.00    -0.265 OA
ENDBRANCH  26  27
ENDBRANCH  22  26
ENDBRANCH  16  19
ENDBRANCH   1  16
TORSDOF 7
ENDMDL
MODEL 4
REMARK VINA RESULT: -8.042544689      2.332      4.287
REMARK  7 active torsions:
REMARK  status: ('A' for Active; 'I' for Inactive)
REMARK       I    between atoms: C2_2  and  N1_4 
REMARK       I    between atoms: N1_4  and  C3_6 
REMARK    1  A    between atoms: C3_6  and  C4_8 
REMARK    2  A    between atoms: C4_8  and  N2_9 
REMARK    3  A    between atoms: N2_9  and  C5_10 
REMARK    4  A    between atoms: N2_9  and  S1_16 
REMARK    5  A    between atoms: S1_16  and  C11_19 
REMARK    6  A    between atoms: C14_22  and  O5_23 
REMARK    7  A    between atoms: O5_23  and  C15_24 
ROOT
HETATM    1  N2  UNL     1      -6.323   9.789  19.102  1.00  0.00    -0.263 N 
ENDROOT
BRANCH   1   2
HETATM    2  C4  UNL     1      -6.425  10.770  18.081  1.00  0.00     0.245 C 
BRANCH   2   3
HETATM    3  C3  UNL     1      -5.300  10.896  17.158  1.00  0.00     0.243 C 
HETATM    4  N1  UNL     1      -5.514  10.891  15.736  1.00  0.00    -0.297 N 
HETATM    5  C2  UNL     1      -4.420  11.014  14.845  1.00  0.00     0.220 C 
ATOM      6  H1  UNL     1      -6.460  10.799  15.367  1.00  0.00     0.171 HD
HETATM    7  C1  UNL     1      -4.634  11.010  13.381  1.00  0.00     0.117 C 
HETATM    8  O1  UNL     1      -3.236  11.131  15.250  1.00  0.00    -0.274 OA
HETATM    9  O2  UNL     1      -4.120  11.013  17.589  1.00  0.00    -0.271 OA
ENDBRANCH   2   3
ENDBRANCH   1   2
BRANCH   1  10
HETATM   10  C5  UNL     1      -6.114   8.420  18.757  1.00  0.00     0.045 A 
HETATM   11  C6  UNL     1      -4.896   7.837  18.843  1.00  0.00     0.030 A 
HETATM   12  C7  UNL     1      -4.813   6.488  18.467  1.00  0.00     0.002 A 
HETATM   13  C8  UNL     1      -5.901   5.783  18.034  1.00  0.00     0.000 A 
HETATM   14  C9  UNL     1      -7.122   6.434  17.966  1.00  0.00     0.002 A 
HETATM   15  C10 UNL     1      -7.255   7.751  18.322  1.00  0.00     0.030 A 
ENDBRANCH   1  10
BRANCH   1  16
HETATM   16  S1  UNL     1      -6.398  10.159  20.794  1.00  0.00     0.265 S 
HETATM   17  O3  UNL     1      -6.670   8.888  21.586  1.00  0.00    -0.200 OA
HETATM   18  O4  UNL     1      -7.566  11.064  21.096  1.00  0.00    -0.200 OA
BRANCH  16  19
HETATM   19  C11 UNL     1      -4.934  10.877  21.375  1.00  0.00     0.081 A 
HETATM   20  C12 UNL     1      -3.714  10.469  20.854  1.00  0.00     0.028 A 
HETATM   21  C13 UNL     1      -2.536  11.025  21.308  1.00  0.00     0.040 A 
HETATM   22  C14 UNL     1      -2.506  11.997  22.285  1.00  0.00     0.096 A 
HETATM   23  C17 UNL     1      -3.717  12.401  22.802  1.00  0.00     0.046 A 
HETATM   24 BR1  UNL     1      -3.759  13.744  24.158  1.00  0.00    -0.048 Br
HETATM   25  C18 UNL     1      -4.910  11.863  22.367  1.00  0.00     0.047 A 
BRANCH  22  26
HETATM   26  O5  UNL     1      -1.333  12.571  22.757  1.00  0.00    -0.278 OA
BRANCH  26  27
HETATM   27  C15 UNL     1      -0.403  11.910  23.529  1.00  0.00     0.260 C 
HETATM   28  C16 UNL     1      -0.750  10.839  24.501  1.00  0.00     0.126 C 
HETATM   29  O6  UNL     1       0.806  12.234  23.404  1.00  0.00    -0.265 OA
ENDBRANCH  26  27
ENDBRANCH  22  26
ENDBRANCH  16  19
ENDBRANCH   1  16
TORSDOF 7
ENDMDL
MODEL 5
REMARK VINA RESULT: -7.979603402      2.672      4.301
REMARK  7 active torsions:
REMARK  status: ('A' for Active; 'I' for Inactive)
REMARK       I    between atoms: C2_2  and  N1_4 
REMARK       I    between atoms: N1_4  and  C3_6 
REMARK    1  A    between atoms: C3_6  and  C4_8 
REMARK    2  A    between atoms: C4_8  and  N2_9 
REMARK    3  A    between atoms: N2_9  and  C5_10 
REMARK    4  A    between atoms: N2_9  and  S1_16 
REMARK    5  A    between atoms: S1_16  and  C11_19 
REMARK    6  A    between atoms: C14_22  and  O5_23 
REMARK    7  A    between atoms: O5_23  and  C15_24 
ROOT
HETATM    1  N2  UNL     1      -6.346   9.828  18.635  1.00  0.00    -0.263 N 
ENDROOT
BRANCH   1   2
HETATM    2  C4  UNL     1      -6.461  10.614  17.459  1.00  0.00     0.245 C 
BRANCH   2   3
HETATM    3  C3  UNL     1      -5.230  10.924  16.736  1.00  0.00     0.243 C 
HETATM    4  N1  UNL     1      -4.589  12.201  16.893  1.00  0.00    -0.297 N 
HETATM    5  C2  UNL     1      -3.395  12.496  16.190  1.00  0.00     0.220 C 
ATOM      6  H1  UNL     1      -4.996  12.899  17.516  1.00  0.00     0.171 HD
HETATM    7  C1  UNL     1      -2.730  13.809  16.349  1.00  0.00     0.117 C 
HETATM    8  O1  UNL     1      -2.855  11.671  15.412  1.00  0.00    -0.274 OA
HETATM    9  O2  UNL     1      -4.706  10.079  15.960  1.00  0.00    -0.271 OA
ENDBRANCH   2   3
ENDBRANCH   1   2
BRANCH   1  10
HETATM   10  C5  UNL     1      -6.106   8.425  18.534  1.00  0.00     0.045 A 
HETATM   11  C6  UNL     1      -4.874   7.894  18.711  1.00  0.00     0.030 A 
HETATM   12  C7  UNL     1      -4.761   6.502  18.579  1.00  0.00     0.002 A 
HETATM   13  C8  UNL     1      -5.834   5.707  18.285  1.00  0.00     0.000 A 
HETATM   14  C9  UNL     1      -7.070   6.309  18.114  1.00  0.00     0.002 A 
HETATM   15  C10 UNL     1      -7.232   7.665  18.234  1.00  0.00     0.030 A 
ENDBRANCH   1  10
BRANCH   1  16
HETATM   16  S1  UNL     1      -6.438  10.486  20.237  1.00  0.00     0.265 S 
HETATM   17  O3  UNL     1      -6.904   9.409  21.208  1.00  0.00    -0.200 OA
HETATM   18  O4  UNL     1      -7.491  11.563  20.316  1.00  0.00    -0.200 OA
BRANCH  16  19
HETATM   19  C11 UNL     1      -4.918  11.110  20.781  1.00  0.00     0.081 A 
HETATM   20  C12 UNL     1      -3.795  10.983  19.975  1.00  0.00     0.028 A 
HETATM   21  C13 UNL     1      -2.573  11.468  20.392  1.00  0.00     0.040 A 
HETATM   22  C14 UNL     1      -2.403  12.094  21.609  1.00  0.00     0.096 A 
HETATM   23  C17 UNL     1      -3.518  12.220  22.408  1.00  0.00     0.046 A 
HETATM   24 BR1  UNL     1      -3.365  13.075  24.108  1.00  0.00    -0.048 Br
HETATM   25  C18 UNL     1      -4.752  11.744  22.017  1.00  0.00     0.047 A 
BRANCH  22  26
HETATM   26  O5  UNL     1      -1.184  12.591  22.051  1.00  0.00    -0.278 OA
BRANCH  26  27
HETATM   27  C15 UNL     1       0.039  12.197  21.554  1.00  0.00     0.260 C 
HETATM   28  C16 UNL     1       0.912  13.070  20.723  1.00  0.00     0.126 C 
HETATM   29  O6  UNL     1       0.436  11.033  21.818  1.00  0.00    -0.265 OA
ENDBRANCH  26  27
ENDBRANCH  22  26
ENDBRANCH  16  19
ENDBRANCH   1  16
TORSDOF 7
ENDMDL
