MODEL 1
REMARK VINA RESULT: -7.383658508      0.000      0.000
REMARK  0 active torsions:
REMARK  status: ('A' for Active; 'I' for Inactive)
REMARK       I    between atoms: C1_4  and  N3_6 
ROOT
HETATM    1  N1  UNL     1      24.033  47.496  68.065  1.00  0.00    -0.373 N 
ATOM      2  H11 UNL     1      23.282  47.144  67.470  1.00  0.00     0.158 HD
ATOM      3  H12 UNL     1      24.646  48.227  67.705  1.00  0.00     0.158 HD
HETATM    4  C1  UNL     1      24.166  46.998  69.236  1.00  0.00     0.187 C 
HETATM    5  N2  UNL     1      25.208  47.486  70.062  1.00  0.00    -0.064 NA
HETATM    6  N3  UNL     1      23.325  45.995  69.729  1.00  0.00    -0.312 N 
ATOM      7  H3  UNL     1      22.571  46.287  70.350  1.00  0.00     0.170 HD
HETATM    8  C2  UNL     1      23.414  44.749  69.473  1.00  0.00     0.178 A 
HETATM    9  N4  UNL     1      24.455  44.352  68.618  1.00  0.00    -0.279 N 
ATOM     10  H4  UNL     1      25.064  45.119  68.335  1.00  0.00     0.189 HD
HETATM   11  N5  UNL     1      24.829  43.105  68.072  1.00  0.00    -0.261 N 
ATOM     12  H5  UNL     1      25.614  43.114  67.421  1.00  0.00     0.190 HD
HETATM   13  C3  UNL     1      24.232  41.835  68.329  1.00  0.00     0.314 A 
HETATM   14  O1  UNL     1      24.801  40.879  67.733  1.00  0.00    -0.262 OA
HETATM   15  C4  UNL     1      23.089  41.506  69.160  1.00  0.00     0.294 A 
HETATM   16  O2  UNL     1      22.781  40.295  69.181  1.00  0.00    -0.278 OA
HETATM   17  C5  UNL     1      22.284  42.416  69.955  1.00  0.00     0.281 A 
HETATM   18  O3  UNL     1      21.357  41.883  70.591  1.00  0.00    -0.279 OA
HETATM   19  C6  UNL     1      22.417  43.886  70.107  1.00  0.00     0.271 A 
HETATM   20  O4  UNL     1      21.596  44.463  70.853  1.00  0.00    -0.280 OA
ENDROOT
TORSDOF 0
ENDMDL
MODEL 2
REMARK VINA RESULT: -7.354593145      1.873      2.783
REMARK  0 active torsions:
REMARK  status: ('A' for Active; 'I' for Inactive)
REMARK       I    between atoms: C1_4  and  N3_6 
ROOT
HETATM    1  N1  UNL     1      22.322  47.773  70.915  1.00  0.00    -0.373 N 
ATOM      2  H11 UNL     1      22.442  47.240  71.777  1.00  0.00     0.158 HD
ATOM      3  H12 UNL     1      21.729  48.603  70.926  1.00  0.00     0.158 HD
HETATM    4  C1  UNL     1      22.923  47.369  69.859  1.00  0.00     0.187 C 
HETATM    5  N2  UNL     1      22.755  48.108  68.663  1.00  0.00    -0.064 NA
HETATM    6  N3  UNL     1      23.735  46.230  69.844  1.00  0.00    -0.312 N 
ATOM      7  H3  UNL     1      24.742  46.380  69.904  1.00  0.00     0.170 HD
HETATM    8  C2  UNL     1      23.334  45.023  69.761  1.00  0.00     0.178 A 
HETATM    9  N4  UNL     1      21.946  44.823  69.678  1.00  0.00    -0.279 N 
ATOM     10  H4  UNL     1      21.412  45.691  69.641  1.00  0.00     0.189 HD
HETATM   11  N5  UNL     1      21.142  43.664  69.634  1.00  0.00    -0.261 N 
ATOM     12  H5  UNL     1      20.133  43.814  69.630  1.00  0.00     0.190 HD
HETATM   13  C3  UNL     1      21.582  42.308  69.595  1.00  0.00     0.314 A 
HETATM   14  O1  UNL     1      20.640  41.472  69.516  1.00  0.00    -0.262 OA
HETATM   15  C4  UNL     1      22.932  41.776  69.633  1.00  0.00     0.294 A 
HETATM   16  O2  UNL     1      23.011  40.530  69.600  1.00  0.00    -0.278 OA
HETATM   17  C5  UNL     1      24.174  42.525  69.704  1.00  0.00     0.281 A 
HETATM   18  O3  UNL     1      25.208  41.833  69.717  1.00  0.00    -0.279 OA
HETATM   19  C6  UNL     1      24.374  43.994  69.763  1.00  0.00     0.271 A 
HETATM   20  O4  UNL     1      25.551  44.413  69.821  1.00  0.00    -0.280 OA
ENDROOT
TORSDOF 0
ENDMDL
MODEL 3
REMARK VINA RESULT: -7.272741900      3.164      5.706
REMARK  0 active torsions:
REMARK  status: ('A' for Active; 'I' for Inactive)
REMARK       I    between atoms: C1_4  and  N3_6 
ROOT
HETATM    1  N1  UNL     1      20.941  42.887  69.078  1.00  0.00    -0.373 N 
ATOM      2  H11 UNL     1      20.993  43.400  68.198  1.00  0.00     0.158 HD
ATOM      3  H12 UNL     1      20.075  42.402  69.317  1.00  0.00     0.158 HD
HETATM    4  C1  UNL     1      21.969  42.878  69.841  1.00  0.00     0.187 C 
HETATM    5  N2  UNL     1      21.896  42.166  71.063  1.00  0.00    -0.064 NA
HETATM    6  N3  UNL     1      23.155  43.543  69.514  1.00  0.00    -0.312 N 
ATOM      7  H3  UNL     1      23.909  42.978  69.123  1.00  0.00     0.170 HD
HETATM    8  C2  UNL     1      23.381  44.789  69.660  1.00  0.00     0.178 A 
HETATM    9  N4  UNL     1      22.340  45.562  70.200  1.00  0.00    -0.279 N 
ATOM     10  H4  UNL     1      21.523  45.013  70.465  1.00  0.00     0.189 HD
HETATM   11  N5  UNL     1      22.196  46.943  70.448  1.00  0.00    -0.261 N 
ATOM     12  H5  UNL     1      21.290  47.247  70.804  1.00  0.00     0.190 HD
HETATM   13  C3  UNL     1      23.176  47.962  70.258  1.00  0.00     0.314 A 
HETATM   14  O1  UNL     1      22.786  49.111  70.605  1.00  0.00    -0.262 OA
HETATM   15  C4  UNL     1      24.525  47.857  69.732  1.00  0.00     0.294 A 
HETATM   16  O2  UNL     1      25.153  48.934  69.666  1.00  0.00    -0.278 OA
HETATM   17  C5  UNL     1      25.206  46.654  69.286  1.00  0.00     0.281 A 
HETATM   18  O3  UNL     1      26.370  46.827  68.882  1.00  0.00    -0.279 OA
HETATM   19  C6  UNL     1      24.704  45.259  69.245  1.00  0.00     0.271 A 
HETATM   20  O4  UNL     1      25.481  44.380  68.813  1.00  0.00    -0.280 OA
ENDROOT
TORSDOF 0
ENDMDL
MODEL 4
REMARK VINA RESULT: -6.822803689      2.091      3.118
REMARK  0 active torsions:
REMARK  status: ('A' for Active; 'I' for Inactive)
REMARK       I    between atoms: C1_4  and  N3_6 
ROOT
HETATM    1  N1  UNL     1      22.378  48.212  71.392  1.00  0.00    -0.373 N 
ATOM      2  H11 UNL     1      22.973  47.700  72.043  1.00  0.00     0.158 HD
ATOM      3  H12 UNL     1      21.728  48.907  71.758  1.00  0.00     0.158 HD
HETATM    4  C1  UNL     1      22.478  47.952  70.142  1.00  0.00     0.187 C 
HETATM    5  N2  UNL     1      21.651  48.663  69.237  1.00  0.00    -0.064 NA
HETATM    6  N3  UNL     1      23.369  46.998  69.640  1.00  0.00    -0.312 N 
ATOM      7  H3  UNL     1      24.247  47.344  69.253  1.00  0.00     0.170 HD
HETATM    8  C2  UNL     1      23.185  45.737  69.620  1.00  0.00     0.178 A 
HETATM    9  N4  UNL     1      21.973  45.267  70.153  1.00  0.00    -0.279 N 
ATOM     10  H4  UNL     1      21.346  46.011  70.455  1.00  0.00     0.189 HD
HETATM   11  N5  UNL     1      21.450  43.972  70.356  1.00  0.00    -0.261 N 
ATOM     12  H5  UNL     1      20.546  43.918  70.825  1.00  0.00     0.190 HD
HETATM   13  C3  UNL     1      22.043  42.731  69.978  1.00  0.00     0.314 A 
HETATM   14  O1  UNL     1      21.328  41.726  70.246  1.00  0.00    -0.262 OA
HETATM   15  C4  UNL     1      23.323  42.477  69.344  1.00  0.00     0.294 A 
HETATM   16  O2  UNL     1      23.587  41.272  69.146  1.00  0.00    -0.278 OA
HETATM   17  C5  UNL     1      24.309  43.457  68.923  1.00  0.00     0.281 A 
HETATM   18  O3  UNL     1      25.331  42.983  68.393  1.00  0.00    -0.279 OA
HETATM   19  C6  UNL     1      24.263  44.935  69.041  1.00  0.00     0.271 A 
HETATM   20  O4  UNL     1      25.243  45.578  68.604  1.00  0.00    -0.280 OA
ENDROOT
TORSDOF 0
ENDMDL
MODEL 5
REMARK VINA RESULT: -6.742107932      3.095      5.545
REMARK  0 active torsions:
REMARK  status: ('A' for Active; 'I' for Inactive)
REMARK       I    between atoms: C1_4  and  N3_6 
ROOT
HETATM    1  N1  UNL     1      23.000  41.326  69.167  1.00  0.00    -0.373 N 
ATOM      2  H11 UNL     1      22.886  41.758  68.250  1.00  0.00     0.158 HD
ATOM      3  H12 UNL     1      22.454  40.494  69.393  1.00  0.00     0.158 HD
HETATM    4  C1  UNL     1      23.826  41.854  69.991  1.00  0.00     0.187 C 
HETATM    5  N2  UNL     1      23.984  41.255  71.265  1.00  0.00    -0.064 NA
HETATM    6  N3  UNL     1      24.574  42.994  69.681  1.00  0.00    -0.312 N 
ATOM      7  H3  UNL     1      25.540  42.848  69.390  1.00  0.00     0.170 HD
HETATM    8  C2  UNL     1      24.159  44.199  69.729  1.00  0.00     0.178 A 
HETATM    9  N4  UNL     1      22.828  44.394  70.131  1.00  0.00    -0.279 N 
ATOM     10  H4  UNL     1      22.352  43.531  70.393  1.00  0.00     0.189 HD
HETATM   11  N5  UNL     1      22.016  45.542  70.246  1.00  0.00    -0.261 N 
ATOM     12  H5  UNL     1      21.045  45.384  70.516  1.00  0.00     0.190 HD
HETATM   13  C3  UNL     1      22.401  46.898  70.027  1.00  0.00     0.314 A 
HETATM   14  O1  UNL     1      21.476  47.729  70.245  1.00  0.00    -0.262 OA
HETATM   15  C4  UNL     1      23.680  47.435  69.599  1.00  0.00     0.294 A 
HETATM   16  O2  UNL     1      23.718  48.678  69.476  1.00  0.00    -0.278 OA
HETATM   17  C5  UNL     1      24.894  46.695  69.306  1.00  0.00     0.281 A 
HETATM   18  O3  UNL     1      25.866  47.391  68.962  1.00  0.00    -0.279 OA
HETATM   19  C6  UNL     1      25.128  45.231  69.358  1.00  0.00     0.271 A 
HETATM   20  O4  UNL     1      26.270  44.820  69.056  1.00  0.00    -0.280 OA
ENDROOT
TORSDOF 0
ENDMDL
