MODEL 1
REMARK VINA RESULT: -6.783580235      0.000      0.000
REMARK  2 active torsions:
REMARK  status: ('A' for Active; 'I' for Inactive)
REMARK    1  A    between atoms: N1_1  and  N2_4 
REMARK       I    between atoms: N2_4  and  C1_6 
REMARK       I    between atoms: C1_6  and  N3_8 
REMARK    2  A    between atoms: N3_8  and  C2_10 
ROOT
HETATM    1  C2  UNL     1      19.805  48.748  68.775  1.00  0.00     0.694 A 
HETATM    2  N4  UNL     1      18.590  48.942  69.293  1.00  0.00    -0.141 N 
ATOM      3  H4  UNL     1      18.408  48.618  70.244  1.00  0.00     0.189 HD
HETATM    4  C3  UNL     1      17.591  49.549  68.616  1.00  0.00     0.342 A 
HETATM    5  O2  UNL     1      16.468  49.696  69.178  1.00  0.00    -0.246 OA
HETATM    6  N5  UNL     1      17.828  49.980  67.357  1.00  0.00    -0.260 N 
ATOM      7  H5  UNL     1      17.090  50.440  66.825  1.00  0.00     0.175 HD
HETATM    8  C4  UNL     1      19.055  49.794  66.807  1.00  0.00     0.342 A 
HETATM    9  O3  UNL     1      19.254  50.208  65.621  1.00  0.00    -0.246 OA
HETATM   10  N6  UNL     1      20.019  49.183  67.521  1.00  0.00    -0.141 N 
ATOM     11  H6  UNL     1      20.938  49.046  67.099  1.00  0.00     0.189 HD
ENDROOT
BRANCH   1  12
HETATM   12  N3  UNL     1      20.774  48.162  69.422  1.00  0.00    -0.140 N 
HETATM   13  C1  UNL     1      22.089  48.716  69.438  1.00  0.00     0.352 C 
HETATM   14  N2  UNL     1      22.605  49.390  70.576  1.00  0.00    -0.258 N 
HETATM   15  O1  UNL     1      22.779  48.584  68.404  1.00  0.00    -0.245 OA
ATOM     16  H2  UNL     1      22.042  49.496  71.420  1.00  0.00     0.191 HD
ATOM     17  H3  UNL     1      20.589  47.295  69.924  1.00  0.00     0.189 HD
BRANCH  14  18
HETATM   18  N1  UNL     1      23.886  49.898  70.514  1.00  0.00    -0.341 N 
ATOM     19  H12 UNL     1      24.484  49.865  71.339  1.00  0.00     0.177 HD
ATOM     20  H11 UNL     1      24.208  50.299  69.634  1.00  0.00     0.177 HD
ENDBRANCH  14  18
ENDBRANCH   1  12
TORSDOF 2
ENDMDL
MODEL 2
REMARK VINA RESULT: -6.768657701      0.088      2.199
REMARK  2 active torsions:
REMARK  status: ('A' for Active; 'I' for Inactive)
REMARK    1  A    between atoms: N1_1  and  N2_4 
REMARK       I    between atoms: N2_4  and  C1_6 
REMARK       I    between atoms: C1_6  and  N3_8 
REMARK    2  A    between atoms: N3_8  and  C2_10 
ROOT
HETATM    1  C2  UNL     1      19.903  48.764  68.740  1.00  0.00     0.694 A 
HETATM    2  N4  UNL     1      20.048  49.219  67.493  1.00  0.00    -0.141 N 
ATOM      3  H4  UNL     1      20.956  49.117  67.040  1.00  0.00     0.189 HD
HETATM    4  C3  UNL     1      19.044  49.807  66.805  1.00  0.00     0.342 A 
HETATM    5  O2  UNL     1      19.262  50.211  65.627  1.00  0.00    -0.246 OA
HETATM    6  N5  UNL     1      17.840  49.943  67.402  1.00  0.00    -0.260 N 
ATOM      7  H5  UNL     1      17.068  50.385  66.904  1.00  0.00     0.175 HD
HETATM    8  C4  UNL     1      17.667  49.489  68.670  1.00  0.00     0.342 A 
HETATM    9  O3  UNL     1      16.524  49.628  69.210  1.00  0.00    -0.246 OA
HETATM   10  N6  UNL     1      18.697  48.910  69.316  1.00  0.00    -0.141 N 
ATOM     11  H6  UNL     1      18.558  48.573  70.269  1.00  0.00     0.189 HD
ENDROOT
BRANCH   1  12
HETATM   12  N3  UNL     1      20.866  48.195  69.411  1.00  0.00    -0.140 N 
HETATM   13  C1  UNL     1      22.177  48.756  69.436  1.00  0.00     0.352 C 
HETATM   14  N2  UNL     1      22.674  49.453  70.569  1.00  0.00    -0.258 N 
HETATM   15  O1  UNL     1      22.883  48.610  68.414  1.00  0.00    -0.245 OA
ATOM     16  H2  UNL     1      22.098  49.570  71.403  1.00  0.00     0.191 HD
ATOM     17  H3  UNL     1      20.678  47.336  69.926  1.00  0.00     0.189 HD
BRANCH  14  18
HETATM   18  N1  UNL     1      23.952  49.967  70.517  1.00  0.00    -0.341 N 
ATOM     19  H12 UNL     1      24.642  49.548  69.893  1.00  0.00     0.177 HD
ATOM     20  H11 UNL     1      24.180  50.764  71.111  1.00  0.00     0.177 HD
ENDBRANCH  14  18
ENDBRANCH   1  12
TORSDOF 2
ENDMDL
MODEL 3
REMARK VINA RESULT: -6.653626101      5.454      7.737
REMARK  2 active torsions:
REMARK  status: ('A' for Active; 'I' for Inactive)
REMARK    1  A    between atoms: N1_1  and  N2_4 
REMARK       I    between atoms: N2_4  and  C1_6 
REMARK       I    between atoms: C1_6  and  N3_8 
REMARK    2  A    between atoms: N3_8  and  C2_10 
ROOT
HETATM    1  C2  UNL     1      24.325  44.291  69.774  1.00  0.00     0.694 A 
HETATM    2  N4  UNL     1      24.503  43.830  68.534  1.00  0.00    -0.141 N 
ATOM      3  H4  UNL     1      24.705  44.498  67.790  1.00  0.00     0.189 HD
HETATM    4  C3  UNL     1      24.429  42.518  68.221  1.00  0.00     0.342 A 
HETATM    5  O2  UNL     1      24.611  42.161  67.022  1.00  0.00    -0.246 OA
HETATM    6  N5  UNL     1      24.162  41.630  69.204  1.00  0.00    -0.260 N 
ATOM      7  H5  UNL     1      24.099  40.634  68.993  1.00  0.00     0.175 HD
HETATM    8  C4  UNL     1      23.976  42.073  70.473  1.00  0.00     0.342 A 
HETATM    9  O3  UNL     1      23.726  41.218  71.382  1.00  0.00    -0.246 OA
HETATM   10  N6  UNL     1      24.059  43.391  70.737  1.00  0.00    -0.141 N 
ATOM     11  H6  UNL     1      23.917  43.715  71.694  1.00  0.00     0.189 HD
ENDROOT
BRANCH   1  12
HETATM   12  N3  UNL     1      24.395  45.556  70.085  1.00  0.00    -0.140 N 
HETATM   13  C1  UNL     1      23.426  46.487  69.607  1.00  0.00     0.352 C 
HETATM   14  N2  UNL     1      22.404  47.003  70.445  1.00  0.00    -0.258 N 
HETATM   15  O1  UNL     1      23.509  46.837  68.409  1.00  0.00    -0.245 OA
ATOM     16  H2  UNL     1      22.337  46.718  71.422  1.00  0.00     0.191 HD
ATOM     17  H3  UNL     1      25.155  45.885  70.679  1.00  0.00     0.189 HD
BRANCH  14  18
HETATM   18  N1  UNL     1      21.503  47.900  69.909  1.00  0.00    -0.341 N 
ATOM     19  H12 UNL     1      20.613  47.565  69.539  1.00  0.00     0.177 HD
ATOM     20  H11 UNL     1      21.751  48.889  69.895  1.00  0.00     0.177 HD
ENDBRANCH  14  18
ENDBRANCH   1  12
TORSDOF 2
ENDMDL
MODEL 4
REMARK VINA RESULT: -6.625488996      1.791      4.758
REMARK  2 active torsions:
REMARK  status: ('A' for Active; 'I' for Inactive)
REMARK    1  A    between atoms: N1_1  and  N2_4 
REMARK       I    between atoms: N2_4  and  C1_6 
REMARK       I    between atoms: C1_6  and  N3_8 
REMARK    2  A    between atoms: N3_8  and  C2_10 
ROOT
HETATM    1  C2  UNL     1      21.061  49.567  68.309  1.00  0.00     0.694 A 
HETATM    2  N4  UNL     1      20.945  48.577  69.197  1.00  0.00    -0.141 N 
ATOM      3  H4  UNL     1      20.012  48.308  69.509  1.00  0.00     0.189 HD
HETATM    4  C3  UNL     1      22.010  47.915  69.701  1.00  0.00     0.342 A 
HETATM    5  O2  UNL     1      21.817  46.988  70.538  1.00  0.00    -0.246 OA
HETATM    6  N5  UNL     1      23.248  48.267  69.291  1.00  0.00    -0.260 N 
ATOM      7  H5  UNL     1      24.067  47.783  69.657  1.00  0.00     0.175 HD
HETATM    8  C4  UNL     1      23.393  49.271  68.388  1.00  0.00     0.342 A 
HETATM    9  O3  UNL     1      24.568  49.585  68.016  1.00  0.00    -0.246 OA
HETATM   10  N6  UNL     1      22.302  49.903  67.914  1.00  0.00    -0.141 N 
ATOM     11  H6  UNL     1      22.420  50.657  67.238  1.00  0.00     0.189 HD
ENDROOT
BRANCH   1  12
HETATM   12  N3  UNL     1      20.039  50.211  67.819  1.00  0.00    -0.140 N 
HETATM   13  C1  UNL     1      18.723  49.666  67.885  1.00  0.00     0.352 C 
HETATM   14  N2  UNL     1      17.757  50.144  68.809  1.00  0.00    -0.258 N 
HETATM   15  O1  UNL     1      18.446  48.740  67.090  1.00  0.00    -0.245 OA
ATOM     16  H2  UNL     1      17.984  50.900  69.455  1.00  0.00     0.191 HD
ATOM     17  H3  UNL     1      20.183  51.121  67.381  1.00  0.00     0.189 HD
BRANCH  14  18
HETATM   18  N1  UNL     1      16.506  49.564  68.812  1.00  0.00    -0.341 N 
ATOM     19  H12 UNL     1      16.284  48.833  68.136  1.00  0.00     0.177 HD
ATOM     20  H11 UNL     1      15.823  49.885  69.498  1.00  0.00     0.177 HD
ENDBRANCH  14  18
ENDBRANCH   1  12
TORSDOF 2
ENDMDL
MODEL 5
REMARK VINA RESULT: -6.615494181      5.444      7.448
REMARK  2 active torsions:
REMARK  status: ('A' for Active; 'I' for Inactive)
REMARK    1  A    between atoms: N1_1  and  N2_4 
REMARK       I    between atoms: N2_4  and  C1_6 
REMARK       I    between atoms: C1_6  and  N3_8 
REMARK    2  A    between atoms: N3_8  and  C2_10 
ROOT
HETATM    1  C2  UNL     1      24.327  44.300  69.816  1.00  0.00     0.694 A 
HETATM    2  N4  UNL     1      24.092  43.364  70.739  1.00  0.00    -0.141 N 
ATOM      3  H4  UNL     1      23.967  43.656  71.709  1.00  0.00     0.189 HD
HETATM    4  C3  UNL     1      24.013  42.048  70.446  1.00  0.00     0.342 A 
HETATM    5  O2  UNL     1      23.787  41.223  71.378  1.00  0.00    -0.246 OA
HETATM    6  N5  UNL     1      24.179  41.656  69.164  1.00  0.00    -0.260 N 
ATOM      7  H5  UNL     1      24.125  40.668  68.917  1.00  0.00     0.175 HD
HETATM    8  C4  UNL     1      24.419  42.589  68.206  1.00  0.00     0.342 A 
HETATM    9  O3  UNL     1      24.571  42.196  67.006  1.00  0.00    -0.246 OA
HETATM   10  N6  UNL     1      24.490  43.890  68.546  1.00  0.00    -0.141 N 
ATOM     11  H6  UNL     1      24.672  44.583  67.821  1.00  0.00     0.189 HD
ENDROOT
BRANCH   1  12
HETATM   12  N3  UNL     1      24.405  45.572  70.091  1.00  0.00    -0.140 N 
HETATM   13  C1  UNL     1      23.428  46.492  69.606  1.00  0.00     0.352 C 
HETATM   14  N2  UNL     1      22.423  47.033  70.449  1.00  0.00    -0.258 N 
HETATM   15  O1  UNL     1      23.490  46.809  68.398  1.00  0.00    -0.245 OA
ATOM     16  H2  UNL     1      22.374  46.775  71.435  1.00  0.00     0.191 HD
ATOM     17  H3  UNL     1      25.177  45.915  70.662  1.00  0.00     0.189 HD
BRANCH  14  18
HETATM   18  N1  UNL     1      21.514  47.917  69.906  1.00  0.00    -0.341 N 
ATOM     19  H12 UNL     1      20.918  47.620  69.134  1.00  0.00     0.177 HD
ATOM     20  H11 UNL     1      21.459  48.858  70.294  1.00  0.00     0.177 HD
ENDBRANCH  14  18
ENDBRANCH   1  12
TORSDOF 2
ENDMDL
