MODEL 1
REMARK VINA RESULT: -5.550241207      0.000      0.000
REMARK  2 active torsions:
REMARK  status: ('A' for Active; 'I' for Inactive)
REMARK    1  A    between atoms: N1_2  and  C2_4 
REMARK    2  A    between atoms: C4_11  and  N4_12 
ROOT
HETATM    1  C2  UNL     1      24.711  44.440  69.144  1.00  0.00     0.161 C 
HETATM    2  N2  UNL     1      23.589  43.940  69.712  1.00  0.00    -0.291 N 
ATOM      3  H2  UNL     1      23.656  42.941  69.905  1.00  0.00     0.172 HD
HETATM    4  C3  UNL     1      22.407  44.462  70.078  1.00  0.00     0.340 C 
HETATM    5  O1  UNL     1      21.516  43.595  70.267  1.00  0.00    -0.246 OA
HETATM    6  N3  UNL     1      21.905  45.710  70.307  1.00  0.00    -0.141 N 
ATOM      7  H3  UNL     1      20.957  45.705  70.687  1.00  0.00     0.189 HD
HETATM    8  C4  UNL     1      22.410  46.953  70.133  1.00  0.00     0.682 C 
HETATM    9  N5  UNL     1      23.645  47.459  69.990  1.00  0.00    -0.153 N 
ATOM     10  H5  UNL     1      23.679  48.463  70.169  1.00  0.00     0.187 HD
HETATM   11  C5  UNL     1      24.858  46.950  69.664  1.00  0.00     0.313 C 
HETATM   12  O2  UNL     1      25.806  47.771  69.769  1.00  0.00    -0.263 OA
HETATM   13  C6  UNL     1      25.288  45.689  69.232  1.00  0.00     0.283 C 
HETATM   14  O3  UNL     1      26.461  45.699  68.834  1.00  0.00    -0.278 OA
ENDROOT
BRANCH   1  15
HETATM   15  N1  UNL     1      25.340  43.602  68.399  1.00  0.00    -0.377 N 
HETATM   16  C1  UNL     1      24.580  42.602  67.685  1.00  0.00     0.148 C 
ATOM     17  H1  UNL     1      26.355  43.643  68.314  1.00  0.00     0.160 HD
ENDBRANCH   1  15
BRANCH   8  18
HETATM   18  N4  UNL     1      21.516  47.874  70.091  1.00  0.00    -0.234 N 
ATOM     19  H42 UNL     1      20.625  47.548  70.464  1.00  0.00     0.174 HD
ATOM     20  H41 UNL     1      21.851  48.754  69.699  1.00  0.00     0.174 HD
ENDBRANCH   8  18
TORSDOF 2
ENDMDL
MODEL 2
REMARK VINA RESULT: -5.543711394      2.079      2.937
REMARK  2 active torsions:
REMARK  status: ('A' for Active; 'I' for Inactive)
REMARK    1  A    between atoms: N1_2  and  C2_4 
REMARK    2  A    between atoms: C4_11  and  N4_12 
ROOT
HETATM    1  C2  UNL     1      25.621  47.495  69.193  1.00  0.00     0.161 C 
HETATM    2  N2  UNL     1      25.100  46.247  69.244  1.00  0.00    -0.291 N 
ATOM      3  H2  UNL     1      25.811  45.519  69.172  1.00  0.00     0.172 HD
HETATM    4  C3  UNL     1      23.858  45.750  69.368  1.00  0.00     0.340 C 
HETATM    5  O1  UNL     1      23.771  44.539  69.042  1.00  0.00    -0.246 OA
HETATM    6  N3  UNL     1      22.639  46.219  69.765  1.00  0.00    -0.141 N 
ATOM      7  H3  UNL     1      21.924  45.494  69.829  1.00  0.00     0.189 HD
HETATM    8  C4  UNL     1      22.189  47.453  70.090  1.00  0.00     0.682 C 
HETATM    9  N5  UNL     1      22.771  48.603  70.463  1.00  0.00    -0.153 N 
ATOM     10  H5  UNL     1      22.116  49.246  70.908  1.00  0.00     0.187 HD
HETATM   11  C5  UNL     1      24.025  49.111  70.389  1.00  0.00     0.313 C 
HETATM   12  O2  UNL     1      24.173  50.209  70.988  1.00  0.00    -0.263 OA
HETATM   13  C6  UNL     1      25.207  48.671  69.781  1.00  0.00     0.283 C 
HETATM   14  O3  UNL     1      26.087  49.542  69.768  1.00  0.00    -0.278 OA
ENDROOT
BRANCH   1  15
HETATM   15  N1  UNL     1      26.680  47.591  68.472  1.00  0.00    -0.377 N 
HETATM   16  C1  UNL     1      27.786  46.699  68.738  1.00  0.00     0.148 C 
ATOM     17  H1  UNL     1      26.739  48.283  67.725  1.00  0.00     0.160 HD
ENDBRANCH   1  15
BRANCH   8  18
HETATM   18  N4  UNL     1      20.911  47.568  70.034  1.00  0.00    -0.234 N 
ATOM     19  H42 UNL     1      20.445  46.706  70.315  1.00  0.00     0.174 HD
ATOM     20  H41 UNL     1      20.594  48.487  69.724  1.00  0.00     0.174 HD
ENDBRANCH   8  18
TORSDOF 2
ENDMDL
MODEL 3
REMARK VINA RESULT: -5.450810016      2.488      3.639
REMARK  2 active torsions:
REMARK  status: ('A' for Active; 'I' for Inactive)
REMARK    1  A    between atoms: N1_2  and  C2_4 
REMARK    2  A    between atoms: C4_11  and  N4_12 
ROOT
HETATM    1  C2  UNL     1      22.609  41.732  69.161  1.00  0.00     0.161 C 
HETATM    2  N2  UNL     1      22.178  42.375  70.271  1.00  0.00    -0.291 N 
ATOM      3  H2  UNL     1      21.739  41.748  70.945  1.00  0.00     0.172 HD
HETATM    4  C3  UNL     1      22.198  43.653  70.686  1.00  0.00     0.340 C 
HETATM    5  O1  UNL     1      21.401  43.882  71.631  1.00  0.00    -0.246 OA
HETATM    6  N3  UNL     1      22.869  44.793  70.349  1.00  0.00    -0.141 N 
ATOM      7  H3  UNL     1      22.688  45.574  70.980  1.00  0.00     0.189 HD
HETATM    8  C4  UNL     1      23.726  45.095  69.347  1.00  0.00     0.682 C 
HETATM    9  N5  UNL     1      24.492  44.378  68.511  1.00  0.00    -0.153 N 
ATOM     10  H5  UNL     1      25.226  44.938  68.077  1.00  0.00     0.187 HD
HETATM   11  C5  UNL     1      24.521  43.084  68.108  1.00  0.00     0.313 C 
HETATM   12  O2  UNL     1      25.511  42.791  67.387  1.00  0.00    -0.263 OA
HETATM   13  C6  UNL     1      23.675  41.990  68.326  1.00  0.00     0.283 C 
HETATM   14  O3  UNL     1      23.948  41.026  67.596  1.00  0.00    -0.278 OA
ENDROOT
BRANCH   1  15
HETATM   15  N1  UNL     1      21.900  40.711  68.839  1.00  0.00    -0.377 N 
HETATM   16  C1  UNL     1      20.468  40.772  69.025  1.00  0.00     0.148 C 
ATOM     17  H1  UNL     1      22.339  39.873  68.458  1.00  0.00     0.160 HD
ENDBRANCH   1  15
BRANCH   8  18
HETATM   18  N4  UNL     1      23.844  46.356  69.130  1.00  0.00    -0.234 N 
ATOM     19  H42 UNL     1      22.984  46.753  68.754  1.00  0.00     0.174 HD
ATOM     20  H41 UNL     1      24.762  46.729  69.371  1.00  0.00     0.174 HD
ENDBRANCH   8  18
TORSDOF 2
ENDMDL
MODEL 4
REMARK VINA RESULT: -5.443009246      1.431      5.122
REMARK  2 active torsions:
REMARK  status: ('A' for Active; 'I' for Inactive)
REMARK    1  A    between atoms: N1_2  and  C2_4 
REMARK    2  A    between atoms: C4_11  and  N4_12 
ROOT
HETATM    1  C2  UNL     1      22.747  44.871  70.160  1.00  0.00     0.161 C 
HETATM    2  N2  UNL     1      24.044  45.059  69.822  1.00  0.00    -0.291 N 
ATOM      3  H2  UNL     1      24.471  45.843  70.314  1.00  0.00     0.172 HD
HETATM    4  C3  UNL     1      24.895  44.445  68.983  1.00  0.00     0.340 C 
HETATM    5  O1  UNL     1      25.914  45.132  68.717  1.00  0.00    -0.246 OA
HETATM    6  N3  UNL     1      24.952  43.248  68.330  1.00  0.00    -0.141 N 
ATOM      7  H3  UNL     1      25.837  43.087  67.849  1.00  0.00     0.189 HD
HETATM    8  C4  UNL     1      24.070  42.231  68.194  1.00  0.00     0.682 C 
HETATM    9  N5  UNL     1      22.976  41.833  68.861  1.00  0.00    -0.153 N 
ATOM     10  H5  UNL     1      22.725  40.865  68.659  1.00  0.00     0.187 HD
HETATM   11  C5  UNL     1      22.126  42.415  69.742  1.00  0.00     0.313 C 
HETATM   12  O2  UNL     1      21.277  41.627  70.236  1.00  0.00    -0.263 OA
HETATM   13  C6  UNL     1      21.988  43.722  70.226  1.00  0.00     0.283 C 
HETATM   14  O3  UNL     1      20.938  43.883  70.864  1.00  0.00    -0.278 OA
ENDROOT
BRANCH   1  15
HETATM   15  N1  UNL     1      22.125  45.952  70.471  1.00  0.00    -0.377 N 
HETATM   16  C1  UNL     1      22.565  47.199  69.888  1.00  0.00     0.148 C 
ATOM     17  H1  UNL     1      21.335  45.930  71.116  1.00  0.00     0.160 HD
ENDBRANCH   1  15
BRANCH   8  18
HETATM   18  N4  UNL     1      24.323  41.457  67.200  1.00  0.00    -0.234 N 
ATOM     19  H42 UNL     1      23.597  40.750  67.082  1.00  0.00     0.174 HD
ATOM     20  H41 UNL     1      25.190  41.684  66.713  1.00  0.00     0.174 HD
ENDBRANCH   8  18
TORSDOF 2
ENDMDL
MODEL 5
REMARK VINA RESULT: -5.429900209      2.546      4.286
REMARK  2 active torsions:
REMARK  status: ('A' for Active; 'I' for Inactive)
REMARK    1  A    between atoms: N1_2  and  C2_4 
REMARK    2  A    between atoms: C4_11  and  N4_12 
ROOT
HETATM    1  C2  UNL     1      22.220  43.460  70.461  1.00  0.00     0.161 C 
HETATM    2  N2  UNL     1      22.081  42.198  69.990  1.00  0.00    -0.291 N 
ATOM      3  H2  UNL     1      21.273  41.717  70.384  1.00  0.00     0.172 HD
HETATM    4  C3  UNL     1      22.767  41.437  69.122  1.00  0.00     0.340 C 
HETATM    5  O1  UNL     1      22.497  40.213  69.211  1.00  0.00    -0.246 OA
HETATM    6  N3  UNL     1      23.699  41.644  68.145  1.00  0.00    -0.141 N 
ATOM      7  H3  UNL     1      23.917  40.805  67.606  1.00  0.00     0.189 HD
HETATM    8  C4  UNL     1      24.391  42.736  67.749  1.00  0.00     0.682 C 
HETATM    9  N5  UNL     1      24.234  44.060  67.901  1.00  0.00    -0.153 N 
ATOM     10  H5  UNL     1      24.781  44.599  67.229  1.00  0.00     0.187 HD
HETATM   11  C5  UNL     1      23.518  44.851  68.738  1.00  0.00     0.313 C 
HETATM   12  O2  UNL     1      23.561  46.077  68.450  1.00  0.00    -0.263 OA
HETATM   13  C6  UNL     1      22.731  44.594  69.867  1.00  0.00     0.283 C 
HETATM   14  O3  UNL     1      22.421  45.628  70.475  1.00  0.00    -0.278 OA
ENDROOT
BRANCH   1  15
HETATM   15  N1  UNL     1      21.804  43.618  71.666  1.00  0.00    -0.377 N 
HETATM   16  C1  UNL     1      22.384  42.808  72.714  1.00  0.00     0.148 C 
ATOM     17  H1  UNL     1      21.078  44.302  71.880  1.00  0.00     0.160 HD
ENDBRANCH   1  15
BRANCH   8  18
HETATM   18  N4  UNL     1      25.446  42.462  67.069  1.00  0.00    -0.234 N 
ATOM     19  H42 UNL     1      25.783  43.277  66.557  1.00  0.00     0.174 HD
ATOM     20  H41 UNL     1      25.754  41.494  67.162  1.00  0.00     0.174 HD
ENDBRANCH   8  18
TORSDOF 2
ENDMDL
