MODEL 1
REMARK VINA RESULT: -6.788006709      0.000      0.000
REMARK  1 active torsions:
REMARK  status: ('A' for Active; 'I' for Inactive)
REMARK    1  A    between atoms: N1_1  and  C1_5 
ROOT
HETATM    1  C1  UNL     1      23.033  44.483  69.344  1.00  0.00     0.371 C 
HETATM    2  N2  UNL     1      24.099  44.992  68.565  1.00  0.00    -0.274 N 
ATOM      3  H2  UNL     1      24.212  45.392  67.634  1.00  0.00     0.170 HD
HETATM    4  C2  UNL     1      24.953  44.689  69.688  1.00  0.00     0.331 C 
HETATM    5  O1  UNL     1      26.102  45.118  69.947  1.00  0.00    -0.247 OA
HETATM    6  N3  UNL     1      24.002  43.810  70.256  1.00  0.00    -0.210 N 
HETATM    7  C3  UNL     1      23.196  42.861  70.932  1.00  0.00     0.286 C 
HETATM    8  N4  UNL     1      23.810  41.674  71.419  1.00  0.00    -0.290 N 
ATOM      9  H4  UNL     1      24.535  41.039  71.086  1.00  0.00     0.169 HD
HETATM   10  C4  UNL     1      22.981  41.753  72.565  1.00  0.00     0.323 C 
HETATM   11  O2  UNL     1      22.564  40.946  73.462  1.00  0.00    -0.247 OA
HETATM   12  N5  UNL     1      22.816  43.129  72.274  1.00  0.00    -0.290 N 
ATOM     13  H5  UNL     1      22.542  43.958  72.802  1.00  0.00     0.169 HD
HETATM   14  C5  UNL     1      22.077  42.517  70.006  1.00  0.00     0.294 C 
HETATM   15  O3  UNL     1      21.184  41.677  70.235  1.00  0.00    -0.266 OA
HETATM   16  N6  UNL     1      22.279  43.346  68.861  1.00  0.00    -0.288 N 
ATOM     17  H6  UNL     1      21.961  43.174  67.907  1.00  0.00     0.168 HD
ENDROOT
BRANCH   1  18
HETATM   18  N1  UNL     1      22.187  45.423  70.031  1.00  0.00    -0.013 N 
ATOM     19  H13 UNL     1      21.866  46.128  69.368  1.00  0.00     0.281 HD
ATOM     20  H12 UNL     1      21.308  44.966  70.272  1.00  0.00     0.281 HD
ATOM     21  H11 UNL     1      22.560  45.887  70.859  1.00  0.00     0.281 HD
ENDBRANCH   1  18
TORSDOF 1
ENDMDL
MODEL 2
REMARK VINA RESULT: -6.778408276      2.117      3.830
REMARK  1 active torsions:
REMARK  status: ('A' for Active; 'I' for Inactive)
REMARK    1  A    between atoms: N1_1  and  C1_5 
ROOT
HETATM    1  C1  UNL     1      22.046  43.447  71.181  1.00  0.00     0.371 C 
HETATM    2  N2  UNL     1      22.041  43.473  72.595  1.00  0.00    -0.274 N 
ATOM      3  H2  UNL     1      21.767  44.131  73.324  1.00  0.00     0.170 HD
HETATM    4  C2  UNL     1      22.602  42.144  72.538  1.00  0.00     0.331 C 
HETATM    5  O1  UNL     1      22.651  41.266  73.431  1.00  0.00    -0.247 OA
HETATM    6  N3  UNL     1      23.001  42.302  71.190  1.00  0.00    -0.210 N 
HETATM    7  C3  UNL     1      23.517  42.308  69.871  1.00  0.00     0.286 C 
HETATM    8  N4  UNL     1      24.824  41.790  69.652  1.00  0.00    -0.290 N 
ATOM      9  H4  UNL     1      25.710  41.812  70.155  1.00  0.00     0.169 HD
HETATM   10  C4  UNL     1      24.364  41.232  68.433  1.00  0.00     0.323 C 
HETATM   11  O2  UNL     1      24.894  40.829  67.344  1.00  0.00    -0.247 OA
HETATM   12  N5  UNL     1      23.053  41.322  68.959  1.00  0.00    -0.290 N 
ATOM     13  H5  UNL     1      22.158  40.873  68.766  1.00  0.00     0.169 HD
HETATM   14  C5  UNL     1      23.435  43.717  69.388  1.00  0.00     0.294 C 
HETATM   15  O3  UNL     1      23.839  44.124  68.281  1.00  0.00    -0.266 OA
HETATM   16  N6  UNL     1      22.813  44.436  70.454  1.00  0.00    -0.288 N 
ATOM     17  H6  UNL     1      22.893  45.431  70.660  1.00  0.00     0.168 HD
ENDROOT
BRANCH   1  18
HETATM   18  N1  UNL     1      20.814  43.135  70.506  1.00  0.00    -0.013 N 
ATOM     19  H13 UNL     1      20.920  43.334  69.511  1.00  0.00     0.281 HD
ATOM     20  H12 UNL     1      20.690  42.122  70.489  1.00  0.00     0.281 HD
ATOM     21  H11 UNL     1      19.958  43.570  70.846  1.00  0.00     0.281 HD
ENDBRANCH   1  18
TORSDOF 1
ENDMDL
MODEL 3
REMARK VINA RESULT: -6.760593330      1.841      2.919
REMARK  1 active torsions:
REMARK  status: ('A' for Active; 'I' for Inactive)
REMARK    1  A    between atoms: N1_1  and  C1_5 
ROOT
HETATM    1  C1  UNL     1      24.587  44.498  69.738  1.00  0.00     0.371 C 
HETATM    2  N2  UNL     1      24.778  45.878  69.988  1.00  0.00    -0.274 N 
ATOM      3  H2  UNL     1      25.523  46.469  70.355  1.00  0.00     0.170 HD
HETATM    4  C2  UNL     1      23.439  46.068  69.486  1.00  0.00     0.331 C 
HETATM    5  O1  UNL     1      22.887  47.118  69.079  1.00  0.00    -0.247 OA
HETATM    6  N3  UNL     1      23.113  44.703  69.654  1.00  0.00    -0.210 N 
HETATM    7  C3  UNL     1      22.601  43.390  69.810  1.00  0.00     0.286 C 
HETATM    8  N4  UNL     1      21.302  43.230  70.365  1.00  0.00    -0.290 N 
ATOM      9  H4  UNL     1      20.763  43.685  71.102  1.00  0.00     0.169 HD
HETATM   10  C4  UNL     1      21.078  42.168  69.455  1.00  0.00     0.323 C 
HETATM   11  O2  UNL     1      20.294  41.163  69.382  1.00  0.00    -0.247 OA
HETATM   12  N5  UNL     1      22.114  42.714  68.659  1.00  0.00    -0.290 N 
ATOM     13  H5  UNL     1      22.392  42.650  67.680  1.00  0.00     0.169 HD
HETATM   14  C5  UNL     1      23.603  42.637  70.620  1.00  0.00     0.294 C 
HETATM   15  O3  UNL     1      23.479  41.456  71.000  1.00  0.00    -0.266 OA
HETATM   16  N6  UNL     1      24.671  43.559  70.834  1.00  0.00    -0.288 N 
ATOM     17  H6  UNL     1      25.348  43.556  71.597  1.00  0.00     0.168 HD
ENDROOT
BRANCH   1  18
HETATM   18  N1  UNL     1      25.139  43.948  68.528  1.00  0.00    -0.013 N 
ATOM     19  H13 UNL     1      24.376  43.674  67.908  1.00  0.00     0.281 HD
ATOM     20  H12 UNL     1      25.570  44.696  67.986  1.00  0.00     0.281 HD
ATOM     21  H11 UNL     1      25.797  43.174  68.610  1.00  0.00     0.281 HD
ENDBRANCH   1  18
TORSDOF 1
ENDMDL
MODEL 4
REMARK VINA RESULT: -6.562210212      1.539      4.206
REMARK  1 active torsions:
REMARK  status: ('A' for Active; 'I' for Inactive)
REMARK    1  A    between atoms: N1_1  and  C1_5 
ROOT
HETATM    1  C1  UNL     1      22.368  43.424  69.906  1.00  0.00     0.371 C 
HETATM    2  N2  UNL     1      21.961  42.487  70.886  1.00  0.00    -0.274 N 
ATOM      3  H2  UNL     1      21.082  42.188  71.307  1.00  0.00     0.170 HD
HETATM    4  C2  UNL     1      23.358  42.147  71.019  1.00  0.00     0.331 C 
HETATM    5  O1  UNL     1      23.879  41.126  71.525  1.00  0.00    -0.247 OA
HETATM    6  N3  UNL     1      23.775  43.344  70.393  1.00  0.00    -0.210 N 
HETATM    7  C3  UNL     1      24.366  44.509  69.844  1.00  0.00     0.286 C 
HETATM    8  N4  UNL     1      25.470  45.094  70.524  1.00  0.00    -0.290 N 
ATOM      9  H4  UNL     1      25.728  45.245  71.499  1.00  0.00     0.169 HD
HETATM   10  C4  UNL     1      26.055  45.377  69.266  1.00  0.00     0.323 C 
HETATM   11  O2  UNL     1      26.937  46.185  68.817  1.00  0.00    -0.247 OA
HETATM   12  N5  UNL     1      25.227  44.365  68.722  1.00  0.00    -0.290 N 
ATOM     13  H5  UNL     1      25.242  43.783  67.885  1.00  0.00     0.169 HD
HETATM   14  C5  UNL     1      23.271  45.509  69.686  1.00  0.00     0.294 C 
HETATM   15  O3  UNL     1      23.415  46.677  69.272  1.00  0.00    -0.266 OA
HETATM   16  N6  UNL     1      22.088  44.829  70.107  1.00  0.00    -0.288 N 
ATOM     17  H6  UNL     1      21.231  45.244  70.471  1.00  0.00     0.168 HD
ENDROOT
BRANCH   1  18
HETATM   18  N1  UNL     1      22.240  43.053  68.521  1.00  0.00    -0.013 N 
ATOM     19  H13 UNL     1      21.415  43.506  68.130  1.00  0.00     0.281 HD
ATOM     20  H12 UNL     1      22.982  43.502  67.986  1.00  0.00     0.281 HD
ATOM     21  H11 UNL     1      22.217  42.060  68.291  1.00  0.00     0.281 HD
ENDBRANCH   1  18
TORSDOF 1
ENDMDL
MODEL 5
REMARK VINA RESULT: -6.537970935      2.118      3.059
REMARK  1 active torsions:
REMARK  status: ('A' for Active; 'I' for Inactive)
REMARK    1  A    between atoms: N1_1  and  C1_5 
ROOT
HETATM    1  C1  UNL     1      22.099  43.861  70.526  1.00  0.00     0.371 C 
HETATM    2  N2  UNL     1      21.848  45.251  70.447  1.00  0.00    -0.274 N 
ATOM      3  H2  UNL     1      21.121  45.893  70.763  1.00  0.00     0.170 HD
HETATM    4  C2  UNL     1      23.088  45.348  69.715  1.00  0.00     0.331 C 
HETATM    5  O1  UNL     1      23.798  46.357  69.492  1.00  0.00    -0.247 OA
HETATM    6  N3  UNL     1      23.099  43.964  69.425  1.00  0.00    -0.210 N 
HETATM    7  C3  UNL     1      23.240  42.621  68.997  1.00  0.00     0.286 C 
HETATM    8  N4  UNL     1      23.618  42.376  67.648  1.00  0.00    -0.290 N 
ATOM      9  H4  UNL     1      23.404  42.796  66.743  1.00  0.00     0.169 HD
HETATM   10  C4  UNL     1      24.416  41.297  68.101  1.00  0.00     0.323 C 
HETATM   11  O2  UNL     1      24.920  40.241  67.589  1.00  0.00    -0.247 OA
HETATM   12  N5  UNL     1      24.409  41.909  69.377  1.00  0.00    -0.290 N 
ATOM     13  H5  UNL     1      24.992  41.860  70.213  1.00  0.00     0.169 HD
HETATM   14  C5  UNL     1      21.947  41.940  69.300  1.00  0.00     0.294 C 
HETATM   15  O3  UNL     1      21.675  40.755  69.024  1.00  0.00    -0.266 OA
HETATM   16  N6  UNL     1      21.151  42.934  69.947  1.00  0.00    -0.288 N 
ATOM     17  H6  UNL     1      20.133  42.980  69.991  1.00  0.00     0.168 HD
ENDROOT
BRANCH   1  18
HETATM   18  N1  UNL     1      22.667  43.344  71.743  1.00  0.00    -0.013 N 
ATOM     19  H13 UNL     1      22.130  43.693  72.536  1.00  0.00     0.281 HD
ATOM     20  H12 UNL     1      22.475  42.344  71.802  1.00  0.00     0.281 HD
ATOM     21  H11 UNL     1      23.659  43.503  71.914  1.00  0.00     0.281 HD
ENDBRANCH   1  18
TORSDOF 1
ENDMDL
