MODEL 1
REMARK VINA RESULT: -9.670355101      0.000      0.000
REMARK  14 active torsions:
REMARK  status: ('A' for Active; 'I' for Inactive)
REMARK    1  A    between atoms: C2_2  and  C3_3 
REMARK    2  A    between atoms: C4_4  and  C5_5 
REMARK    3  A    between atoms: C5_5  and  C6_6 
REMARK    4  A    between atoms: C6_6  and  C8_8 
REMARK    5  A    between atoms: C9_10  and  C10_11 
REMARK    6  A    between atoms: C10_11  and  C11_12 
REMARK    7  A    between atoms: C11_12  and  C13_14 
REMARK    8  A    between atoms: C13_14  and  O2_15 
REMARK    9  A    between atoms: C14_17  and  C15_18 
REMARK   10  A    between atoms: C15_18  and  O3_20 
REMARK   11  A    between atoms: O3_20  and  C17_21 
REMARK   12  A    between atoms: C19_23  and  O4_24 
REMARK   13  A    between atoms: C20_26  and  O5_27 
REMARK   14  A    between atoms: C24_32  and  O6_33 
ROOT
HETATM    1  C15 UNL     1      15.367  16.790  31.372  1.00  0.00     0.143 C 
HETATM    2  C16 UNL     1      16.412  16.629  30.281  1.00  0.00     0.044 C 
ENDROOT
BRANCH   1   3
HETATM    3  C14 UNL     1      14.846  15.429  31.663  1.00  0.00     0.036 C 
HETATM    4  C13 UNL     1      13.965  15.198  32.632  1.00  0.00     0.046 C 
BRANCH   4   5
HETATM    5  C11 UNL     1      13.439  13.856  32.933  1.00  0.00     0.041 C 
HETATM    6  C12 UNL     1      12.156  13.834  33.699  1.00  0.00     0.017 C 
BRANCH   5   7
HETATM    7  C10 UNL     1      14.431  12.960  33.645  1.00  0.00     0.038 C 
BRANCH   7   8
HETATM    8  C9  UNL     1      14.385  13.056  35.108  1.00  0.00    -0.019 C 
HETATM    9  C2  UNL     1      15.175  13.726  35.906  1.00  0.00    -0.066 C 
HETATM   10  C1  UNL     1      14.968  13.703  37.393  1.00  0.00     0.048 C 
BRANCH   9  11
HETATM   11  C3  UNL     1      16.290  14.524  35.423  1.00  0.00     0.002 C 
HETATM   12  C4  UNL     1      17.147  14.025  34.540  1.00  0.00    -0.025 C 
BRANCH  12  13
HETATM   13  C5  UNL     1      18.266  14.870  34.074  1.00  0.00     0.038 C 
BRANCH  13  14
HETATM   14  C6  UNL     1      18.852  14.196  32.833  1.00  0.00     0.046 C 
HETATM   15  C7  UNL     1      17.802  13.313  32.227  1.00  0.00     0.017 C 
BRANCH  14  16
HETATM   16  C8  UNL     1      19.331  15.215  31.859  1.00  0.00     0.235 C 
HETATM   17  O1  UNL     1      20.393  14.984  31.307  1.00  0.00    -0.306 OA
ENDBRANCH  14  16
ENDBRANCH  13  14
ENDBRANCH  12  13
ENDBRANCH   9  11
ENDBRANCH   7   8
ENDBRANCH   5   7
ENDBRANCH   4   5
BRANCH   4  18
HETATM   18  O2  UNL     1      13.545  16.293  33.369  1.00  0.00    -0.365 OA
ATOM     19  H2  UNL     1      12.909  16.898  33.006  1.00  0.00     0.217 HD
ENDBRANCH   4  18
ENDBRANCH   1   3
BRANCH   1  20
HETATM   20  O3  UNL     1      15.930  17.258  32.554  1.00  0.00    -0.369 OA
BRANCH  20  21
HETATM   21  C17 UNL     1      15.986  18.636  32.637  1.00  0.00     0.195 C 
HETATM   22  C18 UNL     1      17.245  19.224  32.087  1.00  0.00     0.074 C 
HETATM   23  C19 UNL     1      17.143  20.743  32.284  1.00  0.00     0.150 C 
HETATM   24  C20 UNL     1      16.115  21.340  31.363  1.00  0.00     0.163 C 
HETATM   25  C21 UNL     1      14.994  20.391  31.033  1.00  0.00     0.054 C 
HETATM   26  C22 UNL     1      15.204  19.821  29.672  1.00  0.00     0.023 C 
HETATM   27  C25 UNL     1      13.716  21.193  30.995  1.00  0.00     0.051 C 
HETATM   28  C26 UNL     1      14.834  19.321  32.043  1.00  0.00     0.167 C 
HETATM   29  C23 UNL     1      13.948  20.046  28.870  1.00  0.00     0.033 C 
HETATM   30  C24 UNL     1      12.976  20.778  29.750  1.00  0.00     0.119 C 
HETATM   31  O7  UNL     1      13.706  18.966  32.424  1.00  0.00    -0.294 OA
BRANCH  23  32
HETATM   32  O4  UNL     1      18.420  21.259  32.085  1.00  0.00    -0.393 OA
ATOM     33  H4  UNL     1      18.409  22.149  32.416  1.00  0.00     0.210 HD
ENDBRANCH  23  32
BRANCH  24  34
HETATM   34  O5  UNL     1      15.668  22.533  31.930  1.00  0.00    -0.392 OA
ATOM     35  H5  UNL     1      14.722  22.488  32.001  1.00  0.00     0.210 HD
ENDBRANCH  24  34
BRANCH  30  36
HETATM   36  O6  UNL     1      11.879  20.011  30.116  1.00  0.00    -0.396 OA
ATOM     37  H6  UNL     1      12.116  19.183  30.516  1.00  0.00     0.210 HD
ENDBRANCH  30  36
ENDBRANCH  20  21
ENDBRANCH   1  20
TORSDOF 14
ENDMDL
MODEL 2
REMARK VINA RESULT: -9.479068802      1.881      4.620
REMARK  14 active torsions:
REMARK  status: ('A' for Active; 'I' for Inactive)
REMARK    1  A    between atoms: C2_2  and  C3_3 
REMARK    2  A    between atoms: C4_4  and  C5_5 
REMARK    3  A    between atoms: C5_5  and  C6_6 
REMARK    4  A    between atoms: C6_6  and  C8_8 
REMARK    5  A    between atoms: C9_10  and  C10_11 
REMARK    6  A    between atoms: C10_11  and  C11_12 
REMARK    7  A    between atoms: C11_12  and  C13_14 
REMARK    8  A    between atoms: C13_14  and  O2_15 
REMARK    9  A    between atoms: C14_17  and  C15_18 
REMARK   10  A    between atoms: C15_18  and  O3_20 
REMARK   11  A    between atoms: O3_20  and  C17_21 
REMARK   12  A    between atoms: C19_23  and  O4_24 
REMARK   13  A    between atoms: C20_26  and  O5_27 
REMARK   14  A    between atoms: C24_32  and  O6_33 
ROOT
HETATM    1  C15 UNL     1      14.493  15.949  31.225  1.00  0.00     0.143 C 
HETATM    2  C16 UNL     1      14.955  15.690  29.801  1.00  0.00     0.044 C 
ENDROOT
BRANCH   1   3
HETATM    3  C14 UNL     1      15.597  15.505  32.115  1.00  0.00     0.036 C 
HETATM    4  C13 UNL     1      15.508  15.567  33.441  1.00  0.00     0.046 C 
BRANCH   4   5
HETATM    5  C11 UNL     1      16.592  15.132  34.337  1.00  0.00     0.041 C 
HETATM    6  C12 UNL     1      17.939  15.029  33.700  1.00  0.00     0.017 C 
BRANCH   5   7
HETATM    7  C10 UNL     1      16.304  13.826  35.050  1.00  0.00     0.038 C 
BRANCH   7   8
HETATM    8  C9  UNL     1      15.812  13.986  36.422  1.00  0.00    -0.019 C 
HETATM    9  C2  UNL     1      14.795  13.400  36.997  1.00  0.00    -0.066 C 
HETATM   10  C1  UNL     1      14.442  13.693  38.426  1.00  0.00     0.048 C 
BRANCH   9  11
HETATM   11  C3  UNL     1      13.947  12.440  36.308  1.00  0.00     0.002 C 
HETATM   12  C4  UNL     1      12.849  12.839  35.676  1.00  0.00    -0.025 C 
BRANCH  12  13
HETATM   13  C5  UNL     1      12.015  11.831  34.988  1.00  0.00     0.038 C 
BRANCH  13  14
HETATM   14  C6  UNL     1      11.258  12.558  33.876  1.00  0.00     0.046 C 
HETATM   15  C7  UNL     1      12.214  13.469  33.164  1.00  0.00     0.017 C 
BRANCH  14  16
HETATM   16  C8  UNL     1      10.639  11.582  32.937  1.00  0.00     0.235 C 
HETATM   17  O1  UNL     1      10.237  12.026  31.876  1.00  0.00    -0.306 OA
ENDBRANCH  14  16
ENDBRANCH  13  14
ENDBRANCH  12  13
ENDBRANCH   9  11
ENDBRANCH   7   8
ENDBRANCH   5   7
ENDBRANCH   4   5
BRANCH   4  18
HETATM   18  O2  UNL     1      14.328  16.068  33.966  1.00  0.00    -0.365 OA
ATOM     19  H2  UNL     1      13.607  16.294  33.391  1.00  0.00     0.217 HD
ENDBRANCH   4  18
ENDBRANCH   1   3
BRANCH   1  20
HETATM   20  O3  UNL     1      14.313  17.307  31.464  1.00  0.00    -0.369 OA
BRANCH  20  21
HETATM   21  C17 UNL     1      14.247  18.071  30.316  1.00  0.00     0.195 C 
HETATM   22  C18 UNL     1      12.854  18.415  29.899  1.00  0.00     0.074 C 
HETATM   23  C19 UNL     1      12.973  19.236  28.607  1.00  0.00     0.150 C 
HETATM   24  C20 UNL     1      13.540  20.600  28.882  1.00  0.00     0.163 C 
HETATM   25  C21 UNL     1      14.477  20.624  30.061  1.00  0.00     0.054 C 
HETATM   26  C22 UNL     1      13.774  21.188  31.249  1.00  0.00     0.023 C 
HETATM   27  C25 UNL     1      15.611  21.560  29.721  1.00  0.00     0.051 C 
HETATM   28  C26 UNL     1      15.053  19.294  30.361  1.00  0.00     0.167 C 
HETATM   29  C23 UNL     1      14.611  22.314  31.799  1.00  0.00     0.033 C 
HETATM   30  C24 UNL     1      15.823  22.446  30.922  1.00  0.00     0.119 C 
HETATM   31  O7  UNL     1      16.252  19.172  30.663  1.00  0.00    -0.294 OA
BRANCH  23  32
HETATM   32  O4  UNL     1      11.702  19.277  28.040  1.00  0.00    -0.393 OA
ATOM     33  H4  UNL     1      11.775  19.787  27.243  1.00  0.00     0.210 HD
ENDBRANCH  23  32
BRANCH  24  34
HETATM   34  O5  UNL     1      14.132  21.067  27.709  1.00  0.00    -0.392 OA
ATOM     35  H5  UNL     1      13.715  21.888  27.476  1.00  0.00     0.210 HD
ENDBRANCH  24  34
BRANCH  30  36
HETATM   36  O6  UNL     1      17.001  22.071  31.552  1.00  0.00    -0.396 OA
ATOM     37  H6  UNL     1      17.450  21.356  31.116  1.00  0.00     0.210 HD
ENDBRANCH  30  36
ENDBRANCH  20  21
ENDBRANCH   1  20
TORSDOF 14
ENDMDL
MODEL 3
REMARK VINA RESULT: -9.315954814      2.620      5.397
REMARK  14 active torsions:
REMARK  status: ('A' for Active; 'I' for Inactive)
REMARK    1  A    between atoms: C2_2  and  C3_3 
REMARK    2  A    between atoms: C4_4  and  C5_5 
REMARK    3  A    between atoms: C5_5  and  C6_6 
REMARK    4  A    between atoms: C6_6  and  C8_8 
REMARK    5  A    between atoms: C9_10  and  C10_11 
REMARK    6  A    between atoms: C10_11  and  C11_12 
REMARK    7  A    between atoms: C11_12  and  C13_14 
REMARK    8  A    between atoms: C13_14  and  O2_15 
REMARK    9  A    between atoms: C14_17  and  C15_18 
REMARK   10  A    between atoms: C15_18  and  O3_20 
REMARK   11  A    between atoms: O3_20  and  C17_21 
REMARK   12  A    between atoms: C19_23  and  O4_24 
REMARK   13  A    between atoms: C20_26  and  O5_27 
REMARK   14  A    between atoms: C24_32  and  O6_33 
ROOT
HETATM    1  C15 UNL     1      14.542  15.898  31.279  1.00  0.00     0.143 C 
HETATM    2  C16 UNL     1      14.842  15.595  29.820  1.00  0.00     0.044 C 
ENDROOT
BRANCH   1   3
HETATM    3  C14 UNL     1      15.687  15.370  32.065  1.00  0.00     0.036 C 
HETATM    4  C13 UNL     1      15.752  15.482  33.389  1.00  0.00     0.046 C 
BRANCH   4   5
HETATM    5  C11 UNL     1      16.879  14.964  34.182  1.00  0.00     0.041 C 
HETATM    6  C12 UNL     1      17.630  13.835  33.556  1.00  0.00     0.017 C 
BRANCH   5   7
HETATM    7  C10 UNL     1      16.492  14.553  35.589  1.00  0.00     0.038 C 
BRANCH   7   8
HETATM    8  C9  UNL     1      15.511  13.466  35.649  1.00  0.00    -0.019 C 
HETATM    9  C2  UNL     1      14.767  13.093  36.658  1.00  0.00    -0.066 C 
HETATM   10  C1  UNL     1      13.809  11.945  36.529  1.00  0.00     0.048 C 
BRANCH   9  11
HETATM   11  C3  UNL     1      14.814  13.750  37.954  1.00  0.00     0.002 C 
HETATM   12  C4  UNL     1      14.090  13.293  38.970  1.00  0.00    -0.025 C 
BRANCH  12  13
HETATM   13  C5  UNL     1      14.167  13.991  40.272  1.00  0.00     0.038 C 
BRANCH  13  14
HETATM   14  C6  UNL     1      13.733  12.990  41.343  1.00  0.00     0.046 C 
HETATM   15  C7  UNL     1      14.942  12.576  42.128  1.00  0.00     0.017 C 
BRANCH  14  16
HETATM   16  C8  UNL     1      12.691  13.584  42.225  1.00  0.00     0.235 C 
HETATM   17  O1  UNL     1      12.313  14.707  41.942  1.00  0.00    -0.306 OA
ENDBRANCH  14  16
ENDBRANCH  13  14
ENDBRANCH  12  13
ENDBRANCH   9  11
ENDBRANCH   7   8
ENDBRANCH   5   7
ENDBRANCH   4   5
BRANCH   4  18
HETATM   18  O2  UNL     1      14.693  16.120  34.014  1.00  0.00    -0.365 OA
ATOM     19  H2  UNL     1      14.191  15.670  34.683  1.00  0.00     0.217 HD
ENDBRANCH   4  18
ENDBRANCH   1   3
BRANCH   1  20
HETATM   20  O3  UNL     1      14.498  17.267  31.517  1.00  0.00    -0.369 OA
BRANCH  20  21
HETATM   21  C17 UNL     1      14.372  18.029  30.371  1.00  0.00     0.195 C 
HETATM   22  C18 UNL     1      12.958  18.324  29.994  1.00  0.00     0.074 C 
HETATM   23  C19 UNL     1      13.011  19.148  28.700  1.00  0.00     0.150 C 
HETATM   24  C20 UNL     1      13.538  20.531  28.960  1.00  0.00     0.163 C 
HETATM   25  C21 UNL     1      14.506  20.588  30.113  1.00  0.00     0.054 C 
HETATM   26  C22 UNL     1      13.817  21.128  31.320  1.00  0.00     0.023 C 
HETATM   27  C25 UNL     1      15.596  21.563  29.742  1.00  0.00     0.051 C 
HETATM   28  C26 UNL     1      15.136  19.279  30.395  1.00  0.00     0.167 C 
HETATM   29  C23 UNL     1      14.629  22.282  31.847  1.00  0.00     0.033 C 
HETATM   30  C24 UNL     1      15.811  22.456  30.937  1.00  0.00     0.119 C 
HETATM   31  O7  UNL     1      16.347  19.200  30.664  1.00  0.00    -0.294 OA
BRANCH  23  32
HETATM   32  O4  UNL     1      11.724  19.144  28.169  1.00  0.00    -0.393 OA
ATOM     33  H4  UNL     1      11.520  18.242  27.956  1.00  0.00     0.210 HD
ENDBRANCH  23  32
BRANCH  24  34
HETATM   34  O5  UNL     1      14.080  21.019  27.772  1.00  0.00    -0.392 OA
ATOM     35  H5  UNL     1      14.815  21.579  27.991  1.00  0.00     0.210 HD
ENDBRANCH  24  34
BRANCH  30  36
HETATM   36  O6  UNL     1      17.018  22.123  31.533  1.00  0.00    -0.396 OA
ATOM     37  H6  UNL     1      17.246  21.206  31.436  1.00  0.00     0.210 HD
ENDBRANCH  30  36
ENDBRANCH  20  21
ENDBRANCH   1  20
TORSDOF 14
ENDMDL
MODEL 4
REMARK VINA RESULT: -9.303766370      2.677      5.295
REMARK  14 active torsions:
REMARK  status: ('A' for Active; 'I' for Inactive)
REMARK    1  A    between atoms: C2_2  and  C3_3 
REMARK    2  A    between atoms: C4_4  and  C5_5 
REMARK    3  A    between atoms: C5_5  and  C6_6 
REMARK    4  A    between atoms: C6_6  and  C8_8 
REMARK    5  A    between atoms: C9_10  and  C10_11 
REMARK    6  A    between atoms: C10_11  and  C11_12 
REMARK    7  A    between atoms: C11_12  and  C13_14 
REMARK    8  A    between atoms: C13_14  and  O2_15 
REMARK    9  A    between atoms: C14_17  and  C15_18 
REMARK   10  A    between atoms: C15_18  and  O3_20 
REMARK   11  A    between atoms: O3_20  and  C17_21 
REMARK   12  A    between atoms: C19_23  and  O4_24 
REMARK   13  A    between atoms: C20_26  and  O5_27 
REMARK   14  A    between atoms: C24_32  and  O6_33 
ROOT
HETATM    1  C15 UNL     1      14.809  16.208  31.295  1.00  0.00     0.143 C 
HETATM    2  C16 UNL     1      14.979  15.775  29.849  1.00  0.00     0.044 C 
ENDROOT
BRANCH   1   3
HETATM    3  C14 UNL     1      15.889  15.540  32.066  1.00  0.00     0.036 C 
HETATM    4  C13 UNL     1      15.941  15.579  33.395  1.00  0.00     0.046 C 
BRANCH   4   5
HETATM    5  C11 UNL     1      17.004  14.922  34.174  1.00  0.00     0.041 C 
HETATM    6  C12 UNL     1      17.620  13.726  33.525  1.00  0.00     0.017 C 
BRANCH   5   7
HETATM    7  C10 UNL     1      16.577  14.532  35.575  1.00  0.00     0.038 C 
BRANCH   7   8
HETATM    8  C9  UNL     1      15.584  13.455  35.623  1.00  0.00    -0.019 C 
HETATM    9  C2  UNL     1      14.815  13.099  36.619  1.00  0.00    -0.066 C 
HETATM   10  C1  UNL     1      13.849  11.958  36.478  1.00  0.00     0.048 C 
BRANCH   9  11
HETATM   11  C3  UNL     1      14.838  13.767  37.910  1.00  0.00     0.002 C 
HETATM   12  C4  UNL     1      14.112  13.308  38.922  1.00  0.00    -0.025 C 
BRANCH  12  13
HETATM   13  C5  UNL     1      14.165  14.018  40.218  1.00  0.00     0.038 C 
BRANCH  13  14
HETATM   14  C6  UNL     1      13.709  13.028  41.291  1.00  0.00     0.046 C 
HETATM   15  C7  UNL     1      14.906  12.604  42.089  1.00  0.00     0.017 C 
BRANCH  14  16
HETATM   16  C8  UNL     1      12.667  13.639  42.161  1.00  0.00     0.235 C 
HETATM   17  O1  UNL     1      12.304  14.764  41.867  1.00  0.00    -0.306 OA
ENDBRANCH  14  16
ENDBRANCH  13  14
ENDBRANCH  12  13
ENDBRANCH   9  11
ENDBRANCH   7   8
ENDBRANCH   5   7
ENDBRANCH   4   5
BRANCH   4  18
HETATM   18  O2  UNL     1      14.933  16.277  34.040  1.00  0.00    -0.365 OA
ATOM     19  H2  UNL     1      14.385  16.881  33.555  1.00  0.00     0.217 HD
ENDBRANCH   4  18
ENDBRANCH   1   3
BRANCH   1  20
HETATM   20  O3  UNL     1      15.005  17.576  31.445  1.00  0.00    -0.369 OA
BRANCH  20  21
HETATM   21  C17 UNL     1      13.903  18.338  31.107  1.00  0.00     0.195 C 
HETATM   22  C18 UNL     1      13.098  18.789  32.282  1.00  0.00     0.074 C 
HETATM   23  C19 UNL     1      11.915  19.591  31.720  1.00  0.00     0.150 C 
HETATM   24  C20 UNL     1      12.373  20.908  31.157  1.00  0.00     0.163 C 
HETATM   25  C21 UNL     1      13.777  20.863  30.616  1.00  0.00     0.054 C 
HETATM   26  C22 UNL     1      14.712  21.487  31.595  1.00  0.00     0.023 C 
HETATM   27  C25 UNL     1      13.807  21.705  29.363  1.00  0.00     0.051 C 
HETATM   28  C26 UNL     1      14.209  19.493  30.259  1.00  0.00     0.167 C 
HETATM   29  C23 UNL     1      15.507  22.546  30.875  1.00  0.00     0.033 C 
HETATM   30  C24 UNL     1      15.034  22.577  29.451  1.00  0.00     0.119 C 
HETATM   31  O7  UNL     1      14.852  19.278  29.218  1.00  0.00    -0.294 OA
BRANCH  23  32
HETATM   32  O4  UNL     1      10.997  19.730  32.758  1.00  0.00    -0.393 OA
ATOM     33  H4  UNL     1      11.213  20.539  33.206  1.00  0.00     0.210 HD
ENDBRANCH  23  32
BRANCH  24  34
HETATM   34  O5  UNL     1      11.438  21.321  30.209  1.00  0.00    -0.392 OA
ATOM     35  H5  UNL     1      11.842  21.988  29.667  1.00  0.00     0.210 HD
ENDBRANCH  24  34
BRANCH  30  36
HETATM   36  O6  UNL     1      15.978  22.113  28.547  1.00  0.00    -0.396 OA
ATOM     37  H6  UNL     1      16.074  21.168  28.554  1.00  0.00     0.210 HD
ENDBRANCH  30  36
ENDBRANCH  20  21
ENDBRANCH   1  20
TORSDOF 14
ENDMDL
MODEL 5
REMARK VINA RESULT: -9.302197153      2.872      5.409
REMARK  14 active torsions:
REMARK  status: ('A' for Active; 'I' for Inactive)
REMARK    1  A    between atoms: C2_2  and  C3_3 
REMARK    2  A    between atoms: C4_4  and  C5_5 
REMARK    3  A    between atoms: C5_5  and  C6_6 
REMARK    4  A    between atoms: C6_6  and  C8_8 
REMARK    5  A    between atoms: C9_10  and  C10_11 
REMARK    6  A    between atoms: C10_11  and  C11_12 
REMARK    7  A    between atoms: C11_12  and  C13_14 
REMARK    8  A    between atoms: C13_14  and  O2_15 
REMARK    9  A    between atoms: C14_17  and  C15_18 
REMARK   10  A    between atoms: C15_18  and  O3_20 
REMARK   11  A    between atoms: O3_20  and  C17_21 
REMARK   12  A    between atoms: C19_23  and  O4_24 
REMARK   13  A    between atoms: C20_26  and  O5_27 
REMARK   14  A    between atoms: C24_32  and  O6_33 
ROOT
HETATM    1  C15 UNL     1      14.529  15.837  31.360  1.00  0.00     0.143 C 
HETATM    2  C16 UNL     1      14.965  15.482  29.948  1.00  0.00     0.044 C 
ENDROOT
BRANCH   1   3
HETATM    3  C14 UNL     1      15.523  15.220  32.277  1.00  0.00     0.036 C 
HETATM    4  C13 UNL     1      15.455  15.363  33.598  1.00  0.00     0.046 C 
BRANCH   4   5
HETATM    5  C11 UNL     1      16.430  14.759  34.520  1.00  0.00     0.041 C 
HETATM    6  C12 UNL     1      17.053  13.488  34.042  1.00  0.00     0.017 C 
BRANCH   5   7
HETATM    7  C10 UNL     1      15.883  14.523  35.913  1.00  0.00     0.038 C 
BRANCH   7   8
HETATM    8  C9  UNL     1      15.097  13.293  36.050  1.00  0.00    -0.019 C 
HETATM    9  C2  UNL     1      14.478  12.835  37.107  1.00  0.00    -0.066 C 
HETATM   10  C1  UNL     1      13.715  11.542  37.054  1.00  0.00     0.048 C 
BRANCH   9  11
HETATM   11  C3  UNL     1      14.481  13.528  38.384  1.00  0.00     0.002 C 
HETATM   12  C4  UNL     1      14.056  12.920  39.485  1.00  0.00    -0.025 C 
BRANCH  12  13
HETATM   13  C5  UNL     1      14.076  13.662  40.764  1.00  0.00     0.038 C 
BRANCH  13  14
HETATM   14  C6  UNL     1      14.235  12.628  41.880  1.00  0.00     0.046 C 
HETATM   15  C7  UNL     1      13.152  12.849  42.893  1.00  0.00     0.017 C 
BRANCH  14  16
HETATM   16  C8  UNL     1      14.186  11.247  41.327  1.00  0.00     0.235 C 
HETATM   17  O1  UNL     1      14.854  10.405  41.902  1.00  0.00    -0.306 OA
ENDBRANCH  14  16
ENDBRANCH  13  14
ENDBRANCH  12  13
ENDBRANCH   9  11
ENDBRANCH   7   8
ENDBRANCH   5   7
ENDBRANCH   4   5
BRANCH   4  18
HETATM   18  O2  UNL     1      14.405  16.121  34.091  1.00  0.00    -0.365 OA
ATOM     19  H2  UNL     1      14.191  16.957  33.694  1.00  0.00     0.217 HD
ENDBRANCH   4  18
ENDBRANCH   1   3
BRANCH   1  20
HETATM   20  O3  UNL     1      14.585  17.208  31.582  1.00  0.00    -0.369 OA
BRANCH  20  21
HETATM   21  C17 UNL     1      14.422  17.965  30.438  1.00  0.00     0.195 C 
HETATM   22  C18 UNL     1      12.994  18.227  30.085  1.00  0.00     0.074 C 
HETATM   23  C19 UNL     1      13.006  19.051  28.790  1.00  0.00     0.150 C 
HETATM   24  C20 UNL     1      13.505  20.446  29.040  1.00  0.00     0.163 C 
HETATM   25  C21 UNL     1      14.491  20.527  30.176  1.00  0.00     0.054 C 
HETATM   26  C22 UNL     1      13.810  21.051  31.395  1.00  0.00     0.023 C 
HETATM   27  C25 UNL     1      15.551  21.527  29.786  1.00  0.00     0.051 C 
HETATM   28  C26 UNL     1      15.156  19.234  30.448  1.00  0.00     0.167 C 
HETATM   29  C23 UNL     1      14.604  22.225  31.907  1.00  0.00     0.033 C 
HETATM   30  C24 UNL     1      15.765  22.426  30.977  1.00  0.00     0.119 C 
HETATM   31  O7  UNL     1      16.373  19.182  30.696  1.00  0.00    -0.294 OA
BRANCH  23  32
HETATM   32  O4  UNL     1      11.711  19.016  28.281  1.00  0.00    -0.393 OA
ATOM     33  H4  UNL     1      11.668  19.676  27.600  1.00  0.00     0.210 HD
ENDBRANCH  23  32
BRANCH  24  34
HETATM   34  O5  UNL     1      14.015  20.945  27.842  1.00  0.00    -0.392 OA
ATOM     35  H5  UNL     1      14.619  21.648  28.049  1.00  0.00     0.210 HD
ENDBRANCH  24  34
BRANCH  30  36
HETATM   36  O6  UNL     1      16.990  22.121  31.552  1.00  0.00    -0.396 OA
ATOM     37  H6  UNL     1      16.922  21.836  32.455  1.00  0.00     0.210 HD
ENDBRANCH  30  36
ENDBRANCH  20  21
ENDBRANCH   1  20
TORSDOF 14
ENDMDL
