MODEL 1
REMARK VINA RESULT: -8.865438969      0.000      0.000
REMARK  13 active torsions:
REMARK  status: ('A' for Active; 'I' for Inactive)
REMARK    1  A    between atoms: O1_1  and  C1_3 
REMARK    2  A    between atoms: C1_3  and  C2_4 
REMARK    3  A    between atoms: C2_4  and  C3_5 
REMARK    4  A    between atoms: C3_5  and  C4_6 
REMARK    5  A    between atoms: C4_6  and  C5_7 
REMARK    6  A    between atoms: C5_7  and  C6_8 
REMARK    7  A    between atoms: C6_8  and  O2_9 
REMARK    8  A    between atoms: O2_9  and  C7_10 
REMARK    9  A    between atoms: C9_12  and  O3_13 
REMARK   10  A    between atoms: C12_18  and  O5_19 
REMARK   11  A    between atoms: N1_28  and  C20_29 
REMARK   12  A    between atoms: C20_29  and  C21_30 
REMARK   13  A    between atoms: C26_35  and  O6_36 
ROOT
HETATM    1  C7  UNL     1      14.094  18.450  31.245  1.00  0.00     0.155 C 
HETATM    2  C8  UNL     1      14.170  17.246  32.156  1.00  0.00     0.076 C 
HETATM    3  C9  UNL     1      15.610  16.834  32.137  1.00  0.00     0.103 C 
HETATM    4  C10 UNL     1      15.981  17.219  30.694  1.00  0.00     0.195 C 
HETATM    5  O4  UNL     1      17.298  17.000  30.366  1.00  0.00    -0.337 OA
HETATM    6  C11 UNL     1      18.027  16.054  31.082  1.00  0.00     0.110 A 
HETATM    7  C12 UNL     1      19.377  15.851  30.912  1.00  0.00     0.099 A 
HETATM    8  C13 UNL     1      20.018  14.886  31.676  1.00  0.00     0.040 A 
HETATM    9  C14 UNL     1      19.331  14.116  32.613  1.00  0.00     0.011 A 
HETATM   10  C15 UNL     1      17.978  14.335  32.769  1.00  0.00    -0.046 A 
HETATM   11  C16 UNL     1      17.388  15.281  32.007  1.00  0.00    -0.002 A 
HETATM   12  C17 UNL     1      15.926  15.410  32.276  1.00  0.00     0.057 C 
HETATM   13  C18 UNL     1      15.165  14.453  31.427  1.00  0.00     0.050 C 
HETATM   14  C19 UNL     1      14.181  13.783  32.371  1.00  0.00     0.274 C 
HETATM   15  N1  UNL     1      14.542  14.174  33.722  1.00  0.00     0.095 N 
HETATM   16  C24 UNL     1      15.834  14.789  33.645  1.00  0.00     0.243 C 
HETATM   17  C25 UNL     1      16.940  13.734  33.673  1.00  0.00     0.076 C 
HETATM   18  C26 UNL     1      15.536  18.665  30.731  1.00  0.00     0.179 C 
ENDROOT
BRANCH   1  19
HETATM   19  O2  UNL     1      13.615  19.596  31.829  1.00  0.00    -0.383 OA
BRANCH  19  20
HETATM   20  C6  UNL     1      12.596  20.077  30.989  1.00  0.00     0.168 C 
BRANCH  20  21
HETATM   21  C5  UNL     1      12.981  21.334  30.273  1.00  0.00     0.026 C 
BRANCH  21  22
HETATM   22  C4  UNL     1      14.047  22.061  31.035  1.00  0.00     0.002 C 
BRANCH  22  23
HETATM   23  C3  UNL     1      14.976  22.828  30.120  1.00  0.00     0.002 C 
BRANCH  23  24
HETATM   24  C2  UNL     1      14.597  22.572  28.659  1.00  0.00     0.026 C 
BRANCH  24  25
HETATM   25  C1  UNL     1      15.805  22.775  27.766  1.00  0.00     0.164 C 
BRANCH  25  26
HETATM   26  O1  UNL     1      15.959  24.090  27.374  1.00  0.00    -0.401 OA
ATOM     27  H1  UNL     1      16.613  24.550  27.886  1.00  0.00     0.209 HD
ENDBRANCH  25  26
ENDBRANCH  24  25
ENDBRANCH  23  24
ENDBRANCH  22  23
ENDBRANCH  21  22
ENDBRANCH  20  21
ENDBRANCH  19  20
ENDBRANCH   1  19
BRANCH  18  28
HETATM   28  O6  UNL     1      15.531  19.255  29.491  1.00  0.00    -0.390 OA
ATOM     29  H6  UNL     1      16.171  18.847  28.919  1.00  0.00     0.210 HD
ENDBRANCH  18  28
BRANCH   3  30
HETATM   30  O3  UNL     1      16.322  17.602  33.035  1.00  0.00    -0.386 OA
ATOM     31  H3  UNL     1      17.177  17.805  32.674  1.00  0.00     0.210 HD
ENDBRANCH   3  30
BRANCH  15  32
HETATM   32  C20 UNL     1      14.437  13.079  34.641  1.00  0.00     0.277 C 
BRANCH  32  33
HETATM   33  C21 UNL     1      14.098  13.491  36.033  1.00  0.00     0.014 A 
HETATM   34  C22 UNL     1      15.143  13.677  37.067  1.00  0.00     0.007 A 
HETATM   35  C23 UNL     1      14.333  12.432  37.108  1.00  0.00     0.007 A 
ENDBRANCH  32  33
ENDBRANCH  15  32
BRANCH   7  36
HETATM   36  O5  UNL     1      20.048  16.614  29.989  1.00  0.00    -0.358 OA
ATOM     37  H5  UNL     1      20.923  16.917  30.198  1.00  0.00     0.217 HD
ENDBRANCH   7  36
TORSDOF 13
ENDMDL
MODEL 2
REMARK VINA RESULT: -8.846822736      3.023      7.617
REMARK  13 active torsions:
REMARK  status: ('A' for Active; 'I' for Inactive)
REMARK    1  A    between atoms: O1_1  and  C1_3 
REMARK    2  A    between atoms: C1_3  and  C2_4 
REMARK    3  A    between atoms: C2_4  and  C3_5 
REMARK    4  A    between atoms: C3_5  and  C4_6 
REMARK    5  A    between atoms: C4_6  and  C5_7 
REMARK    6  A    between atoms: C5_7  and  C6_8 
REMARK    7  A    between atoms: C6_8  and  O2_9 
REMARK    8  A    between atoms: O2_9  and  C7_10 
REMARK    9  A    between atoms: C9_12  and  O3_13 
REMARK   10  A    between atoms: C12_18  and  O5_19 
REMARK   11  A    between atoms: N1_28  and  C20_29 
REMARK   12  A    between atoms: C20_29  and  C21_30 
REMARK   13  A    between atoms: C26_35  and  O6_36 
ROOT
HETATM    1  C7  UNL     1      13.875  13.467  34.151  1.00  0.00     0.155 C 
HETATM    2  C8  UNL     1      13.675  14.554  33.119  1.00  0.00     0.076 C 
HETATM    3  C9  UNL     1      15.018  14.740  32.484  1.00  0.00     0.103 C 
HETATM    4  C10 UNL     1      15.928  14.440  33.688  1.00  0.00     0.195 C 
HETATM    5  O4  UNL     1      17.274  14.485  33.410  1.00  0.00    -0.337 OA
HETATM    6  C11 UNL     1      17.719  15.236  32.325  1.00  0.00     0.110 A 
HETATM    7  C12 UNL     1      19.025  15.245  31.894  1.00  0.00     0.099 A 
HETATM    8  C13 UNL     1      19.371  16.024  30.799  1.00  0.00     0.040 A 
HETATM    9  C14 UNL     1      18.431  16.798  30.122  1.00  0.00     0.011 A 
HETATM   10  C15 UNL     1      17.126  16.776  30.570  1.00  0.00    -0.046 A 
HETATM   11  C16 UNL     1      16.827  16.008  31.639  1.00  0.00    -0.002 A 
HETATM   12  C17 UNL     1      15.384  16.080  32.016  1.00  0.00     0.057 C 
HETATM   13  C18 UNL     1      15.157  17.218  32.948  1.00  0.00     0.050 C 
HETATM   14  C19 UNL     1      13.936  17.938  32.401  1.00  0.00     0.274 C 
HETATM   15  N1  UNL     1      13.646  17.371  31.096  1.00  0.00     0.095 N 
HETATM   16  C24 UNL     1      14.780  16.576  30.728  1.00  0.00     0.243 C 
HETATM   17  C25 UNL     1      15.867  17.440  30.091  1.00  0.00     0.076 C 
HETATM   18  C26 UNL     1      15.369  13.083  34.054  1.00  0.00     0.179 C 
ENDROOT
BRANCH   1  19
HETATM   19  O2  UNL     1      13.081  12.358  33.994  1.00  0.00    -0.383 OA
BRANCH  19  20
HETATM   20  C6  UNL     1      12.148  12.382  35.045  1.00  0.00     0.168 C 
BRANCH  20  21
HETATM   21  C5  UNL     1      12.637  11.670  36.268  1.00  0.00     0.026 C 
BRANCH  21  22
HETATM   22  C4  UNL     1      12.591  12.583  37.455  1.00  0.00     0.002 C 
BRANCH  22  23
HETATM   23  C3  UNL     1      13.814  12.434  38.333  1.00  0.00     0.002 C 
BRANCH  23  24
HETATM   24  C2  UNL     1      14.495  13.793  38.514  1.00  0.00     0.026 C 
BRANCH  24  25
HETATM   25  C1  UNL     1      14.485  14.189  39.977  1.00  0.00     0.164 C 
BRANCH  25  26
HETATM   26  O1  UNL     1      15.539  15.017  40.309  1.00  0.00    -0.401 OA
ATOM     27  H1  UNL     1      15.773  14.959  41.227  1.00  0.00     0.209 HD
ENDBRANCH  25  26
ENDBRANCH  24  25
ENDBRANCH  23  24
ENDBRANCH  22  23
ENDBRANCH  21  22
ENDBRANCH  20  21
ENDBRANCH  19  20
ENDBRANCH   1  19
BRANCH  18  28
HETATM   28  O6  UNL     1      15.835  12.620  35.260  1.00  0.00    -0.390 OA
ATOM     29  H6  UNL     1      16.732  12.318  35.183  1.00  0.00     0.210 HD
ENDBRANCH  18  28
BRANCH   3  30
HETATM   30  O3  UNL     1      15.199  13.791  31.500  1.00  0.00    -0.386 OA
ATOM     31  H3  UNL     1      16.127  13.680  31.331  1.00  0.00     0.210 HD
ENDBRANCH   3  30
BRANCH  15  32
HETATM   32  C20 UNL     1      13.269  18.377  30.148  1.00  0.00     0.277 C 
BRANCH  32  33
HETATM   33  C21 UNL     1      13.061  19.725  30.749  1.00  0.00     0.014 A 
HETATM   34  C22 UNL     1      12.404  20.820  29.996  1.00  0.00     0.007 A 
HETATM   35  C23 UNL     1      13.883  20.855  30.131  1.00  0.00     0.007 A 
ENDBRANCH  32  33
ENDBRANCH  15  32
BRANCH   7  36
HETATM   36  O5  UNL     1      19.945  14.479  32.564  1.00  0.00    -0.358 OA
ATOM     37  H5  UNL     1      20.432  13.823  32.079  1.00  0.00     0.217 HD
ENDBRANCH   7  36
TORSDOF 13
ENDMDL
MODEL 3
REMARK VINA RESULT: -8.840362178      1.488      1.709
REMARK  13 active torsions:
REMARK  status: ('A' for Active; 'I' for Inactive)
REMARK    1  A    between atoms: O1_1  and  C1_3 
REMARK    2  A    between atoms: C1_3  and  C2_4 
REMARK    3  A    between atoms: C2_4  and  C3_5 
REMARK    4  A    between atoms: C3_5  and  C4_6 
REMARK    5  A    between atoms: C4_6  and  C5_7 
REMARK    6  A    between atoms: C5_7  and  C6_8 
REMARK    7  A    between atoms: C6_8  and  O2_9 
REMARK    8  A    between atoms: O2_9  and  C7_10 
REMARK    9  A    between atoms: C9_12  and  O3_13 
REMARK   10  A    between atoms: C12_18  and  O5_19 
REMARK   11  A    between atoms: N1_28  and  C20_29 
REMARK   12  A    between atoms: C20_29  and  C21_30 
REMARK   13  A    between atoms: C26_35  and  O6_36 
ROOT
HETATM    1  C7  UNL     1      13.957  17.797  31.688  1.00  0.00     0.155 C 
HETATM    2  C8  UNL     1      13.952  16.681  32.707  1.00  0.00     0.076 C 
HETATM    3  C9  UNL     1      15.380  16.242  32.812  1.00  0.00     0.103 C 
HETATM    4  C10 UNL     1      15.842  16.486  31.365  1.00  0.00     0.195 C 
HETATM    5  O4  UNL     1      17.171  16.214  31.137  1.00  0.00    -0.337 OA
HETATM    6  C11 UNL     1      17.835  15.324  31.977  1.00  0.00     0.110 A 
HETATM    7  C12 UNL     1      19.187  15.081  31.908  1.00  0.00     0.099 A 
HETATM    8  C13 UNL     1      19.759  14.178  32.793  1.00  0.00     0.040 A 
HETATM    9  C14 UNL     1      19.001  13.510  33.752  1.00  0.00     0.011 A 
HETATM   10  C15 UNL     1      17.647  13.767  33.806  1.00  0.00    -0.046 A 
HETATM   11  C16 UNL     1      17.125  14.650  32.929  1.00  0.00    -0.002 A 
HETATM   12  C17 UNL     1      15.653  14.830  33.097  1.00  0.00     0.057 C 
HETATM   13  C18 UNL     1      14.919  13.814  32.294  1.00  0.00     0.050 C 
HETATM   14  C19 UNL     1      13.867  13.252  33.235  1.00  0.00     0.274 C 
HETATM   15  N1  UNL     1      14.159  13.758  34.564  1.00  0.00     0.095 N 
HETATM   16  C24 UNL     1      15.467  14.339  34.509  1.00  0.00     0.243 C 
HETATM   17  C25 UNL     1      16.545  13.271  34.697  1.00  0.00     0.076 C 
HETATM   18  C26 UNL     1      15.431  17.937  31.244  1.00  0.00     0.179 C 
ENDROOT
BRANCH   1  19
HETATM   19  O2  UNL     1      13.472  19.000  32.137  1.00  0.00    -0.383 OA
BRANCH  19  20
HETATM   20  C6  UNL     1      12.544  19.441  31.178  1.00  0.00     0.168 C 
BRANCH  20  21
HETATM   21  C5  UNL     1      12.816  20.835  30.707  1.00  0.00     0.026 C 
BRANCH  21  22
HETATM   22  C4  UNL     1      13.993  21.410  31.436  1.00  0.00     0.002 C 
BRANCH  22  23
HETATM   23  C3  UNL     1      14.898  22.200  30.517  1.00  0.00     0.002 C 
BRANCH  23  24
HETATM   24  C2  UNL     1      16.239  22.463  31.207  1.00  0.00     0.026 C 
BRANCH  24  25
HETATM   25  C1  UNL     1      16.805  21.168  31.754  1.00  0.00     0.164 C 
BRANCH  25  26
HETATM   26  O1  UNL     1      18.097  21.309  32.220  1.00  0.00    -0.401 OA
ATOM     27  H1  UNL     1      18.184  21.058  33.132  1.00  0.00     0.209 HD
ENDBRANCH  25  26
ENDBRANCH  24  25
ENDBRANCH  23  24
ENDBRANCH  22  23
ENDBRANCH  21  22
ENDBRANCH  20  21
ENDBRANCH  19  20
ENDBRANCH   1  19
BRANCH  18  28
HETATM   28  O6  UNL     1      15.511  18.412  29.958  1.00  0.00    -0.390 OA
ATOM     29  H6  UNL     1      16.368  18.236  29.586  1.00  0.00     0.210 HD
ENDBRANCH  18  28
BRANCH   3  30
HETATM   30  O3  UNL     1      16.057  17.075  33.678  1.00  0.00    -0.386 OA
ATOM     31  H3  UNL     1      16.919  16.718  33.855  1.00  0.00     0.210 HD
ENDBRANCH   3  30
BRANCH  15  32
HETATM   32  C20 UNL     1      13.975  12.754  35.570  1.00  0.00     0.277 C 
BRANCH  32  33
HETATM   33  C21 UNL     1      13.600  13.300  36.905  1.00  0.00     0.014 A 
HETATM   34  C22 UNL     1      14.624  13.653  37.918  1.00  0.00     0.007 A 
HETATM   35  C23 UNL     1      13.877  12.381  38.094  1.00  0.00     0.007 A 
ENDBRANCH  32  33
ENDBRANCH  15  32
BRANCH   7  36
HETATM   36  O5  UNL     1      19.927  15.744  30.961  1.00  0.00    -0.358 OA
ATOM     37  H5  UNL     1      20.801  15.429  30.763  1.00  0.00     0.217 HD
ENDBRANCH   7  36
TORSDOF 13
ENDMDL
MODEL 4
REMARK VINA RESULT: -8.795004715      2.943      7.305
REMARK  13 active torsions:
REMARK  status: ('A' for Active; 'I' for Inactive)
REMARK    1  A    between atoms: O1_1  and  C1_3 
REMARK    2  A    between atoms: C1_3  and  C2_4 
REMARK    3  A    between atoms: C2_4  and  C3_5 
REMARK    4  A    between atoms: C3_5  and  C4_6 
REMARK    5  A    between atoms: C4_6  and  C5_7 
REMARK    6  A    between atoms: C5_7  and  C6_8 
REMARK    7  A    between atoms: C6_8  and  O2_9 
REMARK    8  A    between atoms: O2_9  and  C7_10 
REMARK    9  A    between atoms: C9_12  and  O3_13 
REMARK   10  A    between atoms: C12_18  and  O5_19 
REMARK   11  A    between atoms: N1_28  and  C20_29 
REMARK   12  A    between atoms: C20_29  and  C21_30 
REMARK   13  A    between atoms: C26_35  and  O6_36 
ROOT
HETATM    1  C7  UNL     1      14.084  13.619  33.968  1.00  0.00     0.155 C 
HETATM    2  C8  UNL     1      13.916  14.729  32.956  1.00  0.00     0.076 C 
HETATM    3  C9  UNL     1      15.264  14.884  32.321  1.00  0.00     0.103 C 
HETATM    4  C10 UNL     1      16.166  14.536  33.517  1.00  0.00     0.195 C 
HETATM    5  O4  UNL     1      17.513  14.543  33.236  1.00  0.00    -0.337 OA
HETATM    6  C11 UNL     1      17.979  15.298  32.164  1.00  0.00     0.110 A 
HETATM    7  C12 UNL     1      19.283  15.274  31.730  1.00  0.00     0.099 A 
HETATM    8  C13 UNL     1      19.652  16.061  30.648  1.00  0.00     0.040 A 
HETATM    9  C14 UNL     1      18.735  16.876  29.987  1.00  0.00     0.011 A 
HETATM   10  C15 UNL     1      17.431  16.887  30.437  1.00  0.00    -0.046 A 
HETATM   11  C16 UNL     1      17.110  16.110  31.493  1.00  0.00    -0.002 A 
HETATM   12  C17 UNL     1      15.671  16.220  31.875  1.00  0.00     0.057 C 
HETATM   13  C18 UNL     1      15.481  17.348  32.827  1.00  0.00     0.050 C 
HETATM   14  C19 UNL     1      14.282  18.116  32.296  1.00  0.00     0.274 C 
HETATM   15  N1  UNL     1      13.973  17.581  30.982  1.00  0.00     0.095 N 
HETATM   16  C24 UNL     1      15.080  16.757  30.597  1.00  0.00     0.243 C 
HETATM   17  C25 UNL     1      16.193  17.598  29.973  1.00  0.00     0.076 C 
HETATM   18  C26 UNL     1      15.566  13.190  33.861  1.00  0.00     0.179 C 
ENDROOT
BRANCH   1  19
HETATM   19  O2  UNL     1      13.256  12.538  33.793  1.00  0.00    -0.383 OA
BRANCH  19  20
HETATM   20  C6  UNL     1      11.959  13.052  33.622  1.00  0.00     0.168 C 
BRANCH  20  21
HETATM   21  C5  UNL     1      11.191  13.123  34.904  1.00  0.00     0.026 C 
BRANCH  21  22
HETATM   22  C4  UNL     1      11.762  12.168  35.907  1.00  0.00     0.002 C 
BRANCH  22  23
HETATM   23  C3  UNL     1      12.213  12.870  37.168  1.00  0.00     0.002 C 
BRANCH  23  24
HETATM   24  C2  UNL     1      13.631  12.425  37.534  1.00  0.00     0.026 C 
BRANCH  24  25
HETATM   25  C1  UNL     1      14.374  13.560  38.210  1.00  0.00     0.164 C 
BRANCH  25  26
HETATM   26  O1  UNL     1      15.293  14.164  37.374  1.00  0.00    -0.401 OA
ATOM     27  H1  UNL     1      15.766  13.537  36.840  1.00  0.00     0.209 HD
ENDBRANCH  25  26
ENDBRANCH  24  25
ENDBRANCH  23  24
ENDBRANCH  22  23
ENDBRANCH  21  22
ENDBRANCH  20  21
ENDBRANCH  19  20
ENDBRANCH   1  19
BRANCH  18  28
HETATM   28  O6  UNL     1      16.019  12.692  35.058  1.00  0.00    -0.390 OA
ATOM     29  H6  UNL     1      16.807  12.176  34.933  1.00  0.00     0.210 HD
ENDBRANCH  18  28
BRANCH   3  30
HETATM   30  O3  UNL     1      15.413  13.947  31.319  1.00  0.00    -0.386 OA
ATOM     31  H3  UNL     1      15.810  14.355  30.559  1.00  0.00     0.210 HD
ENDBRANCH   3  30
BRANCH  15  32
HETATM   32  C20 UNL     1      13.625  18.615  30.052  1.00  0.00     0.277 C 
BRANCH  32  33
HETATM   33  C21 UNL     1      13.289  19.917  30.695  1.00  0.00     0.014 A 
HETATM   34  C22 UNL     1      12.369  20.886  30.055  1.00  0.00     0.007 A 
HETATM   35  C23 UNL     1      13.828  21.159  29.988  1.00  0.00     0.007 A 
ENDBRANCH  32  33
ENDBRANCH  15  32
BRANCH   7  36
HETATM   36  O5  UNL     1      20.181  14.468  32.384  1.00  0.00    -0.358 OA
ATOM     37  H5  UNL     1      21.104  14.682  32.338  1.00  0.00     0.217 HD
ENDBRANCH   7  36
TORSDOF 13
ENDMDL
MODEL 5
REMARK VINA RESULT: -8.714335113      3.288      7.456
REMARK  13 active torsions:
REMARK  status: ('A' for Active; 'I' for Inactive)
REMARK    1  A    between atoms: O1_1  and  C1_3 
REMARK    2  A    between atoms: C1_3  and  C2_4 
REMARK    3  A    between atoms: C2_4  and  C3_5 
REMARK    4  A    between atoms: C3_5  and  C4_6 
REMARK    5  A    between atoms: C4_6  and  C5_7 
REMARK    6  A    between atoms: C5_7  and  C6_8 
REMARK    7  A    between atoms: C6_8  and  O2_9 
REMARK    8  A    between atoms: O2_9  and  C7_10 
REMARK    9  A    between atoms: C9_12  and  O3_13 
REMARK   10  A    between atoms: C12_18  and  O5_19 
REMARK   11  A    between atoms: N1_28  and  C20_29 
REMARK   12  A    between atoms: C20_29  and  C21_30 
REMARK   13  A    between atoms: C26_35  and  O6_36 
ROOT
HETATM    1  C7  UNL     1      13.887  13.471  34.113  1.00  0.00     0.155 C 
HETATM    2  C8  UNL     1      13.693  14.550  33.072  1.00  0.00     0.076 C 
HETATM    3  C9  UNL     1      15.042  14.737  32.449  1.00  0.00     0.103 C 
HETATM    4  C10 UNL     1      15.941  14.450  33.664  1.00  0.00     0.195 C 
HETATM    5  O4  UNL     1      17.290  14.498  33.398  1.00  0.00    -0.337 OA
HETATM    6  C11 UNL     1      17.742  15.243  32.313  1.00  0.00     0.110 A 
HETATM    7  C12 UNL     1      19.052  15.255  31.895  1.00  0.00     0.099 A 
HETATM    8  C13 UNL     1      19.406  16.028  30.798  1.00  0.00     0.040 A 
HETATM    9  C14 UNL     1      18.469  16.794  30.107  1.00  0.00     0.011 A 
HETATM   10  C15 UNL     1      17.160  16.769  30.542  1.00  0.00    -0.046 A 
HETATM   11  C16 UNL     1      16.853  16.007  31.613  1.00  0.00    -0.002 A 
HETATM   12  C17 UNL     1      15.407  16.075  31.975  1.00  0.00     0.057 C 
HETATM   13  C18 UNL     1      15.166  17.219  32.897  1.00  0.00     0.050 C 
HETATM   14  C19 UNL     1      13.947  17.930  32.334  1.00  0.00     0.274 C 
HETATM   15  N1  UNL     1      13.673  17.353  31.030  1.00  0.00     0.095 N 
HETATM   16  C24 UNL     1      14.813  16.560  30.678  1.00  0.00     0.243 C 
HETATM   17  C25 UNL     1      15.903  17.425  30.047  1.00  0.00     0.076 C 
HETATM   18  C26 UNL     1      15.384  13.092  34.034  1.00  0.00     0.179 C 
ENDROOT
BRANCH   1  19
HETATM   19  O2  UNL     1      13.100  12.358  33.956  1.00  0.00    -0.383 OA
BRANCH  19  20
HETATM   20  C6  UNL     1      12.365  12.216  35.146  1.00  0.00     0.168 C 
BRANCH  20  21
HETATM   21  C5  UNL     1      10.953  12.691  35.013  1.00  0.00     0.026 C 
BRANCH  21  22
HETATM   22  C4  UNL     1      10.376  12.252  33.702  1.00  0.00     0.002 C 
BRANCH  22  23
HETATM   23  C3  UNL     1       9.578  10.974  33.831  1.00  0.00     0.002 C 
BRANCH  23  24
HETATM   24  C2  UNL     1       9.405  10.325  32.455  1.00  0.00     0.026 C 
BRANCH  24  25
HETATM   25  C1  UNL     1      10.205  11.087  31.418  1.00  0.00     0.164 C 
BRANCH  25  26
HETATM   26  O1  UNL     1      10.511  10.316  30.314  1.00  0.00    -0.401 OA
ATOM     27  H1  UNL     1       9.902  10.447  29.598  1.00  0.00     0.209 HD
ENDBRANCH  25  26
ENDBRANCH  24  25
ENDBRANCH  23  24
ENDBRANCH  22  23
ENDBRANCH  21  22
ENDBRANCH  20  21
ENDBRANCH  19  20
ENDBRANCH   1  19
BRANCH  18  28
HETATM   28  O6  UNL     1      15.840  12.639  35.247  1.00  0.00    -0.390 OA
ATOM     29  H6  UNL     1      16.498  11.964  35.131  1.00  0.00     0.210 HD
ENDBRANCH  18  28
BRANCH   3  30
HETATM   30  O3  UNL     1      15.236  13.782  31.473  1.00  0.00    -0.386 OA
ATOM     31  H3  UNL     1      15.805  14.130  30.796  1.00  0.00     0.210 HD
ENDBRANCH   3  30
BRANCH  15  32
HETATM   32  C20 UNL     1      13.301  18.351  30.071  1.00  0.00     0.277 C 
BRANCH  32  33
HETATM   33  C21 UNL     1      13.204  19.726  30.638  1.00  0.00     0.014 A 
HETATM   34  C22 UNL     1      12.512  20.820  29.916  1.00  0.00     0.007 A 
HETATM   35  C23 UNL     1      13.997  20.801  29.898  1.00  0.00     0.007 A 
ENDBRANCH  32  33
ENDBRANCH  15  32
BRANCH   7  36
HETATM   36  O5  UNL     1      19.969  14.497  32.579  1.00  0.00    -0.358 OA
ATOM     37  H5  UNL     1      19.677  13.998  33.332  1.00  0.00     0.217 HD
ENDBRANCH   7  36
TORSDOF 13
ENDMDL
