MODEL 1
REMARK VINA RESULT: -5.793296009      0.000      0.000
REMARK  4 active torsions:
REMARK  status: ('A' for Active; 'I' for Inactive)
REMARK    1  A    between atoms: C2_2  and  N1_4 
REMARK    2  A    between atoms: C2_2  and  C4_8 
REMARK    3  A    between atoms: C4_8  and  N2_9 
REMARK    4  A    between atoms: C4_8  and  C7_17 
REMARK       I    between atoms: C5_11  and  N4_13 
REMARK       I    between atoms: C7_17  and  N6_19 
ROOT
HETATM    1  N2  UNL     1     106.828  36.199  82.518  1.00  0.00    -0.348 N 
ATOM      2  H2  UNL     1     106.756  35.735  83.423  1.00  0.00     0.163 HD
HETATM    3  C5  UNL     1     107.781  37.041  82.321  1.00  0.00     0.198 C 
HETATM    4  N3  UNL     1     108.696  37.290  83.381  1.00  0.00    -0.063 NA
HETATM    5  N4  UNL     1     107.967  37.738  81.103  1.00  0.00    -0.268 N 
ATOM      6  H4  UNL     1     107.566  38.671  81.004  1.00  0.00     0.180 HD
HETATM    7  C6  UNL     1     108.681  37.192  80.032  1.00  0.00     0.184 C 
HETATM    8  N5  UNL     1     109.273  36.736  79.143  1.00  0.00    -0.172 NA
ENDROOT
BRANCH   1   9
HETATM    9  C4  UNL     1     105.844  35.889  81.477  1.00  0.00     0.212 C 
BRANCH   9  10
HETATM   10  C2  UNL     1     104.656  35.322  82.191  1.00  0.00     0.145 C 
HETATM   11  C1  UNL     1     103.794  36.382  82.809  1.00  0.00     0.048 C 
HETATM   12  C3  UNL     1     105.028  34.202  83.094  1.00  0.00     0.048 C 
BRANCH  10  13
HETATM   13  N1  UNL     1     103.822  34.719  81.128  1.00  0.00    -0.069 N 
ATOM     14  H13 UNL     1     103.308  33.891  81.427  1.00  0.00     0.275 HD
ATOM     15  H12 UNL     1     103.008  35.279  80.875  1.00  0.00     0.275 HD
ATOM     16  H11 UNL     1     104.462  34.549  80.352  1.00  0.00     0.275 HD
ENDBRANCH  10  13
ENDBRANCH   9  10
BRANCH   9  17
HETATM   17  C7  UNL     1     106.406  35.070  80.422  1.00  0.00     0.255 C 
HETATM   18  O1  UNL     1     105.863  35.215  79.270  1.00  0.00    -0.270 OA
HETATM   19  N6  UNL     1     107.455  34.154  80.512  1.00  0.00    -0.262 N 
HETATM   20  C8  UNL     1     107.903  33.421  79.399  1.00  0.00     0.184 C 
ATOM     21  H6  UNL     1     107.912  34.012  81.413  1.00  0.00     0.181 HD
HETATM   22  N7  UNL     1     108.271  32.826  78.459  1.00  0.00    -0.172 NA
ENDBRANCH   9  17
ENDBRANCH   1   9
TORSDOF 4
ENDMDL
MODEL 2
REMARK VINA RESULT: -5.387955619      1.707      3.988
REMARK  4 active torsions:
REMARK  status: ('A' for Active; 'I' for Inactive)
REMARK    1  A    between atoms: C2_2  and  N1_4 
REMARK    2  A    between atoms: C2_2  and  C4_8 
REMARK    3  A    between atoms: C4_8  and  N2_9 
REMARK    4  A    between atoms: C4_8  and  C7_17 
REMARK       I    between atoms: C5_11  and  N4_13 
REMARK       I    between atoms: C7_17  and  N6_19 
ROOT
HETATM    1  N2  UNL     1     105.855  36.200  79.953  1.00  0.00    -0.348 N 
ATOM      2  H2  UNL     1     105.593  36.412  78.990  1.00  0.00     0.163 HD
HETATM    3  C5  UNL     1     105.022  36.456  80.900  1.00  0.00     0.198 C 
HETATM    4  N3  UNL     1     103.765  37.028  80.561  1.00  0.00    -0.063 NA
HETATM    5  N4  UNL     1     105.291  36.200  82.265  1.00  0.00    -0.268 N 
ATOM      6  H4  UNL     1     105.669  36.951  82.842  1.00  0.00     0.180 HD
HETATM    7  C6  UNL     1     105.056  34.951  82.851  1.00  0.00     0.184 C 
HETATM    8  N5  UNL     1     104.862  33.914  83.335  1.00  0.00    -0.172 NA
ENDROOT
BRANCH   1   9
HETATM    9  C4  UNL     1     107.171  35.611  80.219  1.00  0.00     0.212 C 
BRANCH   9  10
HETATM   10  C2  UNL     1     108.131  36.758  80.272  1.00  0.00     0.145 C 
HETATM   11  C1  UNL     1     109.213  36.653  79.238  1.00  0.00     0.048 C 
HETATM   12  C3  UNL     1     108.601  37.033  81.655  1.00  0.00     0.048 C 
BRANCH  10  13
HETATM   13  N1  UNL     1     107.335  37.941  79.877  1.00  0.00    -0.069 N 
ATOM     14  H13 UNL     1     107.856  38.624  79.326  1.00  0.00     0.275 HD
ATOM     15  H12 UNL     1     106.622  37.743  79.176  1.00  0.00     0.275 HD
ATOM     16  H11 UNL     1     106.963  38.314  80.750  1.00  0.00     0.275 HD
ENDBRANCH  10  13
ENDBRANCH   9  10
BRANCH   9  17
HETATM   17  C7  UNL     1     107.493  34.551  79.285  1.00  0.00     0.255 C 
HETATM   18  O1  UNL     1     106.821  34.564  78.194  1.00  0.00    -0.270 OA
HETATM   19  N6  UNL     1     108.434  33.531  79.431  1.00  0.00    -0.262 N 
HETATM   20  C8  UNL     1     108.643  32.561  78.437  1.00  0.00     0.184 C 
ATOM     21  H6  UNL     1     108.987  33.488  80.287  1.00  0.00     0.181 HD
HETATM   22  N7  UNL     1     108.814  31.766  77.592  1.00  0.00    -0.172 NA
ENDBRANCH   9  17
ENDBRANCH   1   9
TORSDOF 4
ENDMDL
MODEL 3
REMARK VINA RESULT: -5.148071597      1.822      4.002
REMARK  4 active torsions:
REMARK  status: ('A' for Active; 'I' for Inactive)
REMARK    1  A    between atoms: C2_2  and  N1_4 
REMARK    2  A    between atoms: C2_2  and  C4_8 
REMARK    3  A    between atoms: C4_8  and  N2_9 
REMARK    4  A    between atoms: C4_8  and  C7_17 
REMARK       I    between atoms: C5_11  and  N4_13 
REMARK       I    between atoms: C7_17  and  N6_19 
ROOT
HETATM    1  N2  UNL     1     105.362  36.289  80.656  1.00  0.00    -0.348 N 
ATOM      2  H2  UNL     1     105.302  36.256  79.638  1.00  0.00     0.163 HD
HETATM    3  C5  UNL     1     104.444  36.904  81.316  1.00  0.00     0.198 C 
HETATM    4  N3  UNL     1     103.381  37.513  80.594  1.00  0.00    -0.063 NA
HETATM    5  N4  UNL     1     104.436  37.008  82.728  1.00  0.00    -0.268 N 
ATOM      6  H4  UNL     1     104.843  37.837  83.163  1.00  0.00     0.180 HD
HETATM    7  C6  UNL     1     103.891  36.014  83.547  1.00  0.00     0.184 C 
HETATM    8  N5  UNL     1     103.439  35.187  84.225  1.00  0.00    -0.172 NA
ENDROOT
BRANCH   1   9
HETATM    9  C4  UNL     1     106.491  35.636  81.326  1.00  0.00     0.212 C 
BRANCH   9  10
HETATM   10  C2  UNL     1     107.463  36.728  81.649  1.00  0.00     0.145 C 
HETATM   11  C1  UNL     1     107.313  37.237  83.052  1.00  0.00     0.048 C 
HETATM   12  C3  UNL     1     107.499  37.777  80.596  1.00  0.00     0.048 C 
BRANCH  10  13
HETATM   13  N1  UNL     1     108.792  36.080  81.615  1.00  0.00    -0.069 N 
ATOM     14  H13 UNL     1     108.821  35.228  81.055  1.00  0.00     0.275 HD
ATOM     15  H12 UNL     1     109.490  36.597  81.080  1.00  0.00     0.275 HD
ATOM     16  H11 UNL     1     109.045  35.939  82.593  1.00  0.00     0.275 HD
ENDBRANCH  10  13
ENDBRANCH   9  10
BRANCH   9  17
HETATM   17  C7  UNL     1     107.012  34.525  80.556  1.00  0.00     0.255 C 
HETATM   18  O1  UNL     1     107.140  33.426  81.204  1.00  0.00    -0.270 OA
HETATM   19  N6  UNL     1     107.385  34.509  79.212  1.00  0.00    -0.262 N 
HETATM   20  C8  UNL     1     107.879  33.351  78.588  1.00  0.00     0.184 C 
ATOM     21  H6  UNL     1     107.297  35.366  78.664  1.00  0.00     0.181 HD
HETATM   22  N7  UNL     1     108.277  32.373  78.080  1.00  0.00    -0.172 NA
ENDBRANCH   9  17
ENDBRANCH   1   9
TORSDOF 4
ENDMDL
MODEL 4
REMARK VINA RESULT: -5.069593548      2.001      3.544
REMARK  4 active torsions:
REMARK  status: ('A' for Active; 'I' for Inactive)
REMARK    1  A    between atoms: C2_2  and  N1_4 
REMARK    2  A    between atoms: C2_2  and  C4_8 
REMARK    3  A    between atoms: C4_8  and  N2_9 
REMARK    4  A    between atoms: C4_8  and  C7_17 
REMARK       I    between atoms: C5_11  and  N4_13 
REMARK       I    between atoms: C7_17  and  N6_19 
ROOT
HETATM    1  N2  UNL     1     106.463  34.688  82.198  1.00  0.00    -0.348 N 
ATOM      2  H2  UNL     1     106.172  33.724  82.361  1.00  0.00     0.163 HD
HETATM    3  C5  UNL     1     107.601  34.912  81.641  1.00  0.00     0.198 C 
HETATM    4  N3  UNL     1     108.408  33.800  81.275  1.00  0.00    -0.063 NA
HETATM    5  N4  UNL     1     108.096  36.211  81.374  1.00  0.00    -0.268 N 
ATOM      6  H4  UNL     1     108.715  36.652  82.055  1.00  0.00     0.180 HD
HETATM    7  C6  UNL     1     107.767  36.910  80.208  1.00  0.00     0.184 C 
HETATM    8  N5  UNL     1     107.490  37.490  79.241  1.00  0.00    -0.172 NA
ENDROOT
BRANCH   1   9
HETATM    9  C4  UNL     1     105.573  35.780  82.606  1.00  0.00     0.212 C 
BRANCH   9  10
HETATM   10  C2  UNL     1     104.851  35.288  83.822  1.00  0.00     0.145 C 
HETATM   11  C1  UNL     1     104.533  33.825  83.752  1.00  0.00     0.048 C 
HETATM   12  C3  UNL     1     103.711  36.168  84.190  1.00  0.00     0.048 C 
BRANCH  10  13
HETATM   13  N1  UNL     1     105.829  35.417  84.925  1.00  0.00    -0.069 N 
ATOM     14  H13 UNL     1     105.805  36.323  85.394  1.00  0.00     0.275 HD
ATOM     15  H12 UNL     1     105.603  34.854  85.744  1.00  0.00     0.275 HD
ATOM     16  H11 UNL     1     106.732  35.193  84.507  1.00  0.00     0.275 HD
ENDBRANCH  10  13
ENDBRANCH   9  10
BRANCH   9  17
HETATM   17  C7  UNL     1     104.742  36.241  81.512  1.00  0.00     0.255 C 
HETATM   18  O1  UNL     1     104.581  35.401  80.557  1.00  0.00    -0.270 OA
HETATM   19  N6  UNL     1     104.104  37.475  81.378  1.00  0.00    -0.262 N 
HETATM   20  C8  UNL     1     103.322  37.792  80.255  1.00  0.00     0.184 C 
ATOM     21  H6  UNL     1     104.209  38.169  82.119  1.00  0.00     0.181 HD
HETATM   22  N7  UNL     1     102.663  38.036  79.316  1.00  0.00    -0.172 NA
ENDBRANCH   9  17
ENDBRANCH   1   9
TORSDOF 4
ENDMDL
MODEL 5
REMARK VINA RESULT: -4.587966644      7.846      9.445
REMARK  4 active torsions:
REMARK  status: ('A' for Active; 'I' for Inactive)
REMARK    1  A    between atoms: C2_2  and  N1_4 
REMARK    2  A    between atoms: C2_2  and  C4_8 
REMARK    3  A    between atoms: C4_8  and  N2_9 
REMARK    4  A    between atoms: C4_8  and  C7_17 
REMARK       I    between atoms: C5_11  and  N4_13 
REMARK       I    between atoms: C7_17  and  N6_19 
ROOT
HETATM    1  N2  UNL     1     112.585  29.848  75.384  1.00  0.00    -0.348 N 
ATOM      2  H2  UNL     1     112.660  28.838  75.261  1.00  0.00     0.163 HD
HETATM    3  C5  UNL     1     113.617  30.583  75.159  1.00  0.00     0.198 C 
HETATM    4  N3  UNL     1     114.823  29.952  74.748  1.00  0.00    -0.063 NA
HETATM    5  N4  UNL     1     113.617  31.991  75.302  1.00  0.00    -0.268 N 
ATOM      6  H4  UNL     1     113.931  32.397  76.185  1.00  0.00     0.180 HD
HETATM    7  C6  UNL     1     113.203  32.846  74.275  1.00  0.00     0.184 C 
HETATM    8  N5  UNL     1     112.856  33.554  73.423  1.00  0.00    -0.172 NA
ENDROOT
BRANCH   1   9
HETATM    9  C4  UNL     1     111.305  30.421  75.812  1.00  0.00     0.212 C 
BRANCH   9  10
HETATM   10  C2  UNL     1     111.096  29.953  77.218  1.00  0.00     0.145 C 
HETATM   11  C1  UNL     1     111.615  30.926  78.234  1.00  0.00     0.048 C 
HETATM   12  C3  UNL     1     111.531  28.544  77.410  1.00  0.00     0.048 C 
BRANCH  10  13
HETATM   13  N1  UNL     1     109.628  29.947  77.405  1.00  0.00    -0.069 N 
ATOM     14  H13 UNL     1     109.317  30.440  78.242  1.00  0.00     0.275 HD
ATOM     15  H12 UNL     1     109.125  30.526  76.733  1.00  0.00     0.275 HD
ATOM     16  H11 UNL     1     109.361  28.963  77.382  1.00  0.00     0.275 HD
ENDBRANCH  10  13
ENDBRANCH   9  10
BRANCH   9  17
HETATM   17  C7  UNL     1     110.239  30.131  74.875  1.00  0.00     0.255 C 
HETATM   18  O1  UNL     1     109.329  31.029  74.790  1.00  0.00    -0.270 OA
HETATM   19  N6  UNL     1     110.087  29.003  74.067  1.00  0.00    -0.262 N 
HETATM   20  C8  UNL     1     108.993  28.851  73.198  1.00  0.00     0.184 C 
ATOM     21  H6  UNL     1     110.792  28.267  74.108  1.00  0.00     0.181 HD
HETATM   22  N7  UNL     1     108.081  28.744  72.469  1.00  0.00    -0.172 NA
ENDBRANCH   9  17
ENDBRANCH   1   9
TORSDOF 4
ENDMDL
