MODEL 1
REMARK VINA RESULT: -6.900979372      0.000      0.000
REMARK  2 active torsions:
REMARK  status: ('A' for Active; 'I' for Inactive)
REMARK    1  A    between atoms: C2_2  and  N1_4 
REMARK       I    between atoms: N1_4  and  C4_6 
REMARK       I    between atoms: C4_6  and  N6_18 
REMARK    2  A    between atoms: N2_7  and  C5_9 
ROOT
HETATM    1  N1  UNL     1     107.965  33.987  80.671  1.00  0.00    -0.222 N 
ATOM      2  H1  UNL     1     108.785  33.596  81.136  1.00  0.00     0.178 HD
HETATM    3  C4  UNL     1     107.190  34.935  81.387  1.00  0.00     0.686 C 
HETATM    4  N2  UNL     1     105.908  34.902  81.438  1.00  0.00    -0.182 N 
ATOM      5  H2  UNL     1     105.457  34.143  80.927  1.00  0.00     0.181 HD
HETATM    6  N6  UNL     1     107.905  35.958  82.069  1.00  0.00    -0.126 N 
ATOM      7  H6  UNL     1     108.101  35.822  83.060  1.00  0.00     0.197 HD
HETATM    8  C8  UNL     1     108.350  37.127  81.477  1.00  0.00     0.196 C 
HETATM    9  N7  UNL     1     108.739  38.103  80.966  1.00  0.00    -0.171 NA
ENDROOT
BRANCH   1  10
HETATM   10  C2  UNL     1     107.677  33.539  79.343  1.00  0.00     0.091 C 
HETATM   11  C1  UNL     1     108.798  32.700  78.768  1.00  0.00     0.032 C 
HETATM   12  C3  UNL     1     107.411  34.660  78.372  1.00  0.00     0.032 C 
ENDBRANCH   1  10
BRANCH   4  13
HETATM   13  C5  UNL     1     105.051  35.792  82.117  1.00  0.00     0.213 C 
HETATM   14  C6  UNL     1     104.564  36.967  81.348  1.00  0.00     0.086 C 
HETATM   15  N3  UNL     1     105.783  36.323  83.279  1.00  0.00    -0.083 NA
HETATM   16  N4  UNL     1     105.545  35.427  84.307  1.00  0.00    -0.252 N 
HETATM   17  C7  UNL     1     104.408  34.616  83.987  1.00  0.00     0.334 C 
ATOM     18  H4  UNL     1     106.095  35.355  85.163  1.00  0.00     0.187 HD
HETATM   19  O1  UNL     1     103.943  33.663  84.679  1.00  0.00    -0.246 OA
HETATM   20  N5  UNL     1     103.928  35.110  82.739  1.00  0.00    -0.300 N 
ATOM     21  H5  UNL     1     102.987  35.006  82.360  1.00  0.00     0.168 HD
ENDBRANCH   4  13
TORSDOF 2
ENDMDL
MODEL 2
REMARK VINA RESULT: -6.449255662      1.735      2.317
REMARK  2 active torsions:
REMARK  status: ('A' for Active; 'I' for Inactive)
REMARK    1  A    between atoms: C2_2  and  N1_4 
REMARK       I    between atoms: N1_4  and  C4_6 
REMARK       I    between atoms: C4_6  and  N6_18 
REMARK    2  A    between atoms: N2_7  and  C5_9 
ROOT
HETATM    1  N1  UNL     1     108.092  33.990  80.614  1.00  0.00    -0.222 N 
ATOM      2  H1  UNL     1     108.991  33.624  80.926  1.00  0.00     0.178 HD
HETATM    3  C4  UNL     1     107.382  34.839  81.501  1.00  0.00     0.686 C 
HETATM    4  N2  UNL     1     106.125  34.721  81.734  1.00  0.00    -0.182 N 
ATOM      5  H2  UNL     1     105.645  33.969  81.240  1.00  0.00     0.181 HD
HETATM    6  N6  UNL     1     108.133  35.860  82.146  1.00  0.00    -0.126 N 
ATOM      7  H6  UNL     1     108.482  35.673  83.086  1.00  0.00     0.197 HD
HETATM    8  C8  UNL     1     108.423  37.090  81.583  1.00  0.00     0.196 C 
HETATM    9  N7  UNL     1     108.678  38.119  81.094  1.00  0.00    -0.171 NA
ENDROOT
BRANCH   1  10
HETATM   10  C2  UNL     1     107.635  33.611  79.313  1.00  0.00     0.091 C 
HETATM   11  C1  UNL     1     108.652  32.766  78.575  1.00  0.00     0.032 C 
HETATM   12  C3  UNL     1     107.295  34.782  78.427  1.00  0.00     0.032 C 
ENDBRANCH   1  10
BRANCH   4  13
HETATM   13  C5  UNL     1     105.331  35.509  82.592  1.00  0.00     0.213 C 
HETATM   14  C6  UNL     1     105.654  35.450  84.042  1.00  0.00     0.086 C 
HETATM   15  N3  UNL     1     103.936  35.058  82.453  1.00  0.00    -0.083 NA
HETATM   16  N4  UNL     1     103.410  35.800  81.409  1.00  0.00    -0.252 N 
HETATM   17  C7  UNL     1     104.237  36.944  81.166  1.00  0.00     0.334 C 
ATOM     18  H4  UNL     1     102.563  35.567  80.891  1.00  0.00     0.187 HD
HETATM   19  O1  UNL     1     104.080  37.808  80.252  1.00  0.00    -0.246 OA
HETATM   20  N5  UNL     1     105.257  36.894  82.159  1.00  0.00    -0.300 N 
ATOM     21  H5  UNL     1     105.821  37.674  82.498  1.00  0.00     0.168 HD
ENDBRANCH   4  13
TORSDOF 2
ENDMDL
MODEL 3
REMARK VINA RESULT: -6.312846642      1.924      2.176
REMARK  2 active torsions:
REMARK  status: ('A' for Active; 'I' for Inactive)
REMARK    1  A    between atoms: C2_2  and  N1_4 
REMARK       I    between atoms: N1_4  and  C4_6 
REMARK       I    between atoms: C4_6  and  N6_18 
REMARK    2  A    between atoms: N2_7  and  C5_9 
ROOT
HETATM    1  N1  UNL     1     108.668  34.441  79.354  1.00  0.00    -0.222 N 
ATOM      2  H1  UNL     1     109.686  34.440  79.419  1.00  0.00     0.178 HD
HETATM    3  C4  UNL     1     107.975  35.567  79.867  1.00  0.00     0.686 C 
HETATM    4  N2  UNL     1     106.931  35.473  80.607  1.00  0.00    -0.182 N 
ATOM      5  H2  UNL     1     106.611  34.528  80.816  1.00  0.00     0.181 HD
HETATM    6  N6  UNL     1     108.493  36.846  79.524  1.00  0.00    -0.126 N 
ATOM      7  H6  UNL     1     109.113  37.304  80.191  1.00  0.00     0.197 HD
HETATM    8  C8  UNL     1     108.210  37.512  78.344  1.00  0.00     0.196 C 
HETATM    9  N7  UNL     1     107.980  38.060  77.339  1.00  0.00    -0.171 NA
ENDROOT
BRANCH   1  10
HETATM   10  C2  UNL     1     108.040  33.307  78.750  1.00  0.00     0.091 C 
HETATM   11  C1  UNL     1     109.049  32.309  78.222  1.00  0.00     0.032 C 
HETATM   12  C3  UNL     1     107.119  33.661  77.611  1.00  0.00     0.032 C 
ENDBRANCH   1  10
BRANCH   4  13
HETATM   13  C5  UNL     1     106.174  36.524  81.165  1.00  0.00     0.213 C 
HETATM   14  C6  UNL     1     105.341  37.319  80.225  1.00  0.00     0.086 C 
HETATM   15  N3  UNL     1     107.112  37.467  81.798  1.00  0.00    -0.083 NA
HETATM   16  N4  UNL     1     107.284  37.005  83.091  1.00  0.00    -0.252 N 
HETATM   17  C7  UNL     1     106.226  36.099  83.425  1.00  0.00     0.334 C 
ATOM     18  H4  UNL     1     108.049  37.270  83.712  1.00  0.00     0.187 HD
HETATM   19  O1  UNL     1     106.099  35.454  84.508  1.00  0.00    -0.246 OA
HETATM   20  N5  UNL     1     105.365  36.085  82.290  1.00  0.00    -0.300 N 
ATOM     21  H5  UNL     1     104.380  35.821  82.271  1.00  0.00     0.168 HD
ENDBRANCH   4  13
TORSDOF 2
ENDMDL
MODEL 4
REMARK VINA RESULT: -5.811664124      2.062      2.659
REMARK  2 active torsions:
REMARK  status: ('A' for Active; 'I' for Inactive)
REMARK    1  A    between atoms: C2_2  and  N1_4 
REMARK       I    between atoms: N1_4  and  C4_6 
REMARK       I    between atoms: C4_6  and  N6_18 
REMARK    2  A    between atoms: N2_7  and  C5_9 
ROOT
HETATM    1  N1  UNL     1     108.962  34.094  78.960  1.00  0.00    -0.222 N 
ATOM      2  H1  UNL     1     109.944  34.043  78.687  1.00  0.00     0.178 HD
HETATM    3  C4  UNL     1     108.556  35.194  79.758  1.00  0.00     0.686 C 
HETATM    4  N2  UNL     1     107.804  35.075  80.791  1.00  0.00    -0.182 N 
ATOM      5  H2  UNL     1     107.502  34.129  81.021  1.00  0.00     0.181 HD
HETATM    6  N6  UNL     1     109.025  36.477  79.362  1.00  0.00    -0.126 N 
ATOM      7  H6  UNL     1     109.860  36.841  79.821  1.00  0.00     0.197 HD
HETATM    8  C8  UNL     1     108.425  37.265  78.396  1.00  0.00     0.196 C 
HETATM    9  N7  UNL     1     107.922  37.916  77.567  1.00  0.00    -0.171 NA
ENDROOT
BRANCH   1  10
HETATM   10  C2  UNL     1     108.092  33.051  78.512  1.00  0.00     0.091 C 
HETATM   11  C1  UNL     1     108.853  31.906  77.878  1.00  0.00     0.032 C 
HETATM   12  C3  UNL     1     107.060  33.511  77.515  1.00  0.00     0.032 C 
ENDBRANCH   1  10
BRANCH   4  13
HETATM   13  C5  UNL     1     107.346  36.099  81.645  1.00  0.00     0.213 C 
HETATM   14  C6  UNL     1     108.359  37.080  82.114  1.00  0.00     0.086 C 
HETATM   15  N3  UNL     1     106.787  35.463  82.850  1.00  0.00    -0.083 NA
HETATM   16  N4  UNL     1     105.457  35.218  82.555  1.00  0.00    -0.252 N 
HETATM   17  C7  UNL     1     105.058  36.012  81.431  1.00  0.00     0.334 C 
ATOM     18  H4  UNL     1     104.853  34.570  83.061  1.00  0.00     0.187 HD
HETATM   19  O1  UNL     1     103.925  35.999  80.863  1.00  0.00    -0.246 OA
HETATM   20  N5  UNL     1     106.196  36.801  81.099  1.00  0.00    -0.300 N 
ATOM     21  H5  UNL     1     106.203  37.681  80.583  1.00  0.00     0.168 HD
ENDBRANCH   4  13
TORSDOF 2
ENDMDL
MODEL 5
REMARK VINA RESULT: -5.761836404      2.486      5.080
REMARK  2 active torsions:
REMARK  status: ('A' for Active; 'I' for Inactive)
REMARK    1  A    between atoms: C2_2  and  N1_4 
REMARK       I    between atoms: N1_4  and  C4_6 
REMARK       I    between atoms: C4_6  and  N6_18 
REMARK    2  A    between atoms: N2_7  and  C5_9 
ROOT
HETATM    1  N1  UNL     1     104.432  34.404  82.349  1.00  0.00    -0.222 N 
ATOM      2  H1  UNL     1     103.627  33.847  82.066  1.00  0.00     0.178 HD
HETATM    3  C4  UNL     1     105.189  35.035  81.329  1.00  0.00     0.686 C 
HETATM    4  N2  UNL     1     106.472  35.020  81.292  1.00  0.00    -0.182 N 
ATOM      5  H2  UNL     1     106.938  34.521  82.049  1.00  0.00     0.181 HD
HETATM    6  N6  UNL     1     104.455  35.709  80.314  1.00  0.00    -0.126 N 
ATOM      7  H6  UNL     1     104.271  35.205  79.446  1.00  0.00     0.197 HD
HETATM    8  C8  UNL     1     103.975  37.002  80.424  1.00  0.00     0.196 C 
HETATM    9  N7  UNL     1     103.557  38.087  80.532  1.00  0.00    -0.171 NA
ENDROOT
BRANCH   1  10
HETATM   10  C2  UNL     1     104.720  34.495  83.747  1.00  0.00     0.091 C 
HETATM   11  C1  UNL     1     103.848  33.571  84.571  1.00  0.00     0.032 C 
HETATM   12  C3  UNL     1     104.558  35.885  84.309  1.00  0.00     0.032 C 
ENDBRANCH   1  10
BRANCH   4  13
HETATM   13  C5  UNL     1     107.313  35.613  80.328  1.00  0.00     0.213 C 
HETATM   14  C6  UNL     1     107.629  37.053  80.512  1.00  0.00     0.086 C 
HETATM   15  N3  UNL     1     106.650  35.492  79.018  1.00  0.00    -0.083 NA
HETATM   16  N4  UNL     1     107.054  34.269  78.510  1.00  0.00    -0.252 N 
HETATM   17  C7  UNL     1     108.219  33.818  79.211  1.00  0.00     0.334 C 
ATOM     18  H4  UNL     1     106.593  33.767  77.752  1.00  0.00     0.187 HD
HETATM   19  O1  UNL     1     108.823  32.717  79.039  1.00  0.00    -0.246 OA
HETATM   20  N5  UNL     1     108.540  34.860  80.127  1.00  0.00    -0.300 N 
ATOM     21  H5  UNL     1     109.448  35.041  80.556  1.00  0.00     0.168 HD
ENDBRANCH   4  13
TORSDOF 2
ENDMDL
