MODEL 1
REMARK VINA RESULT: -5.728853055      0.000      0.000
REMARK  2 active torsions:
REMARK  status: ('A' for Active; 'I' for Inactive)
REMARK       I    between atoms: C1_2  and  N1_3 
REMARK    1  A    between atoms: C1_2  and  C5_11 
REMARK    2  A    between atoms: N1_3  and  C2_5 
ROOT
HETATM    1  C5  UNL     1     107.307  34.361  80.267  1.00  0.00     0.212 C 
HETATM    2  C6  UNL     1     105.915  34.881  80.216  1.00  0.00     0.090 C 
HETATM    3  N3  UNL     1     105.083  34.875  81.339  1.00  0.00    -0.395 N 
ATOM      4  H3  UNL     1     104.682  33.985  81.637  1.00  0.00     0.159 HD
HETATM    5  C7  UNL     1     104.764  36.034  82.088  1.00  0.00     0.162 C 
HETATM    6  C8  UNL     1     105.660  36.407  83.237  1.00  0.00     0.075 C 
HETATM    7  N4  UNL     1     106.601  37.441  83.099  1.00  0.00    -0.396 N 
ATOM      8  H4  UNL     1     106.357  38.406  83.322  1.00  0.00     0.159 HD
HETATM    9  C9  UNL     1     107.964  37.088  82.621  1.00  0.00     0.162 C 
HETATM   10  C10 UNL     1     107.678  36.067  81.647  1.00  0.00     0.076 C 
HETATM   11  N5  UNL     1     108.352  35.329  80.714  1.00  0.00    -0.384 N 
ATOM     12  H5  UNL     1     109.320  35.417  80.405  1.00  0.00     0.159 HD
ENDROOT
BRANCH   1  13
HETATM   13  C1  UNL     1     107.778  33.769  78.994  1.00  0.00     0.247 C 
HETATM   14  O1  UNL     1     107.232  34.090  77.900  1.00  0.00    -0.271 OA
HETATM   15  N1  UNL     1     108.837  32.841  78.970  1.00  0.00    -0.331 N 
ATOM     16  H1  UNL     1     109.294  32.567  79.839  1.00  0.00     0.164 HD
BRANCH  15  17
HETATM   17  C2  UNL     1     109.272  32.280  77.724  1.00  0.00     0.288 C 
HETATM   18  C3  UNL     1     110.517  31.403  77.817  1.00  0.00     0.082 C 
HETATM   19  C4  UNL     1     109.802  30.605  76.738  1.00  0.00     0.238 C 
HETATM   20  N2  UNL     1     108.549  31.105  77.277  1.00  0.00    -0.054 N 
ATOM     21  H22 UNL     1     108.000  30.547  77.931  1.00  0.00     0.279 HD
ATOM     22  H21 UNL     1     107.722  31.192  76.686  1.00  0.00     0.279 HD
ENDBRANCH  15  17
ENDBRANCH   1  13
TORSDOF 2
ENDMDL
MODEL 2
REMARK VINA RESULT: -5.491751155      1.066      1.894
REMARK  2 active torsions:
REMARK  status: ('A' for Active; 'I' for Inactive)
REMARK       I    between atoms: C1_2  and  N1_3 
REMARK    1  A    between atoms: C1_2  and  C5_11 
REMARK    2  A    between atoms: N1_3  and  C2_5 
ROOT
HETATM    1  C5  UNL     1     107.193  35.018  79.716  1.00  0.00     0.212 C 
HETATM    2  C6  UNL     1     108.279  35.747  80.423  1.00  0.00     0.090 C 
HETATM    3  N3  UNL     1     108.073  37.005  80.998  1.00  0.00    -0.395 N 
ATOM      4  H3  UNL     1     108.008  37.812  80.378  1.00  0.00     0.159 HD
HETATM    5  C7  UNL     1     107.948  37.221  82.391  1.00  0.00     0.162 C 
HETATM    6  C8  UNL     1     106.575  37.148  83.003  1.00  0.00     0.075 C 
HETATM    7  N4  UNL     1     106.173  36.006  83.715  1.00  0.00    -0.396 N 
ATOM      8  H4  UNL     1     106.335  35.929  84.719  1.00  0.00     0.159 HD
HETATM    9  C9  UNL     1     105.503  34.912  82.963  1.00  0.00     0.162 C 
HETATM   10  C10 UNL     1     106.229  34.924  81.719  1.00  0.00     0.076 C 
HETATM   11  N5  UNL     1     106.298  34.184  80.571  1.00  0.00    -0.384 N 
ATOM     12  H5  UNL     1     105.853  33.292  80.356  1.00  0.00     0.159 HD
ENDROOT
BRANCH   1  13
HETATM   13  C1  UNL     1     107.665  34.156  78.609  1.00  0.00     0.247 C 
HETATM   14  O1  UNL     1     107.124  34.229  77.468  1.00  0.00    -0.271 OA
HETATM   15  N1  UNL     1     108.719  33.241  78.795  1.00  0.00    -0.331 N 
ATOM     16  H1  UNL     1     109.172  33.165  79.706  1.00  0.00     0.164 HD
BRANCH  15  17
HETATM   17  C2  UNL     1     109.156  32.417  77.707  1.00  0.00     0.288 C 
HETATM   18  C3  UNL     1     110.327  31.495  78.032  1.00  0.00     0.082 C 
HETATM   19  C4  UNL     1     109.593  30.547  77.095  1.00  0.00     0.238 C 
HETATM   20  N2  UNL     1     108.362  31.227  77.462  1.00  0.00    -0.054 N 
ATOM     21  H22 UNL     1     107.750  30.848  78.184  1.00  0.00     0.279 HD
ATOM     22  H21 UNL     1     107.566  31.250  76.825  1.00  0.00     0.279 HD
ENDBRANCH  15  17
ENDBRANCH   1  13
TORSDOF 2
ENDMDL
MODEL 3
REMARK VINA RESULT: -5.107443243      1.532      1.829
REMARK  2 active torsions:
REMARK  status: ('A' for Active; 'I' for Inactive)
REMARK       I    between atoms: C1_2  and  N1_3 
REMARK    1  A    between atoms: C1_2  and  C5_11 
REMARK    2  A    between atoms: N1_3  and  C2_5 
ROOT
HETATM    1  C5  UNL     1     108.271  33.850  79.373  1.00  0.00     0.212 C 
HETATM    2  C6  UNL     1     106.965  34.072  80.049  1.00  0.00     0.090 C 
HETATM    3  N3  UNL     1     106.882  34.417  81.401  1.00  0.00    -0.395 N 
ATOM      4  H3  UNL     1     107.057  33.690  82.095  1.00  0.00     0.159 HD
HETATM    5  C7  UNL     1     106.570  35.719  81.863  1.00  0.00     0.162 C 
HETATM    6  C8  UNL     1     107.702  36.684  82.087  1.00  0.00     0.075 C 
HETATM    7  N4  UNL     1     107.974  37.693  81.148  1.00  0.00    -0.396 N 
ATOM      8  H4  UNL     1     107.530  38.609  81.218  1.00  0.00     0.159 HD
HETATM    9  C9  UNL     1     108.928  37.389  80.049  1.00  0.00     0.162 C 
HETATM   10  C10 UNL     1     108.604  36.018  79.751  1.00  0.00     0.076 C 
HETATM   11  N5  UNL     1     108.942  35.068  78.828  1.00  0.00    -0.384 N 
ATOM     12  H5  UNL     1     109.507  35.165  77.984  1.00  0.00     0.159 HD
ENDROOT
BRANCH   1  13
HETATM   13  C1  UNL     1     108.224  32.852  78.281  1.00  0.00     0.247 C 
HETATM   14  O1  UNL     1     107.348  32.939  77.374  1.00  0.00    -0.271 OA
HETATM   15  N1  UNL     1     109.147  31.790  78.224  1.00  0.00    -0.331 N 
ATOM     16  H1  UNL     1     109.864  31.700  78.944  1.00  0.00     0.164 HD
BRANCH  15  17
HETATM   17  C2  UNL     1     109.079  30.835  77.157  1.00  0.00     0.288 C 
HETATM   18  C3  UNL     1     110.360  30.697  76.339  1.00  0.00     0.082 C 
HETATM   19  C4  UNL     1     109.941  29.235  76.286  1.00  0.00     0.238 C 
HETATM   20  N2  UNL     1     109.244  29.447  77.544  1.00  0.00    -0.054 N 
ATOM     21  H22 UNL     1     109.680  29.199  78.432  1.00  0.00     0.279 HD
ATOM     22  H21 UNL     1     108.440  28.875  77.800  1.00  0.00     0.279 HD
ENDBRANCH  15  17
ENDBRANCH   1  13
TORSDOF 2
ENDMDL
MODEL 4
REMARK VINA RESULT: -5.014378714      1.359      1.479
REMARK  2 active torsions:
REMARK  status: ('A' for Active; 'I' for Inactive)
REMARK       I    between atoms: C1_2  and  N1_3 
REMARK    1  A    between atoms: C1_2  and  C5_11 
REMARK    2  A    between atoms: N1_3  and  C2_5 
ROOT
HETATM    1  C5  UNL     1     106.266  34.768  80.345  1.00  0.00     0.212 C 
HETATM    2  C6  UNL     1     105.505  36.020  80.091  1.00  0.00     0.090 C 
HETATM    3  N3  UNL     1     104.207  36.207  80.574  1.00  0.00    -0.395 N 
ATOM      4  H3  UNL     1     103.444  35.713  80.109  1.00  0.00     0.159 HD
HETATM    5  C7  UNL     1     103.889  37.042  81.672  1.00  0.00     0.162 C 
HETATM    6  C8  UNL     1     103.898  36.440  83.050  1.00  0.00     0.075 C 
HETATM    7  N4  UNL     1     104.980  36.662  83.918  1.00  0.00    -0.396 N 
ATOM      8  H4  UNL     1     104.987  37.459  84.555  1.00  0.00     0.159 HD
HETATM    9  C9  UNL     1     106.115  35.702  83.883  1.00  0.00     0.162 C 
HETATM   10  C10 UNL     1     106.203  35.404  82.477  1.00  0.00     0.076 C 
HETATM   11  N5  UNL     1     107.024  34.711  81.630  1.00  0.00    -0.384 N 
ATOM     12  H5  UNL     1     107.922  34.270  81.827  1.00  0.00     0.159 HD
ENDROOT
BRANCH   1  13
HETATM   13  C1  UNL     1     107.212  34.406  79.266  1.00  0.00     0.247 C 
HETATM   14  O1  UNL     1     107.444  35.214  78.322  1.00  0.00    -0.271 OA
HETATM   15  N1  UNL     1     107.871  33.161  79.262  1.00  0.00    -0.331 N 
ATOM     16  H1  UNL     1     107.702  32.493  80.013  1.00  0.00     0.164 HD
BRANCH  15  17
HETATM   17  C2  UNL     1     108.781  32.834  78.203  1.00  0.00     0.288 C 
HETATM   18  C3  UNL     1     110.056  32.125  78.651  1.00  0.00     0.082 C 
HETATM   19  C4  UNL     1     109.882  31.389  77.330  1.00  0.00     0.238 C 
HETATM   20  N2  UNL     1     108.456  31.644  77.441  1.00  0.00    -0.054 N 
ATOM     21  H22 UNL     1     107.825  30.936  77.818  1.00  0.00     0.279 HD
ATOM     22  H21 UNL     1     107.867  31.698  76.610  1.00  0.00     0.279 HD
ENDBRANCH  15  17
ENDBRANCH   1  13
TORSDOF 2
ENDMDL
MODEL 5
REMARK VINA RESULT: -4.921321933      1.634      2.396
REMARK  2 active torsions:
REMARK  status: ('A' for Active; 'I' for Inactive)
REMARK       I    between atoms: C1_2  and  N1_3 
REMARK    1  A    between atoms: C1_2  and  C5_11 
REMARK    2  A    between atoms: N1_3  and  C2_5 
ROOT
HETATM    1  C5  UNL     1     107.812  33.946  78.750  1.00  0.00     0.212 C 
HETATM    2  C6  UNL     1     108.744  35.103  78.813  1.00  0.00     0.090 C 
HETATM    3  N3  UNL     1     108.283  36.420  78.889  1.00  0.00    -0.395 N 
ATOM      4  H3  UNL     1     107.899  36.845  78.045  1.00  0.00     0.159 HD
HETATM    5  C7  UNL     1     108.318  37.199  80.071  1.00  0.00     0.162 C 
HETATM    6  C8  UNL     1     107.133  37.143  80.996  1.00  0.00     0.075 C 
HETATM    7  N4  UNL     1     107.183  36.376  82.172  1.00  0.00    -0.396 N 
ATOM      8  H4  UNL     1     107.512  36.780  83.049  1.00  0.00     0.159 HD
HETATM    9  C9  UNL     1     106.741  34.958  82.103  1.00  0.00     0.162 C 
HETATM   10  C10 UNL     1     107.234  34.560  80.810  1.00  0.00     0.076 C 
HETATM   11  N5  UNL     1     107.331  33.419  80.062  1.00  0.00    -0.384 N 
ATOM     12  H5  UNL     1     107.127  32.457  80.331  1.00  0.00     0.159 HD
ENDROOT
BRANCH   1  13
HETATM   13  C1  UNL     1     108.331  32.793  77.981  1.00  0.00     0.247 C 
HETATM   14  O1  UNL     1     107.619  32.246  77.091  1.00  0.00    -0.271 OA
HETATM   15  N1  UNL     1     109.621  32.279  78.219  1.00  0.00    -0.331 N 
ATOM     16  H1  UNL     1     110.214  32.703  78.931  1.00  0.00     0.164 HD
BRANCH  15  17
HETATM   17  C2  UNL     1     110.099  31.159  77.461  1.00  0.00     0.288 C 
HETATM   18  C3  UNL     1     111.463  30.630  77.893  1.00  0.00     0.082 C 
HETATM   19  C4  UNL     1     110.844  29.288  77.530  1.00  0.00     0.238 C 
HETATM   20  N2  UNL     1     109.546  29.870  77.829  1.00  0.00    -0.054 N 
ATOM     21  H22 UNL     1     109.106  29.728  78.738  1.00  0.00     0.279 HD
ATOM     22  H21 UNL     1     108.699  29.517  77.385  1.00  0.00     0.279 HD
ENDBRANCH  15  17
ENDBRANCH   1  13
TORSDOF 2
ENDMDL
