MODEL 1
REMARK VINA RESULT: -8.691187945      0.000      0.000
REMARK  15 active torsions:
REMARK  status: ('A' for Active; 'I' for Inactive)
REMARK    1  A    between atoms: C3_3  and  C4_7 
REMARK    2  A    between atoms: C4_7  and  O1_8 
REMARK    3  A    between atoms: O1_8  and  N2_9 
REMARK    4  A    between atoms: C5_11  and  S1_12 
REMARK    5  A    between atoms: C5_11  and  C25_53 
REMARK    6  A    between atoms: S1_12  and  S2_13 
REMARK    7  A    between atoms: S2_13  and  C6_14 
REMARK    8  A    between atoms: C8_19  and  N4_20 
REMARK    9  A    between atoms: C12_28  and  C13_29 
REMARK   10  A    between atoms: C14_30  and  C15_31 
REMARK   11  A    between atoms: C17_37  and  C18_38 
REMARK   12  A    between atoms: C18_38  and  O6_40 
REMARK   13  A    between atoms: C24_50  and  O7_51 
REMARK   14  A    between atoms: C25_53  and  O8_54 
REMARK   15  A    between atoms: C25_53  and  N10_56 
ROOT
HETATM    1  C1  UNL     1      53.116  27.277  -0.961  1.00  0.00     0.019 C 
HETATM    2  C2  UNL     1      53.555  27.475  -2.070  1.00  0.00    -0.062 C 
HETATM    3  C3  UNL     1      54.067  27.718  -3.385  1.00  0.00     0.082 C 
HETATM    4  N1  UNL     1      55.131  27.094  -3.745  1.00  0.00    -0.394 N 
ATOM      5  H11 UNL     1      55.497  27.267  -4.681  1.00  0.00     0.156 HD
ATOM      6  H12 UNL     1      55.619  26.438  -3.135  1.00  0.00     0.156 HD
ENDROOT
BRANCH   3   7
HETATM    7  C4  UNL     1      53.358  28.670  -4.270  1.00  0.00     0.267 C 
BRANCH   7   8
HETATM    8  O1  UNL     1      54.299  29.425  -5.006  1.00  0.00    -0.273 OA
BRANCH   8   9
HETATM    9  N2  UNL     1      54.293  29.545  -6.354  1.00  0.00    -0.259 N 
HETATM   10  C5  UNL     1      55.326  29.827  -7.069  1.00  0.00     0.135 C 
ATOM     11  H2  UNL     1      53.406  29.401  -6.838  1.00  0.00     0.195 HD
BRANCH  10  12
HETATM   12  S1  UNL     1      55.143  29.946  -8.817  1.00  0.00    -0.037 SA
BRANCH  12  13
HETATM   13  S2  UNL     1      53.460  28.831  -9.442  1.00  0.00    -0.082 SA
BRANCH  13  14
HETATM   14  C6  UNL     1      52.506  29.821 -10.615  1.00  0.00     0.117 C 
HETATM   15  C7  UNL     1      51.317  28.983 -11.026  1.00  0.00     0.253 C 
HETATM   16  N3  UNL     1      50.143  29.773 -10.862  1.00  0.00    -0.050 N 
HETATM   17  C8  UNL     1      50.446  30.850  -9.951  1.00  0.00     0.326 C 
ATOM     18  H32 UNL     1      49.766  30.105 -11.750  1.00  0.00     0.279 HD
ATOM     19  H31 UNL     1      49.338  29.223 -10.566  1.00  0.00     0.279 HD
HETATM   20  C24 UNL     1      51.921  30.997  -9.866  1.00  0.00     0.185 C 
BRANCH  17  21
HETATM   21  N4  UNL     1      49.744  32.075 -10.291  1.00  0.00    -0.249 N 
HETATM   22  C9  UNL     1      48.913  32.347 -11.285  1.00  0.00     0.333 A 
HETATM   23  O2  UNL     1      48.562  31.520 -12.181  1.00  0.00    -0.246 OA
HETATM   24  N5  UNL     1      48.476  33.637 -11.228  1.00  0.00    -0.286 N 
HETATM   25  C10 UNL     1      47.559  34.270 -12.157  1.00  0.00     0.163 C 
HETATM   26  C11 UNL     1      49.056  34.205 -10.151  1.00  0.00     0.157 A 
HETATM   27  N6  UNL     1      49.011  35.426  -9.593  1.00  0.00    -0.336 N 
HETATM   28  C23 UNL     1      49.841  33.233  -9.572  1.00  0.00     0.159 A 
HETATM   29  C12 UNL     1      49.701  35.735  -8.496  1.00  0.00     0.085 A 
ATOM     30  H6  UNL     1      48.428  36.142 -10.026  1.00  0.00     0.168 HD
HETATM   31  C21 UNL     1      50.498  34.784  -7.892  1.00  0.00     0.036 A 
HETATM   32  C22 UNL     1      51.287  35.064  -6.664  1.00  0.00     0.070 C 
HETATM   33  N9  UNL     1      50.533  33.557  -8.467  1.00  0.00    -0.341 N 
ATOM     34  H9  UNL     1      51.117  32.839  -8.036  1.00  0.00     0.167 HD
BRANCH  29  35
HETATM   35  C13 UNL     1      49.611  37.082  -7.918  1.00  0.00     0.093 C 
HETATM   36  C14 UNL     1      50.417  38.122  -8.043  1.00  0.00     0.145 C 
HETATM   37  N7  UNL     1      49.917  39.223  -7.286  1.00  0.00    -0.286 N 
HETATM   38  C16 UNL     1      49.546  40.443  -6.694  1.00  0.00     0.236 C 
HETATM   39  C20 UNL     1      49.090  38.577  -6.236  1.00  0.00     0.208 C 
HETATM   40  O5  UNL     1      50.052  41.583  -6.644  1.00  0.00    -0.272 OA
HETATM   41  C17 UNL     1      48.274  39.843  -6.129  1.00  0.00     0.149 C 
HETATM   42  N8  UNL     1      48.540  37.515  -7.042  1.00  0.00    -0.363 N 
ATOM     43  H8  UNL     1      47.591  37.143  -7.004  1.00  0.00     0.162 HD
BRANCH  36  44
HETATM   44  C15 UNL     1      51.642  38.224  -8.809  1.00  0.00     0.229 C 
HETATM   45  O3  UNL     1      52.194  39.307  -9.060  1.00  0.00    -0.643 OA
HETATM   46  O4  UNL     1      52.280  37.075  -9.320  1.00  0.00    -0.643 OA
ENDBRANCH  36  44
BRANCH  41  47
HETATM   47  C18 UNL     1      47.963  40.320  -4.749  1.00  0.00     0.131 C 
HETATM   48  C19 UNL     1      47.274  41.656  -4.747  1.00  0.00     0.040 C 
BRANCH  47  49
HETATM   49  O6  UNL     1      47.086  39.394  -4.162  1.00  0.00    -0.395 OA
ATOM     50  H6  UNL     1      47.328  38.528  -4.469  1.00  0.00     0.210 HD
ENDBRANCH  47  49
ENDBRANCH  41  47
ENDBRANCH  29  35
ENDBRANCH  17  21
BRANCH  20  51
HETATM   51  O7  UNL     1      52.366  31.023  -8.533  1.00  0.00    -0.390 OA
ATOM     52  H7  UNL     1      52.232  31.879  -8.143  1.00  0.00     0.210 HD
ENDBRANCH  20  51
ENDBRANCH  13  14
ENDBRANCH  12  13
ENDBRANCH  10  12
BRANCH  10  53
HETATM   53  C25 UNL     1      56.615  30.039  -6.398  1.00  0.00     0.378 C 
BRANCH  53  54
HETATM   54  O8  UNL     1      57.442  30.884  -7.175  1.00  0.00    -0.365 OA
ATOM     55  H8  UNL     1      57.845  31.548  -6.627  1.00  0.00     0.212 HD
ENDBRANCH  53  54
BRANCH  53  56
HETATM   56  N10 UNL     1      57.354  28.865  -6.077  1.00  0.00    -0.047 N 
HETATM   57  C26 UNL     1      57.039  27.746  -6.950  1.00  0.00     0.270 C 
ATOM     58 2H10 UNL     1      58.356  29.055  -6.071  1.00  0.00     0.280 HD
ATOM     59 1H10 UNL     1      57.228  28.611  -5.097  1.00  0.00     0.280 HD
ENDBRANCH  53  56
ENDBRANCH  10  53
ENDBRANCH   8   9
ENDBRANCH   7   8
ENDBRANCH   3   7
TORSDOF 15
ENDMDL
MODEL 2
REMARK VINA RESULT: -8.599656452      5.761      9.826
REMARK  15 active torsions:
REMARK  status: ('A' for Active; 'I' for Inactive)
REMARK    1  A    between atoms: C3_3  and  C4_7 
REMARK    2  A    between atoms: C4_7  and  O1_8 
REMARK    3  A    between atoms: O1_8  and  N2_9 
REMARK    4  A    between atoms: C5_11  and  S1_12 
REMARK    5  A    between atoms: C5_11  and  C25_53 
REMARK    6  A    between atoms: S1_12  and  S2_13 
REMARK    7  A    between atoms: S2_13  and  C6_14 
REMARK    8  A    between atoms: C8_19  and  N4_20 
REMARK    9  A    between atoms: C12_28  and  C13_29 
REMARK   10  A    between atoms: C14_30  and  C15_31 
REMARK   11  A    between atoms: C17_37  and  C18_38 
REMARK   12  A    between atoms: C18_38  and  O6_40 
REMARK   13  A    between atoms: C24_50  and  O7_51 
REMARK   14  A    between atoms: C25_53  and  O8_54 
REMARK   15  A    between atoms: C25_53  and  N10_56 
ROOT
HETATM    1  C1  UNL     1      41.263  33.907 -14.363  1.00  0.00     0.019 C 
HETATM    2  C2  UNL     1      41.179  33.629 -13.190  1.00  0.00    -0.062 C 
HETATM    3  C3  UNL     1      41.090  33.301 -11.799  1.00  0.00     0.082 C 
HETATM    4  N1  UNL     1      39.948  32.937 -11.335  1.00  0.00    -0.394 N 
ATOM      5  H11 UNL     1      39.884  32.704 -10.344  1.00  0.00     0.156 HD
ATOM      6  H12 UNL     1      39.111  32.872 -11.916  1.00  0.00     0.156 HD
ENDROOT
BRANCH   3   7
HETATM    7  C4  UNL     1      42.305  33.395 -10.957  1.00  0.00     0.267 C 
BRANCH   7   8
HETATM    8  O1  UNL     1      43.208  34.319 -11.528  1.00  0.00    -0.273 OA
BRANCH   8   9
HETATM    9  N2  UNL     1      44.526  34.078 -11.716  1.00  0.00    -0.259 N 
HETATM   10  C5  UNL     1      45.286  34.745 -12.513  1.00  0.00     0.135 C 
ATOM     11  H2  UNL     1      44.948  33.314 -11.188  1.00  0.00     0.195 HD
BRANCH  10  12
HETATM   12  S1  UNL     1      46.986  34.299 -12.640  1.00  0.00    -0.037 SA
BRANCH  12  13
HETATM   13  S2  UNL     1      47.716  33.705 -10.748  1.00  0.00    -0.082 SA
BRANCH  13  14
HETATM   14  C6  UNL     1      47.878  35.168  -9.699  1.00  0.00     0.117 C 
HETATM   15  C7  UNL     1      47.172  34.853  -8.400  1.00  0.00     0.253 C 
HETATM   16  N3  UNL     1      48.062  35.156  -7.330  1.00  0.00    -0.050 N 
HETATM   17  C8  UNL     1      49.406  35.184  -7.854  1.00  0.00     0.326 C 
ATOM     18  H32 UNL     1      47.812  36.018  -6.844  1.00  0.00     0.279 HD
ATOM     19  H31 UNL     1      47.961  34.517  -6.542  1.00  0.00     0.279 HD
HETATM   20  C24 UNL     1      49.336  35.320  -9.331  1.00  0.00     0.185 C 
BRANCH  17  21
HETATM   21  N4  UNL     1      50.231  36.186  -7.202  1.00  0.00    -0.249 N 
HETATM   22  C9  UNL     1      51.501  36.511  -7.386  1.00  0.00     0.333 A 
HETATM   23  O2  UNL     1      52.274  35.959  -8.228  1.00  0.00    -0.246 OA
HETATM   24  N5  UNL     1      51.882  37.521  -6.552  1.00  0.00    -0.286 N 
HETATM   25  C10 UNL     1      53.200  38.124  -6.487  1.00  0.00     0.163 C 
HETATM   26  C11 UNL     1      50.804  37.849  -5.810  1.00  0.00     0.157 A 
HETATM   27  N6  UNL     1      50.568  38.749  -4.842  1.00  0.00    -0.336 N 
HETATM   28  C23 UNL     1      49.783  37.019  -6.215  1.00  0.00     0.159 A 
HETATM   29  C12 UNL     1      49.378  38.871  -4.256  1.00  0.00     0.085 A 
ATOM     30  H6  UNL     1      51.328  39.361  -4.545  1.00  0.00     0.168 HD
HETATM   31  C21 UNL     1      48.334  38.054  -4.638  1.00  0.00     0.036 A 
HETATM   32  C22 UNL     1      46.982  38.144  -4.027  1.00  0.00     0.070 C 
HETATM   33  N9  UNL     1      48.587  37.150  -5.616  1.00  0.00    -0.341 N 
ATOM     34  H9  UNL     1      47.829  36.536  -5.914  1.00  0.00     0.167 HD
BRANCH  29  35
HETATM   35  C13 UNL     1      49.167  39.878  -3.208  1.00  0.00     0.093 C 
HETATM   36  C14 UNL     1      48.476  41.004  -3.230  1.00  0.00     0.145 C 
HETATM   37  N7  UNL     1      48.565  41.659  -1.965  1.00  0.00    -0.286 N 
HETATM   38  C16 UNL     1      48.446  42.404  -0.780  1.00  0.00     0.236 C 
HETATM   39  C20 UNL     1      49.836  41.145  -1.396  1.00  0.00     0.208 C 
HETATM   40  O5  UNL     1      47.866  43.464  -0.464  1.00  0.00    -0.272 OA
HETATM   41  C17 UNL     1      49.301  41.418  -0.010  1.00  0.00     0.149 C 
HETATM   42  N8  UNL     1      49.735  39.788  -1.877  1.00  0.00    -0.363 N 
ATOM     43  H8  UNL     1      50.007  38.939  -1.381  1.00  0.00     0.162 HD
BRANCH  36  44
HETATM   44  C15 UNL     1      47.713  41.570  -4.323  1.00  0.00     0.229 C 
HETATM   45  O3  UNL     1      46.654  41.071  -4.737  1.00  0.00    -0.643 OA
HETATM   46  O4  UNL     1      48.144  42.737  -4.986  1.00  0.00    -0.643 OA
ENDBRANCH  36  44
BRANCH  41  47
HETATM   47  C18 UNL     1      50.239  42.076   0.947  1.00  0.00     0.131 C 
HETATM   48  C19 UNL     1      50.998  43.210   0.315  1.00  0.00     0.040 C 
BRANCH  47  49
HETATM   49  O6  UNL     1      49.476  42.614   1.995  1.00  0.00    -0.395 OA
ATOM     50  H6  UNL     1      48.966  41.909   2.376  1.00  0.00     0.210 HD
ENDBRANCH  47  49
ENDBRANCH  41  47
ENDBRANCH  29  35
ENDBRANCH  17  21
BRANCH  20  51
HETATM   51  O7  UNL     1      50.128  34.358  -9.981  1.00  0.00    -0.390 OA
ATOM     52  H7  UNL     1      50.948  34.220  -9.521  1.00  0.00     0.210 HD
ENDBRANCH  20  51
ENDBRANCH  13  14
ENDBRANCH  12  13
ENDBRANCH  10  12
BRANCH  10  53
HETATM   53  C25 UNL     1      44.705  35.851 -13.286  1.00  0.00     0.378 C 
BRANCH  53  54
HETATM   54  O8  UNL     1      45.728  36.653 -13.845  1.00  0.00    -0.365 OA
ATOM     55  H8  UNL     1      45.575  36.784 -14.774  1.00  0.00     0.212 HD
ENDBRANCH  53  54
BRANCH  53  56
HETATM   56  N10 UNL     1      43.807  36.702 -12.582  1.00  0.00    -0.047 N 
HETATM   57  C26 UNL     1      42.615  37.023 -13.353  1.00  0.00     0.270 C 
ATOM     58 2H10 UNL     1      43.560  36.304 -11.676  1.00  0.00     0.280 HD
ATOM     59 1H10 UNL     1      44.278  37.550 -12.267  1.00  0.00     0.280 HD
ENDBRANCH  53  56
ENDBRANCH  10  53
ENDBRANCH   8   9
ENDBRANCH   7   8
ENDBRANCH   3   7
TORSDOF 15
ENDMDL
MODEL 3
REMARK VINA RESULT: -8.063439256      3.479      5.042
REMARK  15 active torsions:
REMARK  status: ('A' for Active; 'I' for Inactive)
REMARK    1  A    between atoms: C3_3  and  C4_7 
REMARK    2  A    between atoms: C4_7  and  O1_8 
REMARK    3  A    between atoms: O1_8  and  N2_9 
REMARK    4  A    between atoms: C5_11  and  S1_12 
REMARK    5  A    between atoms: C5_11  and  C25_53 
REMARK    6  A    between atoms: S1_12  and  S2_13 
REMARK    7  A    between atoms: S2_13  and  C6_14 
REMARK    8  A    between atoms: C8_19  and  N4_20 
REMARK    9  A    between atoms: C12_28  and  C13_29 
REMARK   10  A    between atoms: C14_30  and  C15_31 
REMARK   11  A    between atoms: C17_37  and  C18_38 
REMARK   12  A    between atoms: C18_38  and  O6_40 
REMARK   13  A    between atoms: C24_50  and  O7_51 
REMARK   14  A    between atoms: C25_53  and  O8_54 
REMARK   15  A    between atoms: C25_53  and  N10_56 
ROOT
HETATM    1  C1  UNL     1      54.776  34.335 -11.707  1.00  0.00     0.019 C 
HETATM    2  C2  UNL     1      55.683  34.143 -12.482  1.00  0.00    -0.062 C 
HETATM    3  C3  UNL     1      56.752  33.908 -13.405  1.00  0.00     0.082 C 
HETATM    4  N1  UNL     1      57.788  34.667 -13.338  1.00  0.00    -0.394 N 
ATOM      5  H11 UNL     1      58.550  34.500 -13.995  1.00  0.00     0.156 HD
ATOM      6  H12 UNL     1      57.876  35.422 -12.657  1.00  0.00     0.156 HD
ENDROOT
BRANCH   3   7
HETATM    7  C4  UNL     1      56.624  32.812 -14.393  1.00  0.00     0.267 C 
BRANCH   7   8
HETATM    8  O1  UNL     1      55.837  31.773 -13.849  1.00  0.00    -0.273 OA
BRANCH   8   9
HETATM    9  N2  UNL     1      56.058  31.202 -12.642  1.00  0.00    -0.259 N 
HETATM   10  C5  UNL     1      55.940  29.944 -12.394  1.00  0.00     0.135 C 
ATOM     11  H2  UNL     1      56.337  31.812 -11.874  1.00  0.00     0.195 HD
BRANCH  10  12
HETATM   12  S1  UNL     1      56.266  29.365 -10.763  1.00  0.00    -0.037 SA
BRANCH  12  13
HETATM   13  S2  UNL     1      54.554  29.625  -9.552  1.00  0.00    -0.082 SA
BRANCH  13  14
HETATM   14  C6  UNL     1      53.228  30.330 -10.559  1.00  0.00     0.117 C 
HETATM   15  C7  UNL     1      52.100  29.323 -10.560  1.00  0.00     0.253 C 
HETATM   16  N3  UNL     1      50.902  30.006 -10.203  1.00  0.00    -0.050 N 
HETATM   17  C8  UNL     1      51.261  31.230  -9.529  1.00  0.00     0.326 C 
ATOM     18  H32 UNL     1      50.286  30.163 -11.001  1.00  0.00     0.279 HD
ATOM     19  H31 UNL     1      50.269  29.426  -9.652  1.00  0.00     0.279 HD
HETATM   20  C24 UNL     1      52.682  31.538  -9.832  1.00  0.00     0.185 C 
BRANCH  17  21
HETATM   21  N4  UNL     1      50.341  32.314  -9.826  1.00  0.00    -0.249 N 
HETATM   22  C9  UNL     1      49.379  32.407 -10.730  1.00  0.00     0.333 A 
HETATM   23  O2  UNL     1      49.074  31.495 -11.559  1.00  0.00    -0.246 OA
HETATM   24  N5  UNL     1      48.749  33.615 -10.664  1.00  0.00    -0.286 N 
HETATM   25  C10 UNL     1      47.651  34.053 -11.505  1.00  0.00     0.163 C 
HETATM   26  C11 UNL     1      49.339  34.315  -9.673  1.00  0.00     0.157 A 
HETATM   27  N6  UNL     1      49.157  35.538  -9.149  1.00  0.00    -0.336 N 
HETATM   28  C23 UNL     1      50.325  33.505  -9.156  1.00  0.00     0.159 A 
HETATM   29  C12 UNL     1      49.898  36.000  -8.143  1.00  0.00     0.085 A 
ATOM     30  H6  UNL     1      48.426  36.134  -9.536  1.00  0.00     0.168 HD
HETATM   31  C21 UNL     1      50.895  35.215  -7.603  1.00  0.00     0.036 A 
HETATM   32  C22 UNL     1      51.751  35.670  -6.477  1.00  0.00     0.070 C 
HETATM   33  N9  UNL     1      51.067  33.983  -8.142  1.00  0.00    -0.341 N 
ATOM     34  H9  UNL     1      51.799  33.385  -7.757  1.00  0.00     0.167 HD
BRANCH  29  35
HETATM   35  C13 UNL     1      49.655  37.342  -7.598  1.00  0.00     0.093 C 
HETATM   36  C14 UNL     1      50.323  38.469  -7.768  1.00  0.00     0.145 C 
HETATM   37  N7  UNL     1      49.705  39.522  -7.029  1.00  0.00    -0.286 N 
HETATM   38  C16 UNL     1      49.199  40.703  -6.460  1.00  0.00     0.236 C 
HETATM   39  C20 UNL     1      48.986  38.809  -5.944  1.00  0.00     0.208 C 
HETATM   40  O5  UNL     1      49.561  41.897  -6.450  1.00  0.00    -0.272 OA
HETATM   41  C17 UNL     1      48.022  39.968  -5.850  1.00  0.00     0.149 C 
HETATM   42  N8  UNL     1      48.555  37.665  -6.709  1.00  0.00    -0.363 N 
ATOM     43  H8  UNL     1      47.660  37.181  -6.640  1.00  0.00     0.162 HD
BRANCH  36  44
HETATM   44  C15 UNL     1      51.510  38.699  -8.565  1.00  0.00     0.229 C 
HETATM   45  O3  UNL     1      51.497  38.723  -9.807  1.00  0.00    -0.643 OA
HETATM   46  O4  UNL     1      52.766  38.910  -7.959  1.00  0.00    -0.643 OA
ENDBRANCH  36  44
BRANCH  41  47
HETATM   47  C18 UNL     1      47.682  40.442  -4.476  1.00  0.00     0.131 C 
HETATM   48  C19 UNL     1      48.846  40.334  -3.531  1.00  0.00     0.040 C 
BRANCH  47  49
HETATM   49  O6  UNL     1      47.335  41.799  -4.562  1.00  0.00    -0.395 OA
ATOM     50  H6  UNL     1      46.427  41.885  -4.297  1.00  0.00     0.210 HD
ENDBRANCH  47  49
ENDBRANCH  41  47
ENDBRANCH  29  35
ENDBRANCH  17  21
BRANCH  20  51
HETATM   51  O7  UNL     1      53.417  31.805  -8.665  1.00  0.00    -0.390 OA
ATOM     52  H7  UNL     1      53.913  31.042  -8.389  1.00  0.00     0.210 HD
ENDBRANCH  20  51
ENDBRANCH  13  14
ENDBRANCH  12  13
ENDBRANCH  10  12
BRANCH  10  53
HETATM   53  C25 UNL     1      55.539  29.043 -13.482  1.00  0.00     0.378 C 
BRANCH  53  54
HETATM   54  O8  UNL     1      54.301  29.453 -14.032  1.00  0.00    -0.365 OA
ATOM     55  H8  UNL     1      53.585  28.985 -13.620  1.00  0.00     0.212 HD
ENDBRANCH  53  54
BRANCH  53  56
HETATM   56  N10 UNL     1      55.442  27.662 -13.149  1.00  0.00    -0.047 N 
HETATM   57  C26 UNL     1      54.069  27.231 -12.935  1.00  0.00     0.270 C 
ATOM     58 2H10 UNL     1      55.902  27.083 -13.851  1.00  0.00     0.280 HD
ATOM     59 1H10 UNL     1      56.025  27.439 -12.342  1.00  0.00     0.280 HD
ENDBRANCH  53  56
ENDBRANCH  10  53
ENDBRANCH   8   9
ENDBRANCH   7   8
ENDBRANCH   3   7
TORSDOF 15
ENDMDL
MODEL 4
REMARK VINA RESULT: -8.014772064      2.450      4.218
REMARK  15 active torsions:
REMARK  status: ('A' for Active; 'I' for Inactive)
REMARK    1  A    between atoms: C3_3  and  C4_7 
REMARK    2  A    between atoms: C4_7  and  O1_8 
REMARK    3  A    between atoms: O1_8  and  N2_9 
REMARK    4  A    between atoms: C5_11  and  S1_12 
REMARK    5  A    between atoms: C5_11  and  C25_53 
REMARK    6  A    between atoms: S1_12  and  S2_13 
REMARK    7  A    between atoms: S2_13  and  C6_14 
REMARK    8  A    between atoms: C8_19  and  N4_20 
REMARK    9  A    between atoms: C12_28  and  C13_29 
REMARK   10  A    between atoms: C14_30  and  C15_31 
REMARK   11  A    between atoms: C17_37  and  C18_38 
REMARK   12  A    between atoms: C18_38  and  O6_40 
REMARK   13  A    between atoms: C24_50  and  O7_51 
REMARK   14  A    between atoms: C25_53  and  O8_54 
REMARK   15  A    between atoms: C25_53  and  N10_56 
ROOT
HETATM    1  C1  UNL     1      49.498  29.267 -10.706  1.00  0.00     0.019 C 
HETATM    2  C2  UNL     1      50.342  28.576 -11.227  1.00  0.00    -0.062 C 
HETATM    3  C3  UNL     1      51.339  27.750 -11.838  1.00  0.00     0.082 C 
HETATM    4  N1  UNL     1      52.095  28.276 -12.734  1.00  0.00    -0.394 N 
ATOM      5  H11 UNL     1      52.806  27.688 -13.170  1.00  0.00     0.156 HD
ATOM      6  H12 UNL     1      52.013  29.251 -13.023  1.00  0.00     0.156 HD
ENDROOT
BRANCH   3   7
HETATM    7  C4  UNL     1      51.459  26.335 -11.418  1.00  0.00     0.267 C 
BRANCH   7   8
HETATM    8  O1  UNL     1      52.564  26.189 -10.551  1.00  0.00    -0.273 OA
BRANCH   8   9
HETATM    9  N2  UNL     1      53.576  27.082 -10.449  1.00  0.00    -0.259 N 
HETATM   10  C5  UNL     1      54.130  27.439  -9.342  1.00  0.00     0.135 C 
ATOM     11  H2  UNL     1      53.924  27.504 -11.310  1.00  0.00     0.195 HD
BRANCH  10  12
HETATM   12  S1  UNL     1      55.438  28.618  -9.388  1.00  0.00    -0.037 SA
BRANCH  12  13
HETATM   13  S2  UNL     1      54.808  30.351 -10.419  1.00  0.00    -0.082 SA
BRANCH  13  14
HETATM   14  C6  UNL     1      53.070  30.662 -10.033  1.00  0.00     0.117 C 
HETATM   15  C7  UNL     1      52.918  30.483  -8.539  1.00  0.00     0.253 C 
HETATM   16  N3  UNL     1      52.254  31.634  -8.024  1.00  0.00    -0.050 N 
HETATM   17  C8  UNL     1      52.402  32.706  -8.977  1.00  0.00     0.326 C 
ATOM     18  H32 UNL     1      51.279  31.451  -7.786  1.00  0.00     0.279 HD
ATOM     19  H31 UNL     1      52.579  31.889  -7.092  1.00  0.00     0.279 HD
HETATM   20  C24 UNL     1      52.790  32.126 -10.287  1.00  0.00     0.185 C 
BRANCH  17  21
HETATM   21  N4  UNL     1      51.231  33.564  -9.029  1.00  0.00    -0.249 N 
HETATM   22  C9  UNL     1      50.157  33.513  -9.801  1.00  0.00     0.333 A 
HETATM   23  O2  UNL     1      49.953  32.640 -10.699  1.00  0.00    -0.246 OA
HETATM   24  N5  UNL     1      49.289  34.524  -9.512  1.00  0.00    -0.286 N 
HETATM   25  C10 UNL     1      48.015  34.769 -10.163  1.00  0.00     0.163 C 
HETATM   26  C11 UNL     1      49.838  35.244  -8.511  1.00  0.00     0.157 A 
HETATM   27  N6  UNL     1      49.461  36.331  -7.820  1.00  0.00    -0.336 N 
HETATM   28  C23 UNL     1      51.041  34.646  -8.215  1.00  0.00     0.159 A 
HETATM   29  C12 UNL     1      50.211  36.856  -6.852  1.00  0.00     0.085 A 
ATOM     30  H6  UNL     1      48.568  36.771  -8.044  1.00  0.00     0.168 HD
HETATM   31  C21 UNL     1      51.423  36.282  -6.530  1.00  0.00     0.036 A 
HETATM   32  C22 UNL     1      52.303  36.815  -5.458  1.00  0.00     0.070 C 
HETATM   33  N9  UNL     1      51.790  35.185  -7.237  1.00  0.00    -0.341 N 
ATOM     34  H9  UNL     1      52.683  34.744  -7.015  1.00  0.00     0.167 HD
BRANCH  29  35
HETATM   35  C13 UNL     1      49.751  38.042  -6.117  1.00  0.00     0.093 C 
HETATM   36  C14 UNL     1      49.829  39.324  -6.426  1.00  0.00     0.145 C 
HETATM   37  N7  UNL     1      49.244  40.114  -5.392  1.00  0.00    -0.286 N 
HETATM   38  C16 UNL     1      48.633  41.054  -4.545  1.00  0.00     0.236 C 
HETATM   39  C20 UNL     1      49.356  39.252  -4.189  1.00  0.00     0.208 C 
HETATM   40  O5  UNL     1      48.507  42.296  -4.559  1.00  0.00    -0.272 OA
HETATM   41  C17 UNL     1      48.173  39.973  -3.588  1.00  0.00     0.149 C 
HETATM   42  N8  UNL     1      49.091  37.985  -4.827  1.00  0.00    -0.363 N 
ATOM     43  H8  UNL     1      48.549  37.209  -4.449  1.00  0.00     0.162 HD
BRANCH  36  44
HETATM   44  C15 UNL     1      50.402  39.930  -7.610  1.00  0.00     0.229 C 
HETATM   45  O3  UNL     1      50.911  41.063  -7.611  1.00  0.00    -0.643 OA
HETATM   46  O4  UNL     1      50.410  39.251  -8.846  1.00  0.00    -0.643 OA
ENDBRANCH  36  44
BRANCH  41  47
HETATM   47  C18 UNL     1      48.294  40.368  -2.153  1.00  0.00     0.131 C 
HETATM   48  C19 UNL     1      49.710  40.692  -1.767  1.00  0.00     0.040 C 
BRANCH  47  49
HETATM   49  O6  UNL     1      47.530  41.530  -1.962  1.00  0.00    -0.395 OA
ATOM     50  H6  UNL     1      46.793  41.496  -2.560  1.00  0.00     0.210 HD
ENDBRANCH  47  49
ENDBRANCH  41  47
ENDBRANCH  29  35
ENDBRANCH  17  21
BRANCH  20  51
HETATM   51  O7  UNL     1      53.913  32.772 -10.832  1.00  0.00    -0.390 OA
ATOM     52  H7  UNL     1      54.087  33.592 -10.385  1.00  0.00     0.210 HD
ENDBRANCH  20  51
ENDBRANCH  13  14
ENDBRANCH  12  13
ENDBRANCH  10  12
BRANCH  10  53
HETATM   53  C25 UNL     1      53.648  26.848  -8.087  1.00  0.00     0.378 C 
BRANCH  53  54
HETATM   54  O8  UNL     1      52.290  27.183  -7.873  1.00  0.00    -0.365 OA
ATOM     55  H8  UNL     1      52.060  27.068  -6.959  1.00  0.00     0.212 HD
ENDBRANCH  53  54
BRANCH  53  56
HETATM   56  N10 UNL     1      54.380  27.186  -6.914  1.00  0.00    -0.047 N 
HETATM   57  C26 UNL     1      53.596  27.964  -5.967  1.00  0.00     0.270 C 
ATOM     58 2H10 UNL     1      54.766  26.353  -6.471  1.00  0.00     0.280 HD
ATOM     59 1H10 UNL     1      55.248  27.666  -7.151  1.00  0.00     0.280 HD
ENDBRANCH  53  56
ENDBRANCH  10  53
ENDBRANCH   8   9
ENDBRANCH   7   8
ENDBRANCH   3   7
TORSDOF 15
ENDMDL
MODEL 5
REMARK VINA RESULT: -7.714716237      3.053      4.610
REMARK  15 active torsions:
REMARK  status: ('A' for Active; 'I' for Inactive)
REMARK    1  A    between atoms: C3_3  and  C4_7 
REMARK    2  A    between atoms: C4_7  and  O1_8 
REMARK    3  A    between atoms: O1_8  and  N2_9 
REMARK    4  A    between atoms: C5_11  and  S1_12 
REMARK    5  A    between atoms: C5_11  and  C25_53 
REMARK    6  A    between atoms: S1_12  and  S2_13 
REMARK    7  A    between atoms: S2_13  and  C6_14 
REMARK    8  A    between atoms: C8_19  and  N4_20 
REMARK    9  A    between atoms: C12_28  and  C13_29 
REMARK   10  A    between atoms: C14_30  and  C15_31 
REMARK   11  A    between atoms: C17_37  and  C18_38 
REMARK   12  A    between atoms: C18_38  and  O6_40 
REMARK   13  A    between atoms: C24_50  and  O7_51 
REMARK   14  A    between atoms: C25_53  and  O8_54 
REMARK   15  A    between atoms: C25_53  and  N10_56 
ROOT
HETATM    1  C1  UNL     1      55.200  34.335 -12.057  1.00  0.00     0.019 C 
HETATM    2  C2  UNL     1      55.686  33.266 -12.345  1.00  0.00    -0.062 C 
HETATM    3  C3  UNL     1      56.268  32.000 -12.676  1.00  0.00     0.082 C 
HETATM    4  N1  UNL     1      55.823  31.383 -13.712  1.00  0.00    -0.394 N 
ATOM      5  H11 UNL     1      56.237  30.481 -13.948  1.00  0.00     0.156 HD
ATOM      6  H12 UNL     1      55.080  31.757 -14.301  1.00  0.00     0.156 HD
ENDROOT
BRANCH   3   7
HETATM    7  C4  UNL     1      57.347  31.457 -11.820  1.00  0.00     0.267 C 
BRANCH   7   8
HETATM    8  O1  UNL     1      57.137  30.076 -11.611  1.00  0.00    -0.273 OA
BRANCH   8   9
HETATM    9  N2  UNL     1      56.496  29.557 -10.538  1.00  0.00    -0.259 N 
HETATM   10  C5  UNL     1      55.400  28.883 -10.595  1.00  0.00     0.135 C 
ATOM     11  H2  UNL     1      56.909  29.712  -9.618  1.00  0.00     0.195 HD
BRANCH  10  12
HETATM   12  S1  UNL     1      54.695  28.278  -9.098  1.00  0.00    -0.037 SA
BRANCH  12  13
HETATM   13  S2  UNL     1      52.616  27.989  -9.348  1.00  0.00    -0.082 SA
BRANCH  13  14
HETATM   14  C6  UNL     1      51.743  29.423  -8.680  1.00  0.00     0.117 C 
HETATM   15  C7  UNL     1      52.789  30.478  -8.400  1.00  0.00     0.253 C 
HETATM   16  N3  UNL     1      52.362  31.693  -9.009  1.00  0.00    -0.050 N 
HETATM   17  C8  UNL     1      51.392  31.374 -10.027  1.00  0.00     0.326 C 
ATOM     18  H32 UNL     1      52.011  32.370  -8.331  1.00  0.00     0.279 HD
ATOM     19  H31 UNL     1      53.140  32.247  -9.367  1.00  0.00     0.279 HD
HETATM   20  C24 UNL     1      50.883  30.000  -9.782  1.00  0.00     0.185 C 
BRANCH  17  21
HETATM   21  N4  UNL     1      50.354  32.383 -10.137  1.00  0.00    -0.249 N 
HETATM   22  C9  UNL     1      49.302  32.456 -10.937  1.00  0.00     0.333 A 
HETATM   23  O2  UNL     1      48.999  31.591 -11.814  1.00  0.00    -0.246 OA
HETATM   24  N5  UNL     1      48.576  33.587 -10.702  1.00  0.00    -0.286 N 
HETATM   25  C10 UNL     1      47.365  33.984 -11.395  1.00  0.00     0.163 C 
HETATM   26  C11 UNL     1      49.197  34.256  -9.709  1.00  0.00     0.157 A 
HETATM   27  N6  UNL     1      48.959  35.408  -9.061  1.00  0.00    -0.336 N 
HETATM   28  C23 UNL     1      50.298  33.507  -9.361  1.00  0.00     0.159 A 
HETATM   29  C12 UNL     1      49.752  35.856  -8.088  1.00  0.00     0.085 A 
ATOM     30  H6  UNL     1      48.142  35.960  -9.323  1.00  0.00     0.168 HD
HETATM   31  C21 UNL     1      50.865  35.130  -7.716  1.00  0.00     0.036 A 
HETATM   32  C22 UNL     1      51.785  35.572  -6.636  1.00  0.00     0.070 C 
HETATM   33  N9  UNL     1      51.092  33.969  -8.380  1.00  0.00    -0.341 N 
ATOM     34  H9  UNL     1      51.909  33.417  -8.120  1.00  0.00     0.167 HD
BRANCH  29  35
HETATM   35  C13 UNL     1      49.445  37.118  -7.402  1.00  0.00     0.093 C 
HETATM   36  C14 UNL     1      50.052  38.290  -7.455  1.00  0.00     0.145 C 
HETATM   37  N7  UNL     1      49.389  39.224  -6.604  1.00  0.00    -0.286 N 
HETATM   38  C16 UNL     1      48.828  40.309  -5.910  1.00  0.00     0.236 C 
HETATM   39  C20 UNL     1      48.720  38.363  -5.597  1.00  0.00     0.208 C 
HETATM   40  O5  UNL     1      49.127  41.514  -5.775  1.00  0.00    -0.272 OA
HETATM   41  C17 UNL     1      47.698  39.452  -5.375  1.00  0.00     0.149 C 
HETATM   42  N8  UNL     1      48.341  37.285  -6.478  1.00  0.00    -0.363 N 
ATOM     43  H8  UNL     1      47.473  36.749  -6.455  1.00  0.00     0.162 HD
BRANCH  36  44
HETATM   44  C15 UNL     1      51.217  38.666  -8.229  1.00  0.00     0.229 C 
HETATM   45  O3  UNL     1      51.185  38.832  -9.460  1.00  0.00    -0.643 OA
HETATM   46  O4  UNL     1      52.469  38.865  -7.613  1.00  0.00    -0.643 OA
ENDBRANCH  36  44
BRANCH  41  47
HETATM   47  C18 UNL     1      47.349  39.759  -3.956  1.00  0.00     0.131 C 
HETATM   48  C19 UNL     1      46.852  38.549  -3.216  1.00  0.00     0.040 C 
BRANCH  47  49
HETATM   49  O6  UNL     1      48.517  40.195  -3.311  1.00  0.00    -0.395 OA
ATOM     50  H6  UNL     1      49.074  39.438  -3.174  1.00  0.00     0.210 HD
ENDBRANCH  47  49
ENDBRANCH  41  47
ENDBRANCH  29  35
ENDBRANCH  17  21
BRANCH  20  51
HETATM   51  O7  UNL     1      50.942  29.208 -10.941  1.00  0.00    -0.390 OA
ATOM     52  H7  UNL     1      51.565  28.497 -10.840  1.00  0.00     0.210 HD
ENDBRANCH  20  51
ENDBRANCH  13  14
ENDBRANCH  12  13
ENDBRANCH  10  12
BRANCH  10  53
HETATM   53  C25 UNL     1      54.783  28.645 -11.906  1.00  0.00     0.378 C 
BRANCH  53  54
HETATM   54  O8  UNL     1      53.721  29.554 -12.124  1.00  0.00    -0.365 OA
ATOM     55  H8  UNL     1      53.056  29.161 -12.678  1.00  0.00     0.212 HD
ENDBRANCH  53  54
BRANCH  53  56
HETATM   56  N10 UNL     1      54.296  27.328 -12.140  1.00  0.00    -0.047 N 
HETATM   57  C26 UNL     1      53.428  27.247 -13.305  1.00  0.00     0.270 C 
ATOM     58 2H10 UNL     1      55.065  26.661 -12.210  1.00  0.00     0.280 HD
ATOM     59 1H10 UNL     1      53.831  26.958 -11.311  1.00  0.00     0.280 HD
ENDBRANCH  53  56
ENDBRANCH  10  53
ENDBRANCH   8   9
ENDBRANCH   7   8
ENDBRANCH   3   7
TORSDOF 15
ENDMDL
