MODEL 1
REMARK VINA RESULT: -8.942331891      0.000      0.000
REMARK  17 active torsions:
REMARK  status: ('A' for Active; 'I' for Inactive)
REMARK    1  A    between atoms: O1_2  and  N1_3 
REMARK    2  A    between atoms: N1_3  and  C2_4 
REMARK    3  A    between atoms: C2_4  and  C3_5 
REMARK    4  A    between atoms: C2_4  and  C24_54 
REMARK       I    between atoms: C3_5  and  N2_7 
REMARK    5  A    between atoms: N2_7  and  N3_9 
REMARK    6  A    between atoms: C4_10  and  C5_11 
REMARK       I    between atoms: C5_11  and  N4_13 
REMARK       I    between atoms: N4_13  and  C6_15 
REMARK    7  A    between atoms: C6_15  and  C7_17 
REMARK    8  A    between atoms: C7_17  and  N5_18 
REMARK    9  A    between atoms: N5_18  and  C8_20 
REMARK   10  A    between atoms: C8_20  and  C9_21 
REMARK   11  A    between atoms: C8_20  and  C10_28 
REMARK       I    between atoms: C9_21  and  N6_23 
REMARK   12  A    between atoms: N6_23  and  N7_25 
REMARK   13  A    between atoms: C13_36  and  C14_37 
REMARK   14  A    between atoms: C14_37  and  O6_38 
REMARK   15  A    between atoms: C14_37  and  O7_40 
REMARK   16  A    between atoms: C19_46  and  O8_47 
REMARK   17  A    between atoms: C24_54  and  O11_56 
ROOT
HETATM    1  C5  UNL     1      50.012  35.225  -8.344  1.00  0.00     0.277 C 
HETATM    2  O3  UNL     1      49.983  34.825  -7.157  1.00  0.00    -0.266 OA
HETATM    3  N4  UNL     1      50.990  36.262  -8.567  1.00  0.00    -0.287 N 
ATOM      4  H4  UNL     1      51.069  36.634  -9.514  1.00  0.00     0.172 HD
HETATM    5  C6  UNL     1      51.843  36.805  -7.590  1.00  0.00     0.263 C 
HETATM    6  O4  UNL     1      52.639  37.725  -7.991  1.00  0.00    -0.267 OA
ENDROOT
BRANCH   1   7
HETATM    7  C4  UNL     1      49.179  34.739  -9.431  1.00  0.00     0.129 A 
HETATM    8  N3  UNL     1      49.510  33.590 -10.110  1.00  0.00    -0.212 N 
HETATM    9  C23 UNL     1      48.764  33.258 -11.187  1.00  0.00     0.278 A 
HETATM   10  C22 UNL     1      47.679  34.015 -11.644  1.00  0.00     0.044 A 
HETATM   11  O9  UNL     1      48.995  32.232 -11.856  1.00  0.00    -0.265 OA
HETATM   12  C17 UNL     1      47.341  35.150 -10.979  1.00  0.00    -0.015 A 
HETATM   13  C21 UNL     1      46.955  33.626 -12.750  1.00  0.00     0.021 A 
HETATM   14  C16 UNL     1      48.101  35.490  -9.881  1.00  0.00     0.050 A 
HETATM   15  C18 UNL     1      46.278  35.915 -11.402  1.00  0.00     0.049 A 
HETATM   16  C19 UNL     1      45.543  35.531 -12.516  1.00  0.00     0.066 A 
HETATM   17  C20 UNL     1      45.886  34.371 -13.198  1.00  0.00     0.037 A 
BRANCH   8  18
HETATM   18  N2  UNL     1      50.471  32.766  -9.555  1.00  0.00    -0.258 N 
HETATM   19  C3  UNL     1      51.865  32.846  -9.652  1.00  0.00     0.268 C 
HETATM   20  O2  UNL     1      52.460  33.746 -10.274  1.00  0.00    -0.269 OA
ATOM     21  H2  UNL     1      50.114  31.991  -8.996  1.00  0.00     0.190 HD
BRANCH  19  22
HETATM   22  C2  UNL     1      52.732  31.792  -8.970  1.00  0.00     0.298 C 
BRANCH  22  23
HETATM   23  N1  UNL     1      54.042  31.771  -9.628  1.00  0.00    -0.077 NA
BRANCH  23  24
HETATM   24  O1  UNL     1      54.932  31.228  -8.740  1.00  0.00    -0.290 OA
HETATM   25  C1  UNL     1      55.702  30.324  -9.450  1.00  0.00     0.231 C 
ENDBRANCH  23  24
ENDBRANCH  22  23
BRANCH  22  26
HETATM   26  C24 UNL     1      52.123  30.458  -9.012  1.00  0.00     0.289 C 
HETATM   27  O10 UNL     1      51.486  30.074 -10.056  1.00  0.00    -0.263 OA
BRANCH  26  28
HETATM   28  O11 UNL     1      52.172  29.540  -7.992  1.00  0.00    -0.325 OA
HETATM   29  C25 UNL     1      51.806  28.184  -8.173  1.00  0.00     0.213 C 
ENDBRANCH  26  28
ENDBRANCH  22  26
ENDBRANCH  19  22
ENDBRANCH   8  18
BRANCH  16  30
HETATM   30  O8  UNL     1      44.462  36.282 -12.970  1.00  0.00    -0.361 OA
ATOM     31  H8  UNL     1      44.341  36.470 -13.893  1.00  0.00     0.217 HD
ENDBRANCH  16  30
ENDBRANCH   1   7
BRANCH   5  32
HETATM   32  C7  UNL     1      51.888  36.415  -6.201  1.00  0.00     0.163 C 
BRANCH  32  33
HETATM   33  N5  UNL     1      51.476  37.371  -5.251  1.00  0.00    -0.353 N 
ATOM     34  H5  UNL     1      52.157  37.714  -4.575  1.00  0.00     0.165 HD
BRANCH  33  35
HETATM   35  C8  UNL     1      50.184  37.864  -5.198  1.00  0.00     0.148 C 
BRANCH  35  36
HETATM   36  C9  UNL     1      49.081  36.886  -5.422  1.00  0.00     0.290 C 
HETATM   37  O5  UNL     1      48.158  37.137  -6.219  1.00  0.00    -0.264 OA
HETATM   38  N6  UNL     1      49.036  35.648  -4.747  1.00  0.00    -0.271 N 
ATOM     39  H6  UNL     1      49.773  35.406  -4.086  1.00  0.00     0.189 HD
BRANCH  38  40
HETATM   40  N7  UNL     1      48.000  34.758  -4.973  1.00  0.00    -0.342 N 
ATOM     41  H72 UNL     1      47.162  35.093  -5.447  1.00  0.00     0.176 HD
ATOM     42  H71 UNL     1      48.074  33.786  -4.670  1.00  0.00     0.176 HD
ENDBRANCH  38  40
ENDBRANCH  35  36
BRANCH  35  43
HETATM   43  C10 UNL     1      49.832  39.147  -5.815  1.00  0.00     0.162 A 
HETATM   44  N8  UNL     1      50.537  39.532  -6.969  1.00  0.00    -0.281 N 
HETATM   45  N9  UNL     1      50.120  40.655  -7.417  1.00  0.00    -0.277 N 
ATOM     46  H8  UNL     1      51.286  38.985  -7.395  1.00  0.00     0.188 HD
HETATM   47  C11 UNL     1      49.121  41.036  -6.556  1.00  0.00     0.172 A 
ATOM     48  H9  UNL     1      50.457  41.159  -8.237  1.00  0.00     0.189 HD
HETATM   49  S1  UNL     1      47.995  42.265  -6.274  1.00  0.00    -0.061 SA
HETATM   50  N10 UNL     1      48.924  40.145  -5.575  1.00  0.00    -0.268 N 
HETATM   51  C12 UNL     1      47.277  41.627  -4.893  1.00  0.00     0.088 A 
HETATM   52  C13 UNL     1      47.973  40.418  -4.684  1.00  0.00     0.107 A 
BRANCH  52  53
HETATM   53  C14 UNL     1      47.533  39.670  -3.495  1.00  0.00     0.206 C 
BRANCH  53  54
HETATM   54  O6  UNL     1      46.911  38.532  -3.658  1.00  0.00    -0.339 OA
ATOM     55  H6  UNL     1      46.402  38.179  -2.938  1.00  0.00     0.220 HD
ENDBRANCH  53  54
BRANCH  53  56
HETATM   56  O7  UNL     1      47.652  39.956  -2.198  1.00  0.00    -0.334 OA
HETATM   57  C15 UNL     1      48.620  40.785  -1.612  1.00  0.00     0.212 C 
ENDBRANCH  53  56
ENDBRANCH  52  53
ENDBRANCH  35  43
ENDBRANCH  33  35
ENDBRANCH  32  33
ENDBRANCH   5  32
TORSDOF 17
ENDMDL
MODEL 2
REMARK VINA RESULT: -8.742553262      4.116      9.155
REMARK  17 active torsions:
REMARK  status: ('A' for Active; 'I' for Inactive)
REMARK    1  A    between atoms: O1_2  and  N1_3 
REMARK    2  A    between atoms: N1_3  and  C2_4 
REMARK    3  A    between atoms: C2_4  and  C3_5 
REMARK    4  A    between atoms: C2_4  and  C24_54 
REMARK       I    between atoms: C3_5  and  N2_7 
REMARK    5  A    between atoms: N2_7  and  N3_9 
REMARK    6  A    between atoms: C4_10  and  C5_11 
REMARK       I    between atoms: C5_11  and  N4_13 
REMARK       I    between atoms: N4_13  and  C6_15 
REMARK    7  A    between atoms: C6_15  and  C7_17 
REMARK    8  A    between atoms: C7_17  and  N5_18 
REMARK    9  A    between atoms: N5_18  and  C8_20 
REMARK   10  A    between atoms: C8_20  and  C9_21 
REMARK   11  A    between atoms: C8_20  and  C10_28 
REMARK       I    between atoms: C9_21  and  N6_23 
REMARK   12  A    between atoms: N6_23  and  N7_25 
REMARK   13  A    between atoms: C13_36  and  C14_37 
REMARK   14  A    between atoms: C14_37  and  O6_38 
REMARK   15  A    between atoms: C14_37  and  O7_40 
REMARK   16  A    between atoms: C19_46  and  O8_47 
REMARK   17  A    between atoms: C24_54  and  O11_56 
ROOT
HETATM    1  C5  UNL     1      48.820  32.960 -10.477  1.00  0.00     0.277 C 
HETATM    2  O3  UNL     1      47.908  33.275  -9.677  1.00  0.00    -0.266 OA
HETATM    3  N4  UNL     1      48.639  33.528 -11.791  1.00  0.00    -0.287 N 
ATOM      4  H4  UNL     1      49.347  33.314 -12.494  1.00  0.00     0.172 HD
HETATM    5  C6  UNL     1      47.570  34.351 -12.186  1.00  0.00     0.263 C 
HETATM    6  O4  UNL     1      47.591  34.750 -13.403  1.00  0.00    -0.267 OA
ENDROOT
BRANCH   1   7
HETATM    7  C4  UNL     1      49.965  32.117 -10.180  1.00  0.00     0.129 A 
HETATM    8  N3  UNL     1      51.196  32.671  -9.917  1.00  0.00    -0.212 N 
HETATM    9  C23 UNL     1      52.246  31.834  -9.768  1.00  0.00     0.278 A 
HETATM   10  C22 UNL     1      52.148  30.441  -9.867  1.00  0.00     0.044 A 
HETATM   11  O9  UNL     1      53.394  32.254  -9.525  1.00  0.00    -0.265 OA
HETATM   12  C17 UNL     1      50.937  29.882 -10.123  1.00  0.00    -0.015 A 
HETATM   13  C21 UNL     1      53.256  29.637  -9.706  1.00  0.00     0.021 A 
HETATM   14  C16 UNL     1      49.866  30.735 -10.275  1.00  0.00     0.050 A 
HETATM   15  C18 UNL     1      50.807  28.515 -10.223  1.00  0.00     0.049 A 
HETATM   16  C19 UNL     1      51.919  27.697 -10.063  1.00  0.00     0.066 A 
HETATM   17  C20 UNL     1      53.158  28.266  -9.801  1.00  0.00     0.037 A 
BRANCH   8  18
HETATM   18  N2  UNL     1      51.250  34.028  -9.657  1.00  0.00    -0.258 N 
HETATM   19  C3  UNL     1      51.480  34.686  -8.442  1.00  0.00     0.268 C 
HETATM   20  O2  UNL     1      51.704  34.091  -7.371  1.00  0.00    -0.269 OA
ATOM     21  H2  UNL     1      51.102  34.635 -10.462  1.00  0.00     0.190 HD
BRANCH  19  22
HETATM   22  C2  UNL     1      51.462  36.210  -8.393  1.00  0.00     0.298 C 
BRANCH  22  23
HETATM   23  N1  UNL     1      52.230  36.646  -7.223  1.00  0.00    -0.077 NA
BRANCH  23  24
HETATM   24  O1  UNL     1      53.368  37.250  -7.688  1.00  0.00    -0.290 OA
HETATM   25  C1  UNL     1      54.023  37.768  -6.585  1.00  0.00     0.231 C 
ENDBRANCH  23  24
ENDBRANCH  22  23
BRANCH  22  26
HETATM   26  C24 UNL     1      50.100  36.751  -8.335  1.00  0.00     0.289 C 
HETATM   27  O10 UNL     1      49.175  36.243  -9.065  1.00  0.00    -0.263 OA
BRANCH  26  28
HETATM   28  O11 UNL     1      49.702  37.796  -7.539  1.00  0.00    -0.325 OA
HETATM   29  C25 UNL     1      48.592  37.705  -6.664  1.00  0.00     0.213 C 
ENDBRANCH  26  28
ENDBRANCH  22  26
ENDBRANCH  19  22
ENDBRANCH   8  18
BRANCH  16  30
HETATM   30  O8  UNL     1      51.822  26.311 -10.158  1.00  0.00    -0.361 OA
ATOM     31  H8  UNL     1      52.445  25.739  -9.726  1.00  0.00     0.217 HD
ENDBRANCH  16  30
ENDBRANCH   1   7
BRANCH   5  32
HETATM   32  C7  UNL     1      46.476  34.771 -11.344  1.00  0.00     0.163 C 
BRANCH  32  33
HETATM   33  N5  UNL     1      45.275  34.039 -11.439  1.00  0.00    -0.353 N 
ATOM     34  H5  UNL     1      45.212  33.138 -10.966  1.00  0.00     0.165 HD
BRANCH  33  35
HETATM   35  C8  UNL     1      44.176  34.494 -12.147  1.00  0.00     0.148 C 
BRANCH  35  36
HETATM   36  C9  UNL     1      44.097  35.962 -12.394  1.00  0.00     0.290 C 
HETATM   37  O5  UNL     1      44.523  36.453 -13.456  1.00  0.00    -0.264 OA
HETATM   38  N6  UNL     1      43.543  36.848 -11.447  1.00  0.00    -0.271 N 
ATOM     39  H6  UNL     1      43.184  36.483 -10.565  1.00  0.00     0.189 HD
BRANCH  38  40
HETATM   40  N7  UNL     1      43.482  38.206 -11.701  1.00  0.00    -0.342 N 
ATOM     41  H72 UNL     1      42.626  38.591 -12.100  1.00  0.00     0.176 HD
ATOM     42  H71 UNL     1      44.278  38.811 -11.494  1.00  0.00     0.176 HD
ENDBRANCH  38  40
ENDBRANCH  35  36
BRANCH  35  43
HETATM   43  C10 UNL     1      42.832  33.967 -11.890  1.00  0.00     0.162 A 
HETATM   44  N8  UNL     1      42.614  33.302 -10.670  1.00  0.00    -0.281 N 
HETATM   45  N9  UNL     1      41.401  32.913 -10.563  1.00  0.00    -0.277 N 
ATOM     46  H8  UNL     1      43.332  33.149  -9.962  1.00  0.00     0.188 HD
HETATM   47  C11 UNL     1      40.790  33.319 -11.723  1.00  0.00     0.172 A 
ATOM     48  H9  UNL     1      40.978  32.410  -9.782  1.00  0.00     0.189 HD
HETATM   49  S1  UNL     1      39.299  33.316 -12.521  1.00  0.00    -0.061 SA
HETATM   50  N10 UNL     1      41.630  33.958 -12.547  1.00  0.00    -0.268 N 
HETATM   51  C12 UNL     1      39.766  34.135 -13.913  1.00  0.00     0.088 A 
HETATM   52  C13 UNL     1      41.135  34.397 -13.703  1.00  0.00     0.107 A 
BRANCH  52  53
HETATM   53  C14 UNL     1      41.791  35.102 -14.817  1.00  0.00     0.206 C 
BRANCH  53  54
HETATM   54  O6  UNL     1      41.871  36.406 -14.780  1.00  0.00    -0.339 OA
ATOM     55  H6  UNL     1      41.451  36.912 -15.466  1.00  0.00     0.220 HD
ENDBRANCH  53  54
BRANCH  53  56
HETATM   56  O7  UNL     1      42.349  34.630 -15.933  1.00  0.00    -0.334 OA
HETATM   57  C15 UNL     1      41.675  34.214 -17.090  1.00  0.00     0.212 C 
ENDBRANCH  53  56
ENDBRANCH  52  53
ENDBRANCH  35  43
ENDBRANCH  33  35
ENDBRANCH  32  33
ENDBRANCH   5  32
TORSDOF 17
ENDMDL
MODEL 3
REMARK VINA RESULT: -8.723443304      4.305      9.421
REMARK  17 active torsions:
REMARK  status: ('A' for Active; 'I' for Inactive)
REMARK    1  A    between atoms: O1_2  and  N1_3 
REMARK    2  A    between atoms: N1_3  and  C2_4 
REMARK    3  A    between atoms: C2_4  and  C3_5 
REMARK    4  A    between atoms: C2_4  and  C24_54 
REMARK       I    between atoms: C3_5  and  N2_7 
REMARK    5  A    between atoms: N2_7  and  N3_9 
REMARK    6  A    between atoms: C4_10  and  C5_11 
REMARK       I    between atoms: C5_11  and  N4_13 
REMARK       I    between atoms: N4_13  and  C6_15 
REMARK    7  A    between atoms: C6_15  and  C7_17 
REMARK    8  A    between atoms: C7_17  and  N5_18 
REMARK    9  A    between atoms: N5_18  and  C8_20 
REMARK   10  A    between atoms: C8_20  and  C9_21 
REMARK   11  A    between atoms: C8_20  and  C10_28 
REMARK       I    between atoms: C9_21  and  N6_23 
REMARK   12  A    between atoms: N6_23  and  N7_25 
REMARK   13  A    between atoms: C13_36  and  C14_37 
REMARK   14  A    between atoms: C14_37  and  O6_38 
REMARK   15  A    between atoms: C14_37  and  O7_40 
REMARK   16  A    between atoms: C19_46  and  O8_47 
REMARK   17  A    between atoms: C24_54  and  O11_56 
ROOT
HETATM    1  C5  UNL     1      48.330  33.189 -10.426  1.00  0.00     0.277 C 
HETATM    2  O3  UNL     1      47.459  33.492  -9.578  1.00  0.00    -0.266 OA
HETATM    3  N4  UNL     1      48.052  33.724 -11.737  1.00  0.00    -0.287 N 
ATOM      4  H4  UNL     1      48.723  33.518 -12.477  1.00  0.00     0.172 HD
HETATM    5  C6  UNL     1      46.936  34.506 -12.081  1.00  0.00     0.263 C 
HETATM    6  O4  UNL     1      46.870  34.880 -13.304  1.00  0.00    -0.267 OA
ENDROOT
BRANCH   1   7
HETATM    7  C4  UNL     1      49.518  32.389 -10.183  1.00  0.00     0.129 A 
HETATM    8  N3  UNL     1      50.709  32.985  -9.840  1.00  0.00    -0.212 N 
HETATM    9  C23 UNL     1      51.804  32.199  -9.747  1.00  0.00     0.278 A 
HETATM   10  C22 UNL     1      51.791  30.818  -9.980  1.00  0.00     0.044 A 
HETATM   11  O9  UNL     1      52.920  32.659  -9.438  1.00  0.00    -0.265 OA
HETATM   12  C17 UNL     1      50.620  30.218 -10.317  1.00  0.00    -0.015 A 
HETATM   13  C21 UNL     1      52.941  30.067  -9.870  1.00  0.00     0.021 A 
HETATM   14  C16 UNL     1      49.503  31.019 -10.412  1.00  0.00     0.050 A 
HETATM   15  C18 UNL     1      50.574  28.862 -10.550  1.00  0.00     0.049 A 
HETATM   16  C19 UNL     1      51.728  28.097 -10.442  1.00  0.00     0.066 A 
HETATM   17  C20 UNL     1      52.927  28.709 -10.097  1.00  0.00     0.037 A 
BRANCH   8  18
HETATM   18  N2  UNL     1      50.678  34.311  -9.450  1.00  0.00    -0.258 N 
HETATM   19  C3  UNL     1      51.065  34.883  -8.233  1.00  0.00     0.268 C 
HETATM   20  O2  UNL     1      51.542  34.228  -7.287  1.00  0.00    -0.269 OA
ATOM     21  H2  UNL     1      50.323  34.964 -10.148  1.00  0.00     0.190 HD
BRANCH  19  22
HETATM   22  C2  UNL     1      50.907  36.385  -8.019  1.00  0.00     0.298 C 
BRANCH  22  23
HETATM   23  N1  UNL     1      49.699  36.829  -8.720  1.00  0.00    -0.077 NA
BRANCH  23  24
HETATM   24  O1  UNL     1      48.625  36.364  -8.008  1.00  0.00    -0.290 OA
HETATM   25  C1  UNL     1      48.496  37.184  -6.901  1.00  0.00     0.231 C 
ENDBRANCH  23  24
ENDBRANCH  22  23
BRANCH  22  26
HETATM   26  C24 UNL     1      52.073  37.141  -8.491  1.00  0.00     0.289 C 
HETATM   27  O10 UNL     1      51.941  38.008  -9.426  1.00  0.00    -0.263 OA
BRANCH  26  28
HETATM   28  O11 UNL     1      53.349  37.001  -8.004  1.00  0.00    -0.325 OA
HETATM   29  C25 UNL     1      53.974  37.996  -7.214  1.00  0.00     0.213 C 
ENDBRANCH  26  28
ENDBRANCH  22  26
ENDBRANCH  19  22
ENDBRANCH   8  18
BRANCH  16  30
HETATM   30  O8  UNL     1      51.716  26.724 -10.671  1.00  0.00    -0.361 OA
ATOM     31  H8  UNL     1      52.410  26.161 -10.349  1.00  0.00     0.217 HD
ENDBRANCH  16  30
ENDBRANCH   1   7
BRANCH   5  32
HETATM   32  C7  UNL     1      45.881  34.908 -11.182  1.00  0.00     0.163 C 
BRANCH  32  33
HETATM   33  N5  UNL     1      44.708  34.127 -11.177  1.00  0.00    -0.353 N 
ATOM     34  H5  UNL     1      44.613  33.391 -10.478  1.00  0.00     0.165 HD
BRANCH  33  35
HETATM   35  C8  UNL     1      43.679  34.318 -12.083  1.00  0.00     0.148 C 
BRANCH  35  36
HETATM   36  C9  UNL     1      43.538  35.684 -12.662  1.00  0.00     0.290 C 
HETATM   37  O5  UNL     1      42.897  36.567 -12.063  1.00  0.00    -0.264 OA
HETATM   38  N6  UNL     1      44.118  36.032 -13.901  1.00  0.00    -0.271 N 
ATOM     39  H6  UNL     1      44.650  35.335 -14.422  1.00  0.00     0.189 HD
BRANCH  38  40
HETATM   40  N7  UNL     1      43.971  37.307 -14.416  1.00  0.00    -0.342 N 
ATOM     41  H72 UNL     1      43.080  37.787 -14.288  1.00  0.00     0.176 HD
ATOM     42  H71 UNL     1      44.738  37.759 -14.915  1.00  0.00     0.176 HD
ENDBRANCH  38  40
ENDBRANCH  35  36
BRANCH  35  43
HETATM   43  C10 UNL     1      42.349  33.742 -11.858  1.00  0.00     0.162 A 
HETATM   44  N8  UNL     1      42.122  33.080 -10.639  1.00  0.00    -0.281 N 
HETATM   45  N9  UNL     1      40.922  32.646 -10.562  1.00  0.00    -0.277 N 
ATOM     46  H8  UNL     1      42.825  32.961  -9.909  1.00  0.00     0.188 HD
HETATM   47  C11 UNL     1      40.329  33.018 -11.742  1.00  0.00     0.172 A 
ATOM     48  H9  UNL     1      40.497  32.133  -9.789  1.00  0.00     0.189 HD
HETATM   49  S1  UNL     1      38.863  32.950 -12.582  1.00  0.00    -0.061 SA
HETATM   50  N10 UNL     1      41.167  33.681 -12.549  1.00  0.00    -0.268 N 
HETATM   51  C12 UNL     1      39.337  33.774 -13.969  1.00  0.00     0.088 A 
HETATM   52  C13 UNL     1      40.689  34.090 -13.723  1.00  0.00     0.107 A 
BRANCH  52  53
HETATM   53  C14 UNL     1      41.349  34.810 -14.825  1.00  0.00     0.206 C 
BRANCH  53  54
HETATM   54  O6  UNL     1      41.228  36.110 -14.893  1.00  0.00    -0.339 OA
ATOM     55  H6  UNL     1      40.670  36.484 -15.565  1.00  0.00     0.220 HD
ENDBRANCH  53  54
BRANCH  53  56
HETATM   56  O7  UNL     1      42.090  34.356 -15.837  1.00  0.00    -0.334 OA
HETATM   57  C15 UNL     1      41.622  33.943 -17.093  1.00  0.00     0.212 C 
ENDBRANCH  53  56
ENDBRANCH  52  53
ENDBRANCH  35  43
ENDBRANCH  33  35
ENDBRANCH  32  33
ENDBRANCH   5  32
TORSDOF 17
ENDMDL
MODEL 4
REMARK VINA RESULT: -8.649823593      1.985      3.797
REMARK  17 active torsions:
REMARK  status: ('A' for Active; 'I' for Inactive)
REMARK    1  A    between atoms: O1_2  and  N1_3 
REMARK    2  A    between atoms: N1_3  and  C2_4 
REMARK    3  A    between atoms: C2_4  and  C3_5 
REMARK    4  A    between atoms: C2_4  and  C24_54 
REMARK       I    between atoms: C3_5  and  N2_7 
REMARK    5  A    between atoms: N2_7  and  N3_9 
REMARK    6  A    between atoms: C4_10  and  C5_11 
REMARK       I    between atoms: C5_11  and  N4_13 
REMARK       I    between atoms: N4_13  and  C6_15 
REMARK    7  A    between atoms: C6_15  and  C7_17 
REMARK    8  A    between atoms: C7_17  and  N5_18 
REMARK    9  A    between atoms: N5_18  and  C8_20 
REMARK   10  A    between atoms: C8_20  and  C9_21 
REMARK   11  A    between atoms: C8_20  and  C10_28 
REMARK       I    between atoms: C9_21  and  N6_23 
REMARK   12  A    between atoms: N6_23  and  N7_25 
REMARK   13  A    between atoms: C13_36  and  C14_37 
REMARK   14  A    between atoms: C14_37  and  O6_38 
REMARK   15  A    between atoms: C14_37  and  O7_40 
REMARK   16  A    between atoms: C19_46  and  O8_47 
REMARK   17  A    between atoms: C24_54  and  O11_56 
ROOT
HETATM    1  C5  UNL     1      48.276  35.357  -8.053  1.00  0.00     0.277 C 
HETATM    2  O3  UNL     1      49.021  36.332  -7.796  1.00  0.00    -0.266 OA
HETATM    3  N4  UNL     1      48.020  34.524  -6.904  1.00  0.00    -0.287 N 
ATOM      4  H4  UNL     1      47.419  33.711  -7.042  1.00  0.00     0.172 HD
HETATM    5  C6  UNL     1      48.528  34.736  -5.611  1.00  0.00     0.263 C 
HETATM    6  O4  UNL     1      48.185  33.875  -4.726  1.00  0.00    -0.267 OA
ENDROOT
BRANCH   1   7
HETATM    7  C4  UNL     1      47.699  35.041  -9.349  1.00  0.00     0.129 A 
HETATM    8  N3  UNL     1      48.495  34.617 -10.388  1.00  0.00    -0.212 N 
HETATM    9  C23 UNL     1      47.918  34.456 -11.598  1.00  0.00     0.278 A 
HETATM   10  C22 UNL     1      46.562  34.696 -11.851  1.00  0.00     0.044 A 
HETATM   11  O9  UNL     1      48.567  34.073 -12.591  1.00  0.00    -0.265 OA
HETATM   12  C17 UNL     1      45.765  35.111 -10.831  1.00  0.00    -0.015 A 
HETATM   13  C21 UNL     1      46.029  34.514 -13.109  1.00  0.00     0.021 A 
HETATM   14  C16 UNL     1      46.353  35.276  -9.596  1.00  0.00     0.050 A 
HETATM   15  C18 UNL     1      44.427  35.352 -11.046  1.00  0.00     0.049 A 
HETATM   16  C19 UNL     1      43.882  35.173 -12.311  1.00  0.00     0.066 A 
HETATM   17  C20 UNL     1      44.694  34.748 -13.355  1.00  0.00     0.037 A 
BRANCH   8  18
HETATM   18  N2  UNL     1      49.787  34.225 -10.092  1.00  0.00    -0.258 N 
HETATM   19  C3  UNL     1      50.336  32.938 -10.073  1.00  0.00     0.268 C 
HETATM   20  O2  UNL     1      49.692  31.912 -10.362  1.00  0.00    -0.269 OA
ATOM     21  H2  UNL     1      50.431  34.979  -9.855  1.00  0.00     0.190 HD
BRANCH  19  22
HETATM   22  C2  UNL     1      51.798  32.745  -9.681  1.00  0.00     0.298 C 
BRANCH  22  23
HETATM   23  N1  UNL     1      51.884  32.698  -8.218  1.00  0.00    -0.077 NA
BRANCH  23  24
HETATM   24  O1  UNL     1      52.988  31.950  -7.903  1.00  0.00    -0.290 OA
HETATM   25  C1  UNL     1      52.711  30.650  -8.287  1.00  0.00     0.231 C 
ENDBRANCH  23  24
ENDBRANCH  22  23
BRANCH  22  26
HETATM   26  C24 UNL     1      52.661  33.809 -10.205  1.00  0.00     0.289 C 
HETATM   27  O10 UNL     1      52.441  35.032  -9.885  1.00  0.00    -0.263 OA
BRANCH  26  28
HETATM   28  O11 UNL     1      53.729  33.613 -11.045  1.00  0.00    -0.325 OA
HETATM   29  C25 UNL     1      54.468  32.405 -11.064  1.00  0.00     0.213 C 
ENDBRANCH  26  28
ENDBRANCH  22  26
ENDBRANCH  19  22
ENDBRANCH   8  18
BRANCH  16  30
HETATM   30  O8  UNL     1      42.532  35.408 -12.562  1.00  0.00    -0.361 OA
ATOM     31  H8  UNL     1      41.895  34.704 -12.546  1.00  0.00     0.217 HD
ENDBRANCH  16  30
ENDBRANCH   1   7
BRANCH   5  32
HETATM   32  C7  UNL     1      49.388  35.825  -5.213  1.00  0.00     0.163 C 
BRANCH  32  33
HETATM   33  N5  UNL     1      48.772  37.062  -4.935  1.00  0.00    -0.353 N 
ATOM     34  H5  UNL     1      47.767  37.080  -4.764  1.00  0.00     0.165 HD
BRANCH  33  35
HETATM   35  C8  UNL     1      49.475  38.253  -4.884  1.00  0.00     0.148 C 
BRANCH  35  36
HETATM   36  C9  UNL     1      49.023  39.258  -3.882  1.00  0.00     0.290 C 
HETATM   37  O5  UNL     1      49.825  40.071  -3.387  1.00  0.00    -0.264 OA
HETATM   38  N6  UNL     1      47.680  39.332  -3.454  1.00  0.00    -0.271 N 
ATOM     39  H6  UNL     1      46.993  38.683  -3.836  1.00  0.00     0.189 HD
BRANCH  38  40
HETATM   40  N7  UNL     1      47.286  40.275  -2.521  1.00  0.00    -0.342 N 
ATOM     41  H72 UNL     1      46.408  40.771  -2.669  1.00  0.00     0.176 HD
ATOM     42  H71 UNL     1      47.863  40.469  -1.702  1.00  0.00     0.176 HD
ENDBRANCH  38  40
ENDBRANCH  35  36
BRANCH  35  43
HETATM   43  C10 UNL     1      49.901  38.939  -6.108  1.00  0.00     0.162 A 
HETATM   44  N8  UNL     1      49.215  40.111  -6.472  1.00  0.00    -0.281 N 
HETATM   45  N9  UNL     1      49.697  40.619  -7.542  1.00  0.00    -0.277 N 
ATOM     46  H8  UNL     1      48.433  40.506  -5.949  1.00  0.00     0.188 HD
HETATM   47  C11 UNL     1      50.721  39.782  -7.907  1.00  0.00     0.172 A 
ATOM     48  H9  UNL     1      49.387  41.466  -8.021  1.00  0.00     0.189 HD
HETATM   49  S1  UNL     1      51.921  39.569  -9.079  1.00  0.00    -0.061 SA
HETATM   50  N10 UNL     1      50.869  38.754  -7.061  1.00  0.00    -0.268 N 
HETATM   51  C12 UNL     1      52.605  38.157  -8.475  1.00  0.00     0.088 A 
HETATM   52  C13 UNL     1      51.839  37.881  -7.324  1.00  0.00     0.107 A 
BRANCH  52  53
HETATM   53  C14 UNL     1      52.238  36.653  -6.616  1.00  0.00     0.206 C 
BRANCH  53  54
HETATM   54  O6  UNL     1      51.930  35.495  -7.136  1.00  0.00    -0.339 OA
ATOM     55  H6  UNL     1      52.209  35.301  -8.023  1.00  0.00     0.220 HD
ENDBRANCH  53  54
BRANCH  53  56
HETATM   56  O7  UNL     1      52.892  36.490  -5.465  1.00  0.00    -0.334 OA
HETATM   57  C15 UNL     1      54.005  37.224  -5.027  1.00  0.00     0.212 C 
ENDBRANCH  53  56
ENDBRANCH  52  53
ENDBRANCH  35  43
ENDBRANCH  33  35
ENDBRANCH  32  33
ENDBRANCH   5  32
TORSDOF 17
ENDMDL
MODEL 5
REMARK VINA RESULT: -8.508577787      2.262      5.906
REMARK  17 active torsions:
REMARK  status: ('A' for Active; 'I' for Inactive)
REMARK    1  A    between atoms: O1_2  and  N1_3 
REMARK    2  A    between atoms: N1_3  and  C2_4 
REMARK    3  A    between atoms: C2_4  and  C3_5 
REMARK    4  A    between atoms: C2_4  and  C24_54 
REMARK       I    between atoms: C3_5  and  N2_7 
REMARK    5  A    between atoms: N2_7  and  N3_9 
REMARK    6  A    between atoms: C4_10  and  C5_11 
REMARK       I    between atoms: C5_11  and  N4_13 
REMARK       I    between atoms: N4_13  and  C6_15 
REMARK    7  A    between atoms: C6_15  and  C7_17 
REMARK    8  A    between atoms: C7_17  and  N5_18 
REMARK    9  A    between atoms: N5_18  and  C8_20 
REMARK   10  A    between atoms: C8_20  and  C9_21 
REMARK   11  A    between atoms: C8_20  and  C10_28 
REMARK       I    between atoms: C9_21  and  N6_23 
REMARK   12  A    between atoms: N6_23  and  N7_25 
REMARK   13  A    between atoms: C13_36  and  C14_37 
REMARK   14  A    between atoms: C14_37  and  O6_38 
REMARK   15  A    between atoms: C14_37  and  O7_40 
REMARK   16  A    between atoms: C19_46  and  O8_47 
REMARK   17  A    between atoms: C24_54  and  O11_56 
ROOT
HETATM    1  C5  UNL     1      50.491  33.807  -9.286  1.00  0.00     0.277 C 
HETATM    2  O3  UNL     1      49.414  34.358  -8.957  1.00  0.00    -0.266 OA
HETATM    3  N4  UNL     1      51.637  34.669  -9.130  1.00  0.00    -0.287 N 
ATOM      4  H4  UNL     1      52.548  34.283  -9.378  1.00  0.00     0.172 HD
HETATM    5  C6  UNL     1      51.606  35.995  -8.665  1.00  0.00     0.263 C 
HETATM    6  O4  UNL     1      52.737  36.594  -8.604  1.00  0.00    -0.267 OA
ENDROOT
BRANCH   1   7
HETATM    7  C4  UNL     1      50.639  32.449  -9.780  1.00  0.00     0.129 A 
HETATM    8  N3  UNL     1      49.573  31.784 -10.339  1.00  0.00    -0.212 N 
HETATM    9  C23 UNL     1      49.743  30.484 -10.667  1.00  0.00     0.278 A 
HETATM   10  C22 UNL     1      50.938  29.782 -10.469  1.00  0.00     0.044 A 
HETATM   11  O9  UNL     1      48.829  29.811 -11.181  1.00  0.00    -0.265 OA
HETATM   12  C17 UNL     1      51.999  30.430  -9.920  1.00  0.00    -0.015 A 
HETATM   13  C21 UNL     1      51.051  28.455 -10.824  1.00  0.00     0.021 A 
HETATM   14  C16 UNL     1      51.827  31.755  -9.585  1.00  0.00     0.050 A 
HETATM   15  C18 UNL     1      53.188  29.769  -9.715  1.00  0.00     0.049 A 
HETATM   16  C19 UNL     1      53.312  28.431 -10.069  1.00  0.00     0.066 A 
HETATM   17  C20 UNL     1      52.229  27.767 -10.631  1.00  0.00     0.037 A 
BRANCH   8  18
HETATM   18  N2  UNL     1      48.459  32.526 -10.682  1.00  0.00    -0.258 N 
HETATM   19  C3  UNL     1      48.304  33.460 -11.714  1.00  0.00     0.268 C 
HETATM   20  O2  UNL     1      49.205  33.745 -12.524  1.00  0.00    -0.269 OA
ATOM     21  H2  UNL     1      47.634  32.372 -10.103  1.00  0.00     0.190 HD
BRANCH  19  22
HETATM   22  C2  UNL     1      46.972  34.186 -11.882  1.00  0.00     0.298 C 
BRANCH  22  23
HETATM   23  N1  UNL     1      47.209  35.419 -12.638  1.00  0.00    -0.077 NA
BRANCH  23  24
HETATM   24  O1  UNL     1      46.259  35.476 -13.624  1.00  0.00    -0.290 OA
HETATM   25  C1  UNL     1      45.395  36.502 -13.287  1.00  0.00     0.231 C 
ENDBRANCH  23  24
ENDBRANCH  22  23
BRANCH  22  26
HETATM   26  C24 UNL     1      46.339  34.495 -10.595  1.00  0.00     0.289 C 
HETATM   27  O10 UNL     1      47.063  34.724  -9.561  1.00  0.00    -0.263 OA
BRANCH  26  28
HETATM   28  O11 UNL     1      44.985  34.565 -10.382  1.00  0.00    -0.325 OA
HETATM   29  C25 UNL     1      44.045  33.997 -11.276  1.00  0.00     0.213 C 
ENDBRANCH  26  28
ENDBRANCH  22  26
ENDBRANCH  19  22
ENDBRANCH   8  18
BRANCH  16  30
HETATM   30  O8  UNL     1      54.501  27.733  -9.875  1.00  0.00    -0.361 OA
ATOM     31  H8  UNL     1      54.562  26.800 -10.045  1.00  0.00     0.217 HD
ENDBRANCH  16  30
ENDBRANCH   1   7
BRANCH   5  32
HETATM   32  C7  UNL     1      50.423  36.717  -8.262  1.00  0.00     0.163 C 
BRANCH  32  33
HETATM   33  N5  UNL     1      50.505  37.472  -7.074  1.00  0.00    -0.353 N 
ATOM     34  H5  UNL     1      51.168  38.245  -7.031  1.00  0.00     0.165 HD
BRANCH  33  35
HETATM   35  C8  UNL     1      49.722  37.207  -5.964  1.00  0.00     0.148 C 
BRANCH  35  36
HETATM   36  C9  UNL     1      49.194  35.820  -5.830  1.00  0.00     0.290 C 
HETATM   37  O5  UNL     1      49.658  35.042  -4.976  1.00  0.00    -0.264 OA
HETATM   38  N6  UNL     1      48.160  35.333  -6.656  1.00  0.00    -0.271 N 
ATOM     39  H6  UNL     1      47.754  35.940  -7.368  1.00  0.00     0.189 HD
BRANCH  38  40
HETATM   40  N7  UNL     1      47.689  34.040  -6.511  1.00  0.00    -0.342 N 
ATOM     41  H72 UNL     1      48.365  33.281  -6.423  1.00  0.00     0.176 HD
ATOM     42  H71 UNL     1      46.687  33.849  -6.492  1.00  0.00     0.176 HD
ENDBRANCH  38  40
ENDBRANCH  35  36
BRANCH  35  43
HETATM   43  C10 UNL     1      48.710  38.163  -5.500  1.00  0.00     0.162 A 
HETATM   44  N8  UNL     1      47.716  37.688  -4.626  1.00  0.00    -0.281 N 
HETATM   45  N9  UNL     1      46.915  38.623  -4.282  1.00  0.00    -0.277 N 
ATOM     46  H8  UNL     1      47.645  36.722  -4.307  1.00  0.00     0.188 HD
HETATM   47  C11 UNL     1      47.370  39.744  -4.930  1.00  0.00     0.172 A 
ATOM     48  H9  UNL     1      46.110  38.551  -3.659  1.00  0.00     0.189 HD
HETATM   49  S1  UNL     1      47.056  41.393  -5.133  1.00  0.00    -0.061 SA
HETATM   50  N10 UNL     1      48.454  39.498  -5.677  1.00  0.00    -0.268 N 
HETATM   51  C12 UNL     1      48.320  41.756  -6.180  1.00  0.00     0.088 A 
HETATM   52  C13 UNL     1      48.979  40.521  -6.348  1.00  0.00     0.107 A 
BRANCH  52  53
HETATM   53  C14 UNL     1      50.134  40.575  -7.260  1.00  0.00     0.206 C 
BRANCH  53  54
HETATM   54  O6  UNL     1      51.129  41.373  -6.974  1.00  0.00    -0.339 OA
ATOM     55  H6  UNL     1      50.972  42.310  -6.947  1.00  0.00     0.220 HD
ENDBRANCH  53  54
BRANCH  53  56
HETATM   56  O7  UNL     1      50.370  39.925  -8.400  1.00  0.00    -0.334 OA
HETATM   57  C15 UNL     1      51.618  39.739  -9.011  1.00  0.00     0.212 C 
ENDBRANCH  53  56
ENDBRANCH  52  53
ENDBRANCH  35  43
ENDBRANCH  33  35
ENDBRANCH  32  33
ENDBRANCH   5  32
TORSDOF 17
ENDMDL
