MODEL 1
REMARK VINA RESULT: -9.173723725      0.000      0.000
REMARK  14 active torsions:
REMARK  status: ('A' for Active; 'I' for Inactive)
REMARK    1  A    between atoms: C4_4  and  N1_5 
REMARK    2  A    between atoms: C6_9  and  C7_10 
REMARK    3  A    between atoms: C8_15  and  C9_16 
REMARK    4  A    between atoms: C9_16  and  N5_17 
REMARK    5  A    between atoms: N5_17  and  S1_19 
REMARK    6  A    between atoms: S1_19  and  N6_20 
REMARK    7  A    between atoms: C10_28  and  O4_30 
REMARK    8  A    between atoms: C12_32  and  O5_33 
REMARK    9  A    between atoms: C14_37  and  C15_38 
REMARK   10  A    between atoms: C15_38  and  C16_39 
REMARK   11  A    between atoms: C16_39  and  N8_40 
REMARK       I    between atoms: N8_40  and  C17_42 
REMARK   12  A    between atoms: C17_42  and  C18_44 
REMARK   13  A    between atoms: C19_45  and  O8_46 
REMARK   14  A    between atoms: N10_52  and  C21_53 
ROOT
HETATM    1  C21 UNL     1      40.377  30.872 -16.644  1.00  0.00     0.258 C 
HETATM    2  C22 UNL     1      41.306  31.847 -17.232  1.00  0.00     0.079 C 
HETATM    3  N11 UNL     1      42.026  32.632 -17.703  1.00  0.00    -0.196 NA
ENDROOT
BRANCH   1   4
HETATM    4  N10 UNL     1      39.182  30.695 -17.412  1.00  0.00    -0.278 N 
HETATM    5  C18 UNL     1      38.011  31.375 -17.348  1.00  0.00     0.159 A 
HETATM    6  C19 UNL     1      37.141  30.825 -18.271  1.00  0.00     0.177 A 
HETATM    7  N9  UNL     1      37.808  29.807 -18.888  1.00  0.00    -0.287 N 
HETATM    8  C20 UNL     1      39.032  29.734 -18.369  1.00  0.00     0.330 A 
ATOM      9  H9  UNL     1      37.434  29.206 -19.621  1.00  0.00     0.172 HD
HETATM   10  O9  UNL     1      39.940  28.904 -18.699  1.00  0.00    -0.246 OA
BRANCH   5  11
HETATM   11  C17 UNL     1      37.790  32.490 -16.443  1.00  0.00     0.272 C 
HETATM   12  N8  UNL     1      38.193  33.788 -16.763  1.00  0.00    -0.355 N 
ATOM     13  H8  UNL     1      38.658  33.951 -17.656  1.00  0.00     0.162 HD
HETATM   14  O7  UNL     1      37.230  32.305 -15.344  1.00  0.00    -0.266 OA
BRANCH  12  15
HETATM   15  C16 UNL     1      37.973  34.934 -15.858  1.00  0.00     0.125 C 
BRANCH  15  16
HETATM   16  C15 UNL     1      39.141  35.803 -15.770  1.00  0.00     0.054 C 
BRANCH  16  17
HETATM   17  C14 UNL     1      40.366  35.234 -15.114  1.00  0.00     0.149 C 
HETATM   18  C13 UNL     1      40.929  36.131 -14.037  1.00  0.00     0.203 C 
HETATM   19  O6  UNL     1      42.300  35.922 -13.930  1.00  0.00    -0.348 OA
HETATM   20  C12 UNL     1      42.692  35.718 -12.609  1.00  0.00     0.227 C 
HETATM   21  C2  UNL     1      42.414  34.307 -12.201  1.00  0.00     0.121 C 
HETATM   22  C10 UNL     1      44.171  35.974 -12.427  1.00  0.00     0.137 C 
HETATM   23  C1  UNL     1      41.510  34.190 -11.001  1.00  0.00     0.052 C 
HETATM   24  C3  UNL     1      43.781  33.770 -11.750  1.00  0.00     0.075 C 
HETATM   25  O11 UNL     1      42.022  33.582 -13.284  1.00  0.00    -0.351 OA
HETATM   26  C4  UNL     1      44.540  35.021 -11.339  1.00  0.00     0.169 C 
HETATM   27  C23 UNL     1      40.658  33.556 -13.518  1.00  0.00     0.339 C 
HETATM   28  O10 UNL     1      40.279  33.923 -14.769  1.00  0.00    -0.359 OA
HETATM   29  C11 UNL     1      44.381  37.389 -11.954  1.00  0.00     0.054 C 
BRANCH  20  30
HETATM   30  O5  UNL     1      42.016  36.562 -11.723  1.00  0.00    -0.361 OA
ATOM     31  H5  UNL     1      41.844  37.380 -12.174  1.00  0.00     0.213 HD
ENDBRANCH  20  30
BRANCH  26  32
HETATM   32  N1  UNL     1      45.938  34.684 -11.295  1.00  0.00    -0.226 N 
HETATM   33  N2  UNL     1      46.571  34.171 -12.363  1.00  0.00    -0.293 N 
HETATM   34  C5  UNL     1      47.840  33.963 -12.023  1.00  0.00     0.144 A 
ATOM     35  H2  UNL     1      46.153  33.976 -13.272  1.00  0.00     0.187 HD
HETATM   36  C6  UNL     1      48.008  34.355 -10.712  1.00  0.00     0.119 A 
HETATM   37  N7  UNL     1      46.814  34.793 -10.296  1.00  0.00    -0.278 N 
ATOM     38  H7  UNL     1      46.608  35.153  -9.364  1.00  0.00     0.189 HD
BRANCH  36  39
HETATM   39  C7  UNL     1      49.251  34.296  -9.941  1.00  0.00     0.194 A 
HETATM   40  N3  UNL     1      50.351  33.607 -10.206  1.00  0.00    -0.276 N 
HETATM   41  N4  UNL     1      51.229  33.850  -9.236  1.00  0.00    -0.280 N 
ATOM     42  H3  UNL     1      50.499  32.998 -11.011  1.00  0.00     0.189 HD
HETATM   43  C8  UNL     1      50.665  34.697  -8.364  1.00  0.00     0.159 A 
ATOM     44  H4  UNL     1      52.169  33.460  -9.168  1.00  0.00     0.189 HD
HETATM   45  O3  UNL     1      49.478  34.944  -8.819  1.00  0.00    -0.274 OA
BRANCH  43  46
HETATM   46  C9  UNL     1      51.292  35.239  -7.125  1.00  0.00     0.219 C 
BRANCH  46  47
HETATM   47  N5  UNL     1      50.921  36.643  -6.974  1.00  0.00    -0.295 N 
ATOM     48  H5  UNL     1      51.358  37.430  -7.454  1.00  0.00     0.174 HD
BRANCH  47  49
HETATM   49  S1  UNL     1      49.617  36.747  -5.844  1.00  0.00     0.313 S 
HETATM   50  O1  UNL     1      49.663  35.481  -5.004  1.00  0.00    -0.183 OA
HETATM   51  O2  UNL     1      49.768  37.891  -4.900  1.00  0.00    -0.183 OA
BRANCH  49  52
HETATM   52  N6  UNL     1      48.098  36.811  -6.686  1.00  0.00    -0.312 N 
ATOM     53  H62 UNL     1      47.331  37.435  -6.434  1.00  0.00     0.170 HD
ATOM     54  H61 UNL     1      48.093  36.140  -7.454  1.00  0.00     0.170 HD
ENDBRANCH  49  52
ENDBRANCH  47  49
ENDBRANCH  46  47
ENDBRANCH  43  46
ENDBRANCH  36  39
ENDBRANCH  26  32
BRANCH  22  55
HETATM   55  O4  UNL     1      44.885  35.761 -13.601  1.00  0.00    -0.382 OA
ATOM     56  H4  UNL     1      44.351  35.404 -14.301  1.00  0.00     0.210 HD
ENDBRANCH  22  55
ENDBRANCH  16  17
ENDBRANCH  15  16
ENDBRANCH  12  15
ENDBRANCH   5  11
BRANCH   6  57
HETATM   57  O8  UNL     1      35.840  31.191 -18.557  1.00  0.00    -0.344 OA
ATOM     58  H8  UNL     1      35.105  30.637 -18.795  1.00  0.00     0.219 HD
ENDBRANCH   6  57
ENDBRANCH   1   4
TORSDOF 14
ENDMDL
MODEL 2
REMARK VINA RESULT: -8.950328643      1.843      2.951
REMARK  14 active torsions:
REMARK  status: ('A' for Active; 'I' for Inactive)
REMARK    1  A    between atoms: C4_4  and  N1_5 
REMARK    2  A    between atoms: C6_9  and  C7_10 
REMARK    3  A    between atoms: C8_15  and  C9_16 
REMARK    4  A    between atoms: C9_16  and  N5_17 
REMARK    5  A    between atoms: N5_17  and  S1_19 
REMARK    6  A    between atoms: S1_19  and  N6_20 
REMARK    7  A    between atoms: C10_28  and  O4_30 
REMARK    8  A    between atoms: C12_32  and  O5_33 
REMARK    9  A    between atoms: C14_37  and  C15_38 
REMARK   10  A    between atoms: C15_38  and  C16_39 
REMARK   11  A    between atoms: C16_39  and  N8_40 
REMARK       I    between atoms: N8_40  and  C17_42 
REMARK   12  A    between atoms: C17_42  and  C18_44 
REMARK   13  A    between atoms: C19_45  and  O8_46 
REMARK   14  A    between atoms: N10_52  and  C21_53 
ROOT
HETATM    1  C21 UNL     1      41.352  30.212 -17.025  1.00  0.00     0.258 C 
HETATM    2  C22 UNL     1      42.022  30.988 -18.078  1.00  0.00     0.079 C 
HETATM    3  N11 UNL     1      42.536  31.599 -18.925  1.00  0.00    -0.196 NA
ENDROOT
BRANCH   1   4
HETATM    4  N10 UNL     1      40.734  29.016 -17.511  1.00  0.00    -0.278 N 
HETATM    5  C18 UNL     1      39.516  28.849 -18.082  1.00  0.00     0.159 A 
HETATM    6  C19 UNL     1      39.351  27.505 -18.363  1.00  0.00     0.177 A 
HETATM    7  N9  UNL     1      40.487  26.872 -17.951  1.00  0.00    -0.287 N 
HETATM    8  C20 UNL     1      41.313  27.782 -17.442  1.00  0.00     0.330 A 
ATOM      9  H9  UNL     1      40.671  25.871 -18.023  1.00  0.00     0.172 HD
HETATM   10  O9  UNL     1      42.471  27.561 -16.958  1.00  0.00    -0.246 OA
BRANCH   5  11
HETATM   11  C17 UNL     1      38.601  29.950 -18.334  1.00  0.00     0.272 C 
HETATM   12  N8  UNL     1      37.791  30.478 -17.326  1.00  0.00    -0.355 N 
ATOM     13  H8  UNL     1      37.845  30.072 -16.391  1.00  0.00     0.162 HD
HETATM   14  O7  UNL     1      38.520  30.452 -19.473  1.00  0.00    -0.266 OA
BRANCH  12  15
HETATM   15  C16 UNL     1      36.861  31.599 -17.561  1.00  0.00     0.125 C 
BRANCH  15  16
HETATM   16  C15 UNL     1      36.973  32.636 -16.540  1.00  0.00     0.054 C 
BRANCH  16  17
HETATM   17  C14 UNL     1      38.253  32.684 -15.756  1.00  0.00     0.149 C 
HETATM   18  C13 UNL     1      38.554  34.056 -15.202  1.00  0.00     0.203 C 
HETATM   19  O6  UNL     1      39.930  34.213 -15.075  1.00  0.00    -0.348 OA
HETATM   20  C12 UNL     1      40.284  34.692 -13.816  1.00  0.00     0.227 C 
HETATM   21  C2  UNL     1      40.288  33.574 -12.823  1.00  0.00     0.121 C 
HETATM   22  C10 UNL     1      41.663  35.311 -13.828  1.00  0.00     0.137 C 
HETATM   23  C1  UNL     1      39.365  33.798 -11.653  1.00  0.00     0.052 C 
HETATM   24  C3  UNL     1      41.711  33.592 -12.244  1.00  0.00     0.075 C 
HETATM   25  O11 UNL     1      40.119  32.386 -13.464  1.00  0.00    -0.351 OA
HETATM   26  C4  UNL     1      42.165  35.028 -12.451  1.00  0.00     0.169 C 
HETATM   27  C23 UNL     1      38.805  31.969 -13.604  1.00  0.00     0.339 C 
HETATM   28  O10 UNL     1      38.427  31.667 -14.872  1.00  0.00    -0.359 OA
HETATM   29  C11 UNL     1      41.542  36.800 -14.027  1.00  0.00     0.054 C 
BRANCH  20  30
HETATM   30  O5  UNL     1      39.396  35.670 -13.356  1.00  0.00    -0.361 OA
ATOM     31  H5  UNL     1      39.509  36.443 -13.897  1.00  0.00     0.213 HD
ENDBRANCH  20  30
BRANCH  26  32
HETATM   32  N1  UNL     1      43.598  35.050 -12.326  1.00  0.00    -0.226 N 
HETATM   33  N2  UNL     1      44.369  35.718 -13.199  1.00  0.00    -0.293 N 
HETATM   34  C5  UNL     1      45.636  35.557 -12.829  1.00  0.00     0.144 A 
ATOM     35  H2  UNL     1      44.042  36.254 -14.002  1.00  0.00     0.187 HD
HETATM   36  C6  UNL     1      45.662  34.770 -11.698  1.00  0.00     0.119 A 
HETATM   37  N7  UNL     1      44.387  34.476 -11.417  1.00  0.00    -0.278 N 
ATOM     38  H7  UNL     1      44.070  33.905 -10.634  1.00  0.00     0.189 HD
BRANCH  36  39
HETATM   39  C7  UNL     1      46.854  34.346 -10.962  1.00  0.00     0.194 A 
HETATM   40  N3  UNL     1      47.654  33.320 -11.212  1.00  0.00    -0.276 N 
HETATM   41  N4  UNL     1      48.611  33.313 -10.287  1.00  0.00    -0.280 N 
ATOM     42  H3  UNL     1      47.555  32.654 -11.978  1.00  0.00     0.189 HD
HETATM   43  C8  UNL     1      48.398  34.345  -9.458  1.00  0.00     0.159 A 
ATOM     44  H4  UNL     1      49.374  32.640 -10.220  1.00  0.00     0.189 HD
HETATM   45  O3  UNL     1      47.336  34.944  -9.893  1.00  0.00    -0.274 OA
BRANCH  43  46
HETATM   46  C9  UNL     1      49.228  34.716  -8.277  1.00  0.00     0.219 C 
BRANCH  46  47
HETATM   47  N5  UNL     1      48.391  35.406  -7.300  1.00  0.00    -0.295 N 
ATOM     48  H5  UNL     1      47.477  35.820  -7.485  1.00  0.00     0.174 HD
BRANCH  47  49
HETATM   49  S1  UNL     1      49.209  35.402  -5.777  1.00  0.00     0.313 S 
HETATM   50  O1  UNL     1      48.598  34.280  -4.954  1.00  0.00    -0.183 OA
HETATM   51  O2  UNL     1      50.662  35.092  -5.909  1.00  0.00    -0.183 OA
BRANCH  49  52
HETATM   52  N6  UNL     1      48.951  36.910  -4.954  1.00  0.00    -0.312 N 
ATOM     53  H62 UNL     1      48.736  37.789  -5.425  1.00  0.00     0.170 HD
ATOM     54  H61 UNL     1      49.047  36.783  -3.946  1.00  0.00     0.170 HD
ENDBRANCH  49  52
ENDBRANCH  47  49
ENDBRANCH  46  47
ENDBRANCH  43  46
ENDBRANCH  36  39
ENDBRANCH  26  32
BRANCH  22  55
HETATM   55  O4  UNL     1      42.469  34.768 -14.823  1.00  0.00    -0.382 OA
ATOM     56  H4  UNL     1      42.111  33.972 -15.197  1.00  0.00     0.210 HD
ENDBRANCH  22  55
ENDBRANCH  16  17
ENDBRANCH  15  16
ENDBRANCH  12  15
ENDBRANCH   5  11
BRANCH   6  57
HETATM   57  O8  UNL     1      38.270  26.871 -18.944  1.00  0.00    -0.344 OA
ATOM     58  H8  UNL     1      37.710  26.196 -18.578  1.00  0.00     0.219 HD
ENDBRANCH   6  57
ENDBRANCH   1   4
TORSDOF 14
ENDMDL
MODEL 3
REMARK VINA RESULT: -8.920264231      1.917      2.834
REMARK  14 active torsions:
REMARK  status: ('A' for Active; 'I' for Inactive)
REMARK    1  A    between atoms: C4_4  and  N1_5 
REMARK    2  A    between atoms: C6_9  and  C7_10 
REMARK    3  A    between atoms: C8_15  and  C9_16 
REMARK    4  A    between atoms: C9_16  and  N5_17 
REMARK    5  A    between atoms: N5_17  and  S1_19 
REMARK    6  A    between atoms: S1_19  and  N6_20 
REMARK    7  A    between atoms: C10_28  and  O4_30 
REMARK    8  A    between atoms: C12_32  and  O5_33 
REMARK    9  A    between atoms: C14_37  and  C15_38 
REMARK   10  A    between atoms: C15_38  and  C16_39 
REMARK   11  A    between atoms: C16_39  and  N8_40 
REMARK       I    between atoms: N8_40  and  C17_42 
REMARK   12  A    between atoms: C17_42  and  C18_44 
REMARK   13  A    between atoms: C19_45  and  O8_46 
REMARK   14  A    between atoms: N10_52  and  C21_53 
ROOT
HETATM    1  C21 UNL     1      41.491  30.370 -17.070  1.00  0.00     0.258 C 
HETATM    2  C22 UNL     1      42.242  31.038 -18.142  1.00  0.00     0.079 C 
HETATM    3  N11 UNL     1      42.821  31.563 -19.005  1.00  0.00    -0.196 NA
ENDROOT
BRANCH   1   4
HETATM    4  N10 UNL     1      40.850  29.163 -17.496  1.00  0.00    -0.278 N 
HETATM    5  C18 UNL     1      39.591  28.978 -17.966  1.00  0.00     0.159 A 
HETATM    6  C19 UNL     1      39.420  27.630 -18.223  1.00  0.00     0.177 A 
HETATM    7  N9  UNL     1      40.593  27.013 -17.901  1.00  0.00    -0.287 N 
HETATM    8  C20 UNL     1      41.447  27.936 -17.466  1.00  0.00     0.330 A 
ATOM      9  H9  UNL     1      40.783  26.015 -17.980  1.00  0.00     0.172 HD
HETATM   10  O9  UNL     1      42.643  27.732 -17.076  1.00  0.00    -0.246 OA
BRANCH   5  11
HETATM   11  C17 UNL     1      38.646  30.066 -18.150  1.00  0.00     0.272 C 
HETATM   12  N8  UNL     1      37.974  30.646 -17.072  1.00  0.00    -0.355 N 
ATOM     13  H8  UNL     1      38.152  30.289 -16.133  1.00  0.00     0.162 HD
HETATM   14  O7  UNL     1      38.413  30.510 -19.292  1.00  0.00    -0.266 OA
BRANCH  12  15
HETATM   15  C16 UNL     1      37.015  31.756 -17.238  1.00  0.00     0.125 C 
BRANCH  15  16
HETATM   16  C15 UNL     1      37.183  32.791 -16.224  1.00  0.00     0.054 C 
BRANCH  16  17
HETATM   17  C14 UNL     1      38.493  32.819 -15.491  1.00  0.00     0.149 C 
HETATM   18  C13 UNL     1      38.865  34.198 -15.000  1.00  0.00     0.203 C 
HETATM   19  O6  UNL     1      40.250  34.308 -14.930  1.00  0.00    -0.348 OA
HETATM   20  C12 UNL     1      40.669  34.818 -13.704  1.00  0.00     0.227 C 
HETATM   21  C2  UNL     1      40.671  33.737 -12.671  1.00  0.00     0.121 C 
HETATM   22  C10 UNL     1      42.068  35.384 -13.790  1.00  0.00     0.137 C 
HETATM   23  C1  UNL     1      39.802  34.038 -11.476  1.00  0.00     0.052 C 
HETATM   24  C3  UNL     1      42.115  33.722 -12.145  1.00  0.00     0.075 C 
HETATM   25  O11 UNL     1      40.434  32.534 -13.260  1.00  0.00    -0.351 OA
HETATM   26  C4  UNL     1      42.612  35.131 -12.424  1.00  0.00     0.169 C 
HETATM   27  C23 UNL     1      39.101  32.162 -13.335  1.00  0.00     0.339 C 
HETATM   28  O10 UNL     1      38.664  31.829 -14.576  1.00  0.00    -0.359 OA
HETATM   29  C11 UNL     1      41.994  36.868 -14.040  1.00  0.00     0.054 C 
BRANCH  20  30
HETATM   30  O5  UNL     1      39.836  35.844 -13.248  1.00  0.00    -0.361 OA
ATOM     31  H5  UNL     1      40.218  36.671 -13.519  1.00  0.00     0.213 HD
ENDBRANCH  20  30
BRANCH  26  32
HETATM   32  N1  UNL     1      44.049  35.104 -12.353  1.00  0.00    -0.226 N 
HETATM   33  N2  UNL     1      44.808  35.807 -13.209  1.00  0.00    -0.293 N 
HETATM   34  C5  UNL     1      46.082  35.585 -12.900  1.00  0.00     0.144 A 
ATOM     35  H2  UNL     1      44.468  36.405 -13.961  1.00  0.00     0.187 HD
HETATM   36  C6  UNL     1      46.124  34.723 -11.825  1.00  0.00     0.119 A 
HETATM   37  N7  UNL     1      44.853  34.448 -11.515  1.00  0.00    -0.278 N 
ATOM     38  H7  UNL     1      44.547  33.834 -10.760  1.00  0.00     0.189 HD
BRANCH  36  39
HETATM   39  C7  UNL     1      47.329  34.217 -11.165  1.00  0.00     0.194 A 
HETATM   40  N3  UNL     1      47.990  33.094 -11.408  1.00  0.00    -0.276 N 
HETATM   41  N4  UNL     1      49.023  33.039 -10.570  1.00  0.00    -0.280 N 
ATOM     42  H3  UNL     1      47.750  32.396 -12.111  1.00  0.00     0.189 HD
HETATM   43  C8  UNL     1      48.998  34.139  -9.803  1.00  0.00     0.159 A 
ATOM     44  H4  UNL     1      49.713  32.291 -10.520  1.00  0.00     0.189 HD
HETATM   45  O3  UNL     1      47.969  34.823 -10.188  1.00  0.00    -0.274 OA
BRANCH  43  46
HETATM   46  C9  UNL     1      49.970  34.489  -8.729  1.00  0.00     0.219 C 
BRANCH  46  47
HETATM   47  N5  UNL     1      50.187  35.933  -8.730  1.00  0.00    -0.295 N 
ATOM     48  H5  UNL     1      49.666  36.613  -9.285  1.00  0.00     0.174 HD
BRANCH  47  49
HETATM   49  S1  UNL     1      51.476  36.295  -7.636  1.00  0.00     0.313 S 
HETATM   50  O1  UNL     1      51.813  35.001  -6.913  1.00  0.00    -0.183 OA
HETATM   51  O2  UNL     1      52.718  36.728  -8.338  1.00  0.00    -0.183 OA
BRANCH  49  52
HETATM   52  N6  UNL     1      50.958  37.474  -6.470  1.00  0.00    -0.312 N 
ATOM     53  H62 UNL     1      50.615  38.404  -6.711  1.00  0.00     0.170 HD
ATOM     54  H61 UNL     1      51.048  37.099  -5.525  1.00  0.00     0.170 HD
ENDBRANCH  49  52
ENDBRANCH  47  49
ENDBRANCH  46  47
ENDBRANCH  43  46
ENDBRANCH  36  39
ENDBRANCH  26  32
BRANCH  22  55
HETATM   55  O4  UNL     1      42.815  34.775 -14.793  1.00  0.00    -0.382 OA
ATOM     56  H4  UNL     1      42.819  35.269 -15.605  1.00  0.00     0.210 HD
ENDBRANCH  22  55
ENDBRANCH  16  17
ENDBRANCH  15  16
ENDBRANCH  12  15
ENDBRANCH   5  11
BRANCH   6  57
HETATM   57  O8  UNL     1      38.304  26.979 -18.710  1.00  0.00    -0.344 OA
ATOM     58  H8  UNL     1      37.415  26.993 -18.376  1.00  0.00     0.219 HD
ENDBRANCH   6  57
ENDBRANCH   1   4
TORSDOF 14
ENDMDL
MODEL 4
REMARK VINA RESULT: -8.887704841      1.199      1.494
REMARK  14 active torsions:
REMARK  status: ('A' for Active; 'I' for Inactive)
REMARK    1  A    between atoms: C4_4  and  N1_5 
REMARK    2  A    between atoms: C6_9  and  C7_10 
REMARK    3  A    between atoms: C8_15  and  C9_16 
REMARK    4  A    between atoms: C9_16  and  N5_17 
REMARK    5  A    between atoms: N5_17  and  S1_19 
REMARK    6  A    between atoms: S1_19  and  N6_20 
REMARK    7  A    between atoms: C10_28  and  O4_30 
REMARK    8  A    between atoms: C12_32  and  O5_33 
REMARK    9  A    between atoms: C14_37  and  C15_38 
REMARK   10  A    between atoms: C15_38  and  C16_39 
REMARK   11  A    between atoms: C16_39  and  N8_40 
REMARK       I    between atoms: N8_40  and  C17_42 
REMARK   12  A    between atoms: C17_42  and  C18_44 
REMARK   13  A    between atoms: C19_45  and  O8_46 
REMARK   14  A    between atoms: N10_52  and  C21_53 
ROOT
HETATM    1  C21 UNL     1      40.621  30.911 -16.723  1.00  0.00     0.258 C 
HETATM    2  C22 UNL     1      41.609  31.686 -17.487  1.00  0.00     0.079 C 
HETATM    3  N11 UNL     1      42.376  32.311 -18.100  1.00  0.00    -0.196 NA
ENDROOT
BRANCH   1   4
HETATM    4  N10 UNL     1      39.418  30.651 -17.453  1.00  0.00    -0.278 N 
HETATM    5  C18 UNL     1      38.220  31.283 -17.389  1.00  0.00     0.159 A 
HETATM    6  C19 UNL     1      37.355  30.657 -18.267  1.00  0.00     0.177 A 
HETATM    7  N9  UNL     1      38.052  29.644 -18.858  1.00  0.00    -0.287 N 
HETATM    8  C20 UNL     1      39.288  29.645 -18.367  1.00  0.00     0.330 A 
ATOM      9  H9  UNL     1      37.687  28.997 -19.556  1.00  0.00     0.172 HD
HETATM   10  O9  UNL     1      40.225  28.842 -18.684  1.00  0.00    -0.246 OA
BRANCH   5  11
HETATM   11  C17 UNL     1      37.972  32.424 -16.525  1.00  0.00     0.272 C 
HETATM   12  N8  UNL     1      38.308  33.724 -16.908  1.00  0.00    -0.355 N 
ATOM     13  H8  UNL     1      38.743  33.870 -17.819  1.00  0.00     0.162 HD
HETATM   14  O7  UNL     1      37.446  32.262 -15.405  1.00  0.00    -0.266 OA
BRANCH  12  15
HETATM   15  C16 UNL     1      38.058  34.896 -16.046  1.00  0.00     0.125 C 
BRANCH  15  16
HETATM   16  C15 UNL     1      39.222  35.769 -15.946  1.00  0.00     0.054 C 
BRANCH  16  17
HETATM   17  C14 UNL     1      40.430  35.216 -15.245  1.00  0.00     0.149 C 
HETATM   18  C13 UNL     1      40.929  36.111 -14.135  1.00  0.00     0.203 C 
HETATM   19  O6  UNL     1      42.298  35.928 -13.972  1.00  0.00    -0.348 OA
HETATM   20  C12 UNL     1      42.639  35.716 -12.639  1.00  0.00     0.227 C 
HETATM   21  C2  UNL     1      42.373  34.295 -12.260  1.00  0.00     0.121 C 
HETATM   22  C10 UNL     1      44.103  35.999 -12.391  1.00  0.00     0.137 C 
HETATM   23  C1  UNL     1      41.421  34.143 -11.101  1.00  0.00     0.052 C 
HETATM   24  C3  UNL     1      43.731  33.779 -11.758  1.00  0.00     0.075 C 
HETATM   25  O11 UNL     1      42.042  33.575 -13.367  1.00  0.00    -0.351 OA
HETATM   26  C4  UNL     1      44.446  35.040 -11.300  1.00  0.00     0.169 C 
HETATM   27  C23 UNL     1      40.690  33.524 -13.659  1.00  0.00     0.339 C 
HETATM   28  O10 UNL     1      40.356  33.899 -14.920  1.00  0.00    -0.359 OA
HETATM   29  C11 UNL     1      44.263  37.412 -11.893  1.00  0.00     0.054 C 
BRANCH  20  30
HETATM   30  O5  UNL     1      41.908  36.534 -11.772  1.00  0.00    -0.361 OA
ATOM     31  H5  UNL     1      41.977  37.428 -12.088  1.00  0.00     0.213 HD
ENDBRANCH  20  30
BRANCH  26  32
HETATM   32  N1  UNL     1      45.847  34.731 -11.201  1.00  0.00    -0.226 N 
HETATM   33  N2  UNL     1      46.476  34.011 -12.144  1.00  0.00    -0.293 N 
HETATM   34  C5  UNL     1      47.750  33.889 -11.782  1.00  0.00     0.144 A 
ATOM     35  H2  UNL     1      46.053  33.626 -12.988  1.00  0.00     0.187 HD
HETATM   36  C6  UNL     1      47.925  34.548 -10.583  1.00  0.00     0.119 A 
HETATM   37  N7  UNL     1      46.731  35.054 -10.256  1.00  0.00    -0.278 N 
ATOM     38  H7  UNL     1      46.529  35.599  -9.418  1.00  0.00     0.189 HD
BRANCH  36  39
HETATM   39  C7  UNL     1      49.175  34.661  -9.830  1.00  0.00     0.194 A 
HETATM   40  N3  UNL     1      50.190  33.810  -9.787  1.00  0.00    -0.276 N 
HETATM   41  N4  UNL     1      51.114  34.317  -8.975  1.00  0.00    -0.280 N 
ATOM     42  H3  UNL     1      50.251  32.923 -10.288  1.00  0.00     0.189 HD
HETATM   43  C8  UNL     1      50.665  35.493  -8.513  1.00  0.00     0.159 A 
ATOM     44  H4  UNL     1      52.009  33.886  -8.744  1.00  0.00     0.189 HD
HETATM   45  O3  UNL     1      49.499  35.668  -9.047  1.00  0.00    -0.274 OA
BRANCH  43  46
HETATM   46  C9  UNL     1      51.378  36.404  -7.573  1.00  0.00     0.219 C 
BRANCH  46  47
HETATM   47  N5  UNL     1      50.626  37.649  -7.449  1.00  0.00    -0.295 N 
ATOM     48  H5  UNL     1      49.690  37.743  -7.054  1.00  0.00     0.174 HD
BRANCH  47  49
HETATM   49  S1  UNL     1      51.588  38.937  -8.086  1.00  0.00     0.313 S 
HETATM   50  O1  UNL     1      51.614  38.759  -9.595  1.00  0.00    -0.183 OA
HETATM   51  O2  UNL     1      50.993  40.278  -7.825  1.00  0.00    -0.183 OA
BRANCH  49  52
HETATM   52  N6  UNL     1      53.212  38.829  -7.478  1.00  0.00    -0.312 N 
ATOM     53  H62 UNL     1      53.869  38.090  -7.729  1.00  0.00     0.170 HD
ATOM     54  H61 UNL     1      53.402  39.604  -6.843  1.00  0.00     0.170 HD
ENDBRANCH  49  52
ENDBRANCH  47  49
ENDBRANCH  46  47
ENDBRANCH  43  46
ENDBRANCH  36  39
ENDBRANCH  26  32
BRANCH  22  55
HETATM   55  O4  UNL     1      44.870  35.816 -13.537  1.00  0.00    -0.382 OA
ATOM     56  H4  UNL     1      45.474  36.531 -13.697  1.00  0.00     0.210 HD
ENDBRANCH  22  55
ENDBRANCH  16  17
ENDBRANCH  15  16
ENDBRANCH  12  15
ENDBRANCH   5  11
BRANCH   6  57
HETATM   57  O8  UNL     1      36.033  30.956 -18.536  1.00  0.00    -0.344 OA
ATOM     58  H8  UNL     1      35.680  31.594 -19.146  1.00  0.00     0.219 HD
ENDBRANCH   6  57
ENDBRANCH   1   4
TORSDOF 14
ENDMDL
MODEL 5
REMARK VINA RESULT: -8.866556219      1.184      1.608
REMARK  14 active torsions:
REMARK  status: ('A' for Active; 'I' for Inactive)
REMARK    1  A    between atoms: C4_4  and  N1_5 
REMARK    2  A    between atoms: C6_9  and  C7_10 
REMARK    3  A    between atoms: C8_15  and  C9_16 
REMARK    4  A    between atoms: C9_16  and  N5_17 
REMARK    5  A    between atoms: N5_17  and  S1_19 
REMARK    6  A    between atoms: S1_19  and  N6_20 
REMARK    7  A    between atoms: C10_28  and  O4_30 
REMARK    8  A    between atoms: C12_32  and  O5_33 
REMARK    9  A    between atoms: C14_37  and  C15_38 
REMARK   10  A    between atoms: C15_38  and  C16_39 
REMARK   11  A    between atoms: C16_39  and  N8_40 
REMARK       I    between atoms: N8_40  and  C17_42 
REMARK   12  A    between atoms: C17_42  and  C18_44 
REMARK   13  A    between atoms: C19_45  and  O8_46 
REMARK   14  A    between atoms: N10_52  and  C21_53 
ROOT
HETATM    1  C21 UNL     1      39.181  30.758 -19.753  1.00  0.00     0.258 C 
HETATM    2  C22 UNL     1      39.604  32.118 -20.116  1.00  0.00     0.079 C 
HETATM    3  N11 UNL     1      39.958  33.191 -20.397  1.00  0.00    -0.196 NA
ENDROOT
BRANCH   1   4
HETATM    4  N10 UNL     1      39.705  30.320 -18.495  1.00  0.00    -0.278 N 
HETATM    5  C18 UNL     1      39.573  30.880 -17.267  1.00  0.00     0.159 A 
HETATM    6  C19 UNL     1      40.280  30.109 -16.363  1.00  0.00     0.177 A 
HETATM    7  N9  UNL     1      40.835  29.080 -17.066  1.00  0.00    -0.287 N 
HETATM    8  C20 UNL     1      40.487  29.212 -18.344  1.00  0.00     0.330 A 
ATOM      9  H9  UNL     1      41.416  28.338 -16.680  1.00  0.00     0.172 HD
HETATM   10  O9  UNL     1      40.819  28.436 -19.299  1.00  0.00    -0.246 OA
BRANCH   5  11
HETATM   11  C17 UNL     1      38.795  32.083 -17.024  1.00  0.00     0.272 C 
HETATM   12  N8  UNL     1      39.377  33.352 -17.044  1.00  0.00    -0.355 N 
ATOM     13  H8  UNL     1      40.377  33.430 -17.230  1.00  0.00     0.162 HD
HETATM   14  O7  UNL     1      37.573  32.003 -16.789  1.00  0.00    -0.266 OA
BRANCH  12  15
HETATM   15  C16 UNL     1      38.602  34.585 -16.806  1.00  0.00     0.125 C 
BRANCH  15  16
HETATM   16  C15 UNL     1      38.998  35.260 -15.574  1.00  0.00     0.054 C 
BRANCH  16  17
HETATM   17  C14 UNL     1      40.247  34.769 -14.900  1.00  0.00     0.149 C 
HETATM   18  C13 UNL     1      40.849  35.787 -13.961  1.00  0.00     0.203 C 
HETATM   19  O6  UNL     1      42.223  35.589 -13.880  1.00  0.00    -0.348 OA
HETATM   20  C12 UNL     1      42.665  35.545 -12.560  1.00  0.00     0.227 C 
HETATM   21  C2  UNL     1      42.404  34.193 -11.976  1.00  0.00     0.121 C 
HETATM   22  C10 UNL     1      44.149  35.816 -12.465  1.00  0.00     0.137 C 
HETATM   23  C1  UNL     1      41.545  34.223 -10.738  1.00  0.00     0.052 C 
HETATM   24  C3  UNL     1      43.788  33.710 -11.515  1.00  0.00     0.075 C 
HETATM   25  O11 UNL     1      41.974  33.344 -12.949  1.00  0.00    -0.351 OA
HETATM   26  C4  UNL     1      44.560  35.000 -11.286  1.00  0.00     0.169 C 
HETATM   27  C23 UNL     1      40.601  33.294 -13.127  1.00  0.00     0.339 C 
HETATM   28  O10 UNL     1      40.176  33.510 -14.398  1.00  0.00    -0.359 OA
HETATM   29  C11 UNL     1      44.373  37.277 -12.173  1.00  0.00     0.054 C 
BRANCH  20  30
HETATM   30  O5  UNL     1      42.020  36.490 -11.757  1.00  0.00    -0.361 OA
ATOM     31  H5  UNL     1      41.947  37.295 -12.257  1.00  0.00     0.213 HD
ENDBRANCH  20  30
BRANCH  26  32
HETATM   32  N1  UNL     1      45.959  34.666 -11.254  1.00  0.00    -0.226 N 
HETATM   33  N2  UNL     1      46.576  34.122 -12.315  1.00  0.00    -0.293 N 
HETATM   34  C5  UNL     1      47.850  33.927 -11.989  1.00  0.00     0.144 A 
ATOM     35  H2  UNL     1      46.144  33.898 -13.211  1.00  0.00     0.187 HD
HETATM   36  C6  UNL     1      48.038  34.358 -10.693  1.00  0.00     0.119 A 
HETATM   37  N7  UNL     1      46.851  34.807 -10.272  1.00  0.00    -0.278 N 
ATOM     38  H7  UNL     1      46.658  35.195  -9.348  1.00  0.00     0.189 HD
BRANCH  36  39
HETATM   39  C7  UNL     1      49.294  34.325  -9.941  1.00  0.00     0.194 A 
HETATM   40  N3  UNL     1      50.348  33.546 -10.135  1.00  0.00    -0.276 N 
HETATM   41  N4  UNL     1      51.260  33.858  -9.217  1.00  0.00    -0.280 N 
ATOM     42  H3  UNL     1      50.444  32.834 -10.859  1.00  0.00     0.189 HD
HETATM   43  C8  UNL     1      50.763  34.839  -8.450  1.00  0.00     0.159 A 
ATOM     44  H4  UNL     1      52.178  33.426  -9.115  1.00  0.00     0.189 HD
HETATM   45  O3  UNL     1      49.581  35.094  -8.913  1.00  0.00    -0.274 OA
BRANCH  43  46
HETATM   46  C9  UNL     1      51.447  35.494  -7.299  1.00  0.00     0.219 C 
BRANCH  46  47
HETATM   47  N5  UNL     1      50.738  36.723  -6.956  1.00  0.00    -0.295 N 
ATOM     48  H5  UNL     1      50.587  37.517  -7.579  1.00  0.00     0.174 HD
BRANCH  47  49
HETATM   49  S1  UNL     1      50.198  36.607  -5.318  1.00  0.00     0.313 S 
HETATM   50  O1  UNL     1      50.286  35.140  -4.931  1.00  0.00    -0.183 OA
HETATM   51  O2  UNL     1      51.078  37.350  -4.372  1.00  0.00    -0.183 OA
BRANCH  49  52
HETATM   52  N6  UNL     1      48.544  37.125  -5.194  1.00  0.00    -0.312 N 
ATOM     53  H62 UNL     1      47.785  36.757  -5.768  1.00  0.00     0.170 HD
ATOM     54  H61 UNL     1      48.453  37.840  -4.473  1.00  0.00     0.170 HD
ENDBRANCH  49  52
ENDBRANCH  47  49
ENDBRANCH  46  47
ENDBRANCH  43  46
ENDBRANCH  36  39
ENDBRANCH  26  32
BRANCH  22  55
HETATM   55  O4  UNL     1      44.819  35.462 -13.631  1.00  0.00    -0.382 OA
ATOM     56  H4  UNL     1      45.211  36.205 -14.075  1.00  0.00     0.210 HD
ENDBRANCH  22  55
ENDBRANCH  16  17
ENDBRANCH  15  16
ENDBRANCH  12  15
ENDBRANCH   5  11
BRANCH   6  57
HETATM   57  O8  UNL     1      40.429  30.294 -15.002  1.00  0.00    -0.344 OA
ATOM     58  H8  UNL     1      41.005  29.837 -14.400  1.00  0.00     0.219 HD
ENDBRANCH   6  57
ENDBRANCH   1   4
TORSDOF 14
ENDMDL
