MODEL 1
REMARK VINA RESULT: -5.930153512      0.000      0.000
REMARK  7 active torsions:
REMARK  status: ('A' for Active; 'I' for Inactive)
REMARK    1  A    between atoms: N1_2  and  C2_3 
REMARK    2  A    between atoms: C2_3  and  C3_4 
REMARK    3  A    between atoms: C4_5  and  C5_6 
REMARK    4  A    between atoms: C5_6  and  N2_7 
REMARK    5  A    between atoms: N2_7  and  S1_9 
REMARK    6  A    between atoms: S1_9  and  C6_11 
REMARK    7  A    between atoms: N3_12  and  O2_14 
ROOT
HETATM    1  C5  UNL     1     -17.329   1.478 -20.339  1.00  0.00     0.223 C 
ENDROOT
BRANCH   1   2
HETATM    2  C4  UNL     1     -17.798   1.784 -18.995  1.00  0.00    -0.085 C 
HETATM    3  C3  UNL     1     -18.181   2.055 -17.882  1.00  0.00    -0.077 C 
BRANCH   3   4
HETATM    4  C2  UNL     1     -18.642   2.411 -16.521  1.00  0.00     0.330 C 
BRANCH   4   5
HETATM    5  N1  UNL     1     -19.850   1.683 -16.225  1.00  0.00    -0.061 N 
HETATM    6  C1  UNL     1     -19.497   0.329 -15.896  1.00  0.00     0.273 C 
HETATM    7  C7  UNL     1     -20.524   2.371 -15.145  1.00  0.00     0.238 C 
HETATM    8  C8  UNL     1     -21.996   2.290 -15.402  1.00  0.00     0.029 C 
HETATM    9  C9  UNL     1     -22.092   1.417 -16.649  1.00  0.00     0.029 C 
HETATM   10  C10 UNL     1     -20.768   1.783 -17.331  1.00  0.00     0.238 C 
ENDBRANCH   4   5
ENDBRANCH   3   4
ENDBRANCH   1   2
BRANCH   1  11
HETATM   11  N2  UNL     1     -17.522   0.099 -20.639  1.00  0.00    -0.325 N 
ATOM     12  H2  UNL     1     -18.369  -0.224 -21.107  1.00  0.00     0.171 HD
BRANCH  11  13
HETATM   13  S1  UNL     1     -16.332  -0.960 -20.204  1.00  0.00     0.154 S 
HETATM   14  O1  UNL     1     -15.367  -1.570 -21.384  1.00  0.00    -0.230 OA
BRANCH  13  15
HETATM   15  C6  UNL     1     -16.603  -1.965 -18.849  1.00  0.00     0.214 C 
HETATM   16  N3  UNL     1     -17.600  -1.753 -18.062  1.00  0.00    -0.270 N 
ATOM     17  H3  UNL     1     -18.228  -0.973 -18.257  1.00  0.00     0.194 HD
BRANCH  16  18
HETATM   18  O2  UNL     1     -17.842  -2.553 -16.957  1.00  0.00    -0.290 OA
ATOM     19  H2  UNL     1     -18.344  -3.358 -17.021  1.00  0.00     0.244 HD
ENDBRANCH  16  18
ENDBRANCH  13  15
ENDBRANCH  11  13
ENDBRANCH   1  11
TORSDOF 7
ENDMDL
MODEL 2
REMARK VINA RESULT: -5.813364473      1.203      1.574
REMARK  7 active torsions:
REMARK  status: ('A' for Active; 'I' for Inactive)
REMARK    1  A    between atoms: N1_2  and  C2_3 
REMARK    2  A    between atoms: C2_3  and  C3_4 
REMARK    3  A    between atoms: C4_5  and  C5_6 
REMARK    4  A    between atoms: C5_6  and  N2_7 
REMARK    5  A    between atoms: N2_7  and  S1_9 
REMARK    6  A    between atoms: S1_9  and  C6_11 
REMARK    7  A    between atoms: N3_12  and  O2_14 
ROOT
HETATM    1  C5  UNL     1     -17.845   2.024 -18.937  1.00  0.00     0.223 C 
ENDROOT
BRANCH   1   2
HETATM    2  C4  UNL     1     -18.368   1.298 -17.787  1.00  0.00    -0.085 C 
HETATM    3  C3  UNL     1     -18.796   0.679 -16.843  1.00  0.00    -0.077 C 
BRANCH   3   4
HETATM    4  C2  UNL     1     -19.314  -0.100 -15.696  1.00  0.00     0.330 C 
BRANCH   4   5
HETATM    5  N1  UNL     1     -20.473   0.566 -15.156  1.00  0.00    -0.061 N 
HETATM    6  C1  UNL     1     -21.069  -0.288 -14.166  1.00  0.00     0.273 C 
HETATM    7  C7  UNL     1     -20.037   1.838 -14.620  1.00  0.00     0.238 C 
HETATM    8  C8  UNL     1     -21.111   2.841 -14.900  1.00  0.00     0.029 C 
HETATM    9  C9  UNL     1     -22.218   2.009 -15.539  1.00  0.00     0.029 C 
HETATM   10  C10 UNL     1     -21.375   0.925 -16.221  1.00  0.00     0.238 C 
ENDBRANCH   4   5
ENDBRANCH   3   4
ENDBRANCH   1   2
BRANCH   1  11
HETATM   11  N2  UNL     1     -17.861   1.202 -20.101  1.00  0.00    -0.325 N 
ATOM     12  H2  UNL     1     -18.579   1.317 -20.816  1.00  0.00     0.171 HD
BRANCH  11  13
HETATM   13  S1  UNL     1     -16.678   0.060 -20.255  1.00  0.00     0.154 S 
HETATM   14  O1  UNL     1     -15.628   0.194 -21.509  1.00  0.00    -0.230 OA
BRANCH  13  15
HETATM   15  C6  UNL     1     -17.014  -1.526 -19.713  1.00  0.00     0.214 C 
HETATM   16  N3  UNL     1     -16.905  -1.831 -18.466  1.00  0.00    -0.270 N 
ATOM     17  H3  UNL     1     -16.613  -1.112 -17.803  1.00  0.00     0.194 HD
BRANCH  16  18
HETATM   18  O2  UNL     1     -17.172  -3.108 -18.001  1.00  0.00    -0.290 OA
ATOM     19  H2  UNL     1     -16.479  -3.741 -17.848  1.00  0.00     0.244 HD
ENDBRANCH  16  18
ENDBRANCH  13  15
ENDBRANCH  11  13
ENDBRANCH   1  11
TORSDOF 7
ENDMDL
MODEL 3
REMARK VINA RESULT: -5.724822795      1.362      2.064
REMARK  7 active torsions:
REMARK  status: ('A' for Active; 'I' for Inactive)
REMARK    1  A    between atoms: N1_2  and  C2_3 
REMARK    2  A    between atoms: C2_3  and  C3_4 
REMARK    3  A    between atoms: C4_5  and  C5_6 
REMARK    4  A    between atoms: C5_6  and  N2_7 
REMARK    5  A    between atoms: N2_7  and  S1_9 
REMARK    6  A    between atoms: S1_9  and  C6_11 
REMARK    7  A    between atoms: N3_12  and  O2_14 
ROOT
HETATM    1  C5  UNL     1     -17.819   1.985 -18.975  1.00  0.00     0.223 C 
ENDROOT
BRANCH   1   2
HETATM    2  C4  UNL     1     -19.061   1.838 -18.228  1.00  0.00    -0.085 C 
HETATM    3  C3  UNL     1     -20.100   1.721 -17.625  1.00  0.00    -0.077 C 
BRANCH   3   4
HETATM    4  C2  UNL     1     -21.387   1.585 -16.905  1.00  0.00     0.330 C 
BRANCH   4   5
HETATM    5  N1  UNL     1     -21.125   1.280 -15.521  1.00  0.00    -0.061 N 
HETATM    6  C1  UNL     1     -20.666   2.476 -14.871  1.00  0.00     0.273 C 
HETATM    7  C7  UNL     1     -22.347   0.758 -14.948  1.00  0.00     0.238 C 
HETATM    8  C8  UNL     1     -21.971  -0.324 -13.984  1.00  0.00     0.029 C 
HETATM    9  C9  UNL     1     -20.446  -0.291 -13.989  1.00  0.00     0.029 C 
HETATM   10  C10 UNL     1     -20.196   0.183 -15.426  1.00  0.00     0.238 C 
ENDBRANCH   4   5
ENDBRANCH   3   4
ENDBRANCH   1   2
BRANCH   1  11
HETATM   11  N2  UNL     1     -17.820   1.144 -20.124  1.00  0.00    -0.325 N 
ATOM     12  H2  UNL     1     -18.526   1.251 -20.853  1.00  0.00     0.171 HD
BRANCH  11  13
HETATM   13  S1  UNL     1     -16.642  -0.007 -20.240  1.00  0.00     0.154 S 
HETATM   14  O1  UNL     1     -15.589   0.083 -21.496  1.00  0.00    -0.230 OA
BRANCH  13  15
HETATM   15  C6  UNL     1     -16.985  -1.573 -19.648  1.00  0.00     0.214 C 
HETATM   16  N3  UNL     1     -17.018  -1.804 -18.381  1.00  0.00    -0.270 N 
ATOM     17  H3  UNL     1     -16.835  -1.038 -17.732  1.00  0.00     0.194 HD
BRANCH  16  18
HETATM   18  O2  UNL     1     -17.294  -3.064 -17.875  1.00  0.00    -0.290 OA
ATOM     19  H2  UNL     1     -16.612  -3.620 -17.514  1.00  0.00     0.244 HD
ENDBRANCH  16  18
ENDBRANCH  13  15
ENDBRANCH  11  13
ENDBRANCH   1  11
TORSDOF 7
ENDMDL
MODEL 4
REMARK VINA RESULT: -5.544253569      1.292      1.939
REMARK  7 active torsions:
REMARK  status: ('A' for Active; 'I' for Inactive)
REMARK    1  A    between atoms: N1_2  and  C2_3 
REMARK    2  A    between atoms: C2_3  and  C3_4 
REMARK    3  A    between atoms: C4_5  and  C5_6 
REMARK    4  A    between atoms: C5_6  and  N2_7 
REMARK    5  A    between atoms: N2_7  and  S1_9 
REMARK    6  A    between atoms: S1_9  and  C6_11 
REMARK    7  A    between atoms: N3_12  and  O2_14 
ROOT
HETATM    1  C5  UNL     1     -17.787   2.057 -18.784  1.00  0.00     0.223 C 
ENDROOT
BRANCH   1   2
HETATM    2  C4  UNL     1     -18.547   1.419 -17.716  1.00  0.00    -0.085 C 
HETATM    3  C3  UNL     1     -19.161   0.884 -16.825  1.00  0.00    -0.077 C 
BRANCH   3   4
HETATM    4  C2  UNL     1     -19.892   0.218 -15.723  1.00  0.00     0.330 C 
BRANCH   4   5
HETATM    5  N1  UNL     1     -21.142   0.900 -15.505  1.00  0.00    -0.061 N 
HETATM    6  C1  UNL     1     -21.796   1.068 -16.773  1.00  0.00     0.273 C 
HETATM    7  C7  UNL     1     -21.915   0.112 -14.568  1.00  0.00     0.238 C 
HETATM    8  C8  UNL     1     -22.650   1.059 -13.674  1.00  0.00     0.029 C 
HETATM    9  C9  UNL     1     -22.310   2.430 -14.250  1.00  0.00     0.029 C 
HETATM   10  C10 UNL     1     -20.911   2.141 -14.810  1.00  0.00     0.238 C 
ENDBRANCH   4   5
ENDBRANCH   3   4
ENDBRANCH   1   2
BRANCH   1  11
HETATM   11  N2  UNL     1     -17.834   1.272 -19.972  1.00  0.00    -0.325 N 
ATOM     12  H2  UNL     1     -18.554   1.428 -20.677  1.00  0.00     0.171 HD
BRANCH  11  13
HETATM   13  S1  UNL     1     -16.684   0.103 -20.171  1.00  0.00     0.154 S 
HETATM   14  O1  UNL     1     -15.672   0.221 -21.457  1.00  0.00    -0.230 OA
BRANCH  13  15
HETATM   15  C6  UNL     1     -17.039  -1.477 -19.627  1.00  0.00     0.214 C 
HETATM   16  N3  UNL     1     -17.008  -1.763 -18.371  1.00  0.00    -0.270 N 
ATOM     17  H3  UNL     1     -16.767  -1.031 -17.702  1.00  0.00     0.194 HD
BRANCH  16  18
HETATM   18  O2  UNL     1     -17.292  -3.036 -17.904  1.00  0.00    -0.290 OA
ATOM     19  H2  UNL     1     -17.392  -3.219 -16.977  1.00  0.00     0.244 HD
ENDBRANCH  16  18
ENDBRANCH  13  15
ENDBRANCH  11  13
ENDBRANCH   1  11
TORSDOF 7
ENDMDL
MODEL 5
REMARK VINA RESULT: -5.527063760      1.192      1.886
REMARK  7 active torsions:
REMARK  status: ('A' for Active; 'I' for Inactive)
REMARK    1  A    between atoms: N1_2  and  C2_3 
REMARK    2  A    between atoms: C2_3  and  C3_4 
REMARK    3  A    between atoms: C4_5  and  C5_6 
REMARK    4  A    between atoms: C5_6  and  N2_7 
REMARK    5  A    between atoms: N2_7  and  S1_9 
REMARK    6  A    between atoms: S1_9  and  C6_11 
REMARK    7  A    between atoms: N3_12  and  O2_14 
ROOT
HETATM    1  C5  UNL     1     -17.738   1.858 -18.726  1.00  0.00     0.223 C 
ENDROOT
BRANCH   1   2
HETATM    2  C4  UNL     1     -19.041   1.804 -18.078  1.00  0.00    -0.085 C 
HETATM    3  C3  UNL     1     -20.123   1.778 -17.542  1.00  0.00    -0.077 C 
BRANCH   3   4
HETATM    4  C2  UNL     1     -21.452   1.772 -16.888  1.00  0.00     0.330 C 
BRANCH   4   5
HETATM    5  N1  UNL     1     -21.277   1.620 -15.466  1.00  0.00    -0.061 N 
HETATM    6  C1  UNL     1     -20.824   0.282 -15.203  1.00  0.00     0.273 C 
HETATM    7  C7  UNL     1     -20.339   2.632 -15.028  1.00  0.00     0.238 C 
HETATM    8  C8  UNL     1     -20.785   3.114 -13.684  1.00  0.00     0.029 C 
HETATM    9  C9  UNL     1     -21.980   2.222 -13.363  1.00  0.00     0.029 C 
HETATM   10  C10 UNL     1     -22.500   1.956 -14.781  1.00  0.00     0.238 C 
ENDBRANCH   4   5
ENDBRANCH   3   4
ENDBRANCH   1   2
BRANCH   1  11
HETATM   11  N2  UNL     1     -17.760   1.147 -19.960  1.00  0.00    -0.325 N 
ATOM     12  H2  UNL     1     -18.464   1.349 -20.671  1.00  0.00     0.171 HD
BRANCH  11  13
HETATM   13  S1  UNL     1     -16.611  -0.014 -20.204  1.00  0.00     0.154 S 
HETATM   14  O1  UNL     1     -15.666   0.097 -21.541  1.00  0.00    -0.230 OA
BRANCH  13  15
HETATM   15  C6  UNL     1     -16.923  -1.591 -19.624  1.00  0.00     0.214 C 
HETATM   16  N3  UNL     1     -17.045  -1.815 -18.362  1.00  0.00    -0.270 N 
ATOM     17  H3  UNL     1     -16.952  -1.037 -17.709  1.00  0.00     0.194 HD
BRANCH  16  18
HETATM   18  O2  UNL     1     -17.299  -3.084 -17.866  1.00  0.00    -0.290 OA
ATOM     19  H2  UNL     1     -16.658  -3.556 -17.347  1.00  0.00     0.244 HD
ENDBRANCH  16  18
ENDBRANCH  13  15
ENDBRANCH  11  13
ENDBRANCH   1  11
TORSDOF 7
ENDMDL
