MODEL 1
REMARK VINA RESULT: -5.819399919      0.000      0.000
REMARK  6 active torsions:
REMARK  status: ('A' for Active; 'I' for Inactive)
REMARK    1  A    between atoms: C3_3  and  C4_4 
REMARK    2  A    between atoms: C4_4  and  O1_5 
REMARK    3  A    between atoms: O1_5  and  C5_6 
REMARK    4  A    between atoms: C5_6  and  C6_7 
REMARK    5  A    between atoms: C12_14  and  O2_15 
REMARK    6  A    between atoms: C13_17  and  O3_18 
ROOT
HETATM    1  C1  UNL     1     -16.560   1.253 -21.349  1.00  0.00     0.012 C 
HETATM    2  C2  UNL     1     -16.693   0.128 -20.921  1.00  0.00    -0.115 C 
HETATM    3  C3  UNL     1     -16.866  -1.231 -20.410  1.00  0.00     0.119 C 
ENDROOT
BRANCH   3   4
HETATM    4  C4  UNL     1     -16.039  -1.329 -19.122  1.00  0.00     0.179 C 
BRANCH   4   5
HETATM    5  O1  UNL     1     -16.435  -0.512 -18.146  1.00  0.00    -0.389 OA
BRANCH   5   6
HETATM    6  C5  UNL     1     -17.564  -0.595 -17.451  1.00  0.00     0.181 C 
BRANCH   6   7
HETATM    7  C6  UNL     1     -18.298   0.633 -17.017  1.00  0.00     0.030 C 
HETATM    8  C7  UNL     1     -18.571   1.572 -18.129  1.00  0.00     0.022 C 
HETATM    9  C8  UNL     1     -19.555   0.175 -16.324  1.00  0.00     0.250 C 
HETATM   10  N1  UNL     1     -20.363   1.186 -15.745  1.00  0.00    -0.071 N 
HETATM   11  C9  UNL     1     -21.364   1.743 -16.671  1.00  0.00     0.272 C 
HETATM   12  C10 UNL     1     -21.156   0.516 -14.694  1.00  0.00     0.272 C 
HETATM   13  C11 UNL     1     -19.649   2.291 -15.175  1.00  0.00     0.270 C 
HETATM   14  C12 UNL     1     -18.213   2.026 -14.906  1.00  0.00     0.173 C 
HETATM   15  C13 UNL     1     -17.452   1.346 -15.981  1.00  0.00     0.160 C 
BRANCH  14  16
HETATM   16  O2  UNL     1     -17.591   3.249 -14.637  1.00  0.00    -0.391 OA
ATOM     17  H2  UNL     1     -17.001   3.123 -13.903  1.00  0.00     0.210 HD
ENDBRANCH  14  16
BRANCH  15  18
HETATM   18  O3  UNL     1     -16.536   0.471 -15.379  1.00  0.00    -0.392 OA
ATOM     19  H3  UNL     1     -16.280   0.777 -14.517  1.00  0.00     0.210 HD
ENDBRANCH  15  18
ENDBRANCH   6   7
ENDBRANCH   5   6
ENDBRANCH   4   5
ENDBRANCH   3   4
TORSDOF 6
ENDMDL
MODEL 2
REMARK VINA RESULT: -5.798596945      1.408      1.957
REMARK  6 active torsions:
REMARK  status: ('A' for Active; 'I' for Inactive)
REMARK    1  A    between atoms: C3_3  and  C4_4 
REMARK    2  A    between atoms: C4_4  and  O1_5 
REMARK    3  A    between atoms: O1_5  and  C5_6 
REMARK    4  A    between atoms: C5_6  and  C6_7 
REMARK    5  A    between atoms: C12_14  and  O2_15 
REMARK    6  A    between atoms: C13_17  and  O3_18 
ROOT
HETATM    1  C1  UNL     1     -16.147  -1.329 -21.150  1.00  0.00     0.012 C 
HETATM    2  C2  UNL     1     -16.447  -0.156 -21.108  1.00  0.00    -0.115 C 
HETATM    3  C3  UNL     1     -16.796   1.263 -21.060  1.00  0.00     0.119 C 
ENDROOT
BRANCH   3   4
HETATM    4  C4  UNL     1     -17.934   1.406 -20.043  1.00  0.00     0.179 C 
BRANCH   4   5
HETATM    5  O1  UNL     1     -17.547   1.359 -18.768  1.00  0.00    -0.389 OA
BRANCH   5   6
HETATM    6  C5  UNL     1     -17.974   0.510 -17.840  1.00  0.00     0.181 C 
BRANCH   6   7
HETATM    7  C6  UNL     1     -18.716   0.988 -16.634  1.00  0.00     0.030 C 
HETATM    8  C7  UNL     1     -20.024   1.600 -16.960  1.00  0.00     0.022 C 
HETATM    9  C8  UNL     1     -18.843  -0.184 -15.698  1.00  0.00     0.250 C 
HETATM   10  N1  UNL     1     -19.439   0.072 -14.437  1.00  0.00    -0.071 N 
HETATM   11  C9  UNL     1     -20.905  -0.076 -14.436  1.00  0.00     0.272 C 
HETATM   12  C10 UNL     1     -18.954  -0.993 -13.536  1.00  0.00     0.272 C 
HETATM   13  C11 UNL     1     -19.142   1.354 -13.868  1.00  0.00     0.270 C 
HETATM   14  C12 UNL     1     -17.959   2.032 -14.456  1.00  0.00     0.173 C 
HETATM   15  C13 UNL     1     -17.859   2.025 -15.935  1.00  0.00     0.160 C 
BRANCH  14  16
HETATM   16  O2  UNL     1     -17.964   3.362 -14.025  1.00  0.00    -0.391 OA
ATOM     17  H2  UNL     1     -18.529   3.858 -14.606  1.00  0.00     0.210 HD
ENDBRANCH  14  16
BRANCH  15  18
HETATM   18  O3  UNL     1     -16.507   1.888 -16.280  1.00  0.00    -0.392 OA
ATOM     19  H3  UNL     1     -16.405   1.671 -17.199  1.00  0.00     0.210 HD
ENDBRANCH  15  18
ENDBRANCH   6   7
ENDBRANCH   5   6
ENDBRANCH   4   5
ENDBRANCH   3   4
TORSDOF 6
ENDMDL
MODEL 3
REMARK VINA RESULT: -5.663741515      0.967      1.028
REMARK  6 active torsions:
REMARK  status: ('A' for Active; 'I' for Inactive)
REMARK    1  A    between atoms: C3_3  and  C4_4 
REMARK    2  A    between atoms: C4_4  and  O1_5 
REMARK    3  A    between atoms: O1_5  and  C5_6 
REMARK    4  A    between atoms: C5_6  and  C6_7 
REMARK    5  A    between atoms: C12_14  and  O2_15 
REMARK    6  A    between atoms: C13_17  and  O3_18 
ROOT
HETATM    1  C1  UNL     1     -18.080  -0.809 -21.736  1.00  0.00     0.012 C 
HETATM    2  C2  UNL     1     -17.245  -0.968 -20.874  1.00  0.00    -0.115 C 
HETATM    3  C3  UNL     1     -16.226  -1.162 -19.842  1.00  0.00     0.119 C 
ENDROOT
BRANCH   3   4
HETATM    4  C4  UNL     1     -16.905  -1.897 -18.681  1.00  0.00     0.179 C 
BRANCH   4   5
HETATM    5  O1  UNL     1     -17.276  -1.112 -17.668  1.00  0.00    -0.389 OA
BRANCH   5   6
HETATM    6  C5  UNL     1     -17.123   0.205 -17.588  1.00  0.00     0.181 C 
BRANCH   6   7
HETATM    7  C6  UNL     1     -18.238   1.088 -17.130  1.00  0.00     0.030 C 
HETATM    8  C7  UNL     1     -18.911   1.800 -18.241  1.00  0.00     0.022 C 
HETATM    9  C8  UNL     1     -19.186   0.229 -16.336  1.00  0.00     0.250 C 
HETATM   10  N1  UNL     1     -20.279   0.891 -15.722  1.00  0.00    -0.071 N 
HETATM   11  C9  UNL     1     -21.470   0.987 -16.585  1.00  0.00     0.272 C 
HETATM   12  C10 UNL     1     -20.698   0.027 -14.600  1.00  0.00     0.272 C 
HETATM   13  C11 UNL     1     -20.002   2.210 -15.234  1.00  0.00     0.270 C 
HETATM   14  C12 UNL     1     -18.559   2.516 -15.065  1.00  0.00     0.173 C 
HETATM   15  C13 UNL     1     -17.663   2.117 -16.177  1.00  0.00     0.160 C 
BRANCH  14  16
HETATM   16  O2  UNL     1     -18.428   3.894 -14.873  1.00  0.00    -0.391 OA
ATOM     17  H2  UNL     1     -17.609   4.170 -15.268  1.00  0.00     0.210 HD
ENDBRANCH  14  16
BRANCH  15  18
HETATM   18  O3  UNL     1     -16.450   1.680 -15.624  1.00  0.00    -0.392 OA
ATOM     19  H3  UNL     1     -16.499   1.632 -14.677  1.00  0.00     0.210 HD
ENDBRANCH  15  18
ENDBRANCH   6   7
ENDBRANCH   5   6
ENDBRANCH   4   5
ENDBRANCH   3   4
TORSDOF 6
ENDMDL
MODEL 4
REMARK VINA RESULT: -5.608381981      1.666      2.508
REMARK  6 active torsions:
REMARK  status: ('A' for Active; 'I' for Inactive)
REMARK    1  A    between atoms: C3_3  and  C4_4 
REMARK    2  A    between atoms: C4_4  and  O1_5 
REMARK    3  A    between atoms: O1_5  and  C5_6 
REMARK    4  A    between atoms: C5_6  and  C6_7 
REMARK    5  A    between atoms: C12_14  and  O2_15 
REMARK    6  A    between atoms: C13_17  and  O3_18 
ROOT
HETATM    1  C1  UNL     1     -16.205  -1.241 -21.030  1.00  0.00     0.012 C 
HETATM    2  C2  UNL     1     -16.559  -0.084 -20.968  1.00  0.00    -0.115 C 
HETATM    3  C3  UNL     1     -16.974   1.316 -20.893  1.00  0.00     0.119 C 
ENDROOT
BRANCH   3   4
HETATM    4  C4  UNL     1     -18.352   1.336 -20.222  1.00  0.00     0.179 C 
BRANCH   4   5
HETATM    5  O1  UNL     1     -18.433   2.116 -19.144  1.00  0.00    -0.389 OA
BRANCH   5   6
HETATM    6  C5  UNL     1     -17.792   1.946 -17.993  1.00  0.00     0.181 C 
BRANCH   6   7
HETATM    7  C6  UNL     1     -18.537   1.697 -16.721  1.00  0.00     0.030 C 
HETATM    8  C7  UNL     1     -18.165   2.632 -15.635  1.00  0.00     0.022 C 
HETATM    9  C8  UNL     1     -20.006   1.748 -17.050  1.00  0.00     0.250 C 
HETATM   10  N1  UNL     1     -20.903   1.442 -15.996  1.00  0.00    -0.071 N 
HETATM   11  C9  UNL     1     -21.289   2.614 -15.191  1.00  0.00     0.272 C 
HETATM   12  C10 UNL     1     -22.155   1.004 -16.644  1.00  0.00     0.272 C 
HETATM   13  C11 UNL     1     -20.456   0.430 -15.084  1.00  0.00     0.270 C 
HETATM   14  C12 UNL     1     -19.351  -0.419 -15.596  1.00  0.00     0.173 C 
HETATM   15  C13 UNL     1     -18.231   0.284 -16.266  1.00  0.00     0.160 C 
BRANCH  14  16
HETATM   16  O2  UNL     1     -18.831  -1.147 -14.523  1.00  0.00    -0.391 OA
ATOM     17  H2  UNL     1     -19.460  -1.821 -14.291  1.00  0.00     0.210 HD
ENDBRANCH  14  16
BRANCH  15  18
HETATM   18  O3  UNL     1     -17.791  -0.513 -17.333  1.00  0.00    -0.392 OA
ATOM     19  H3  UNL     1     -18.335  -1.286 -17.435  1.00  0.00     0.210 HD
ENDBRANCH  15  18
ENDBRANCH   6   7
ENDBRANCH   5   6
ENDBRANCH   4   5
ENDBRANCH   3   4
TORSDOF 6
ENDMDL
MODEL 5
REMARK VINA RESULT: -5.405519402      1.479      2.121
REMARK  6 active torsions:
REMARK  status: ('A' for Active; 'I' for Inactive)
REMARK    1  A    between atoms: C3_3  and  C4_4 
REMARK    2  A    between atoms: C4_4  and  O1_5 
REMARK    3  A    between atoms: O1_5  and  C5_6 
REMARK    4  A    between atoms: C5_6  and  C6_7 
REMARK    5  A    between atoms: C12_14  and  O2_15 
REMARK    6  A    between atoms: C13_17  and  O3_18 
ROOT
HETATM    1  C1  UNL     1     -16.499  -1.186 -21.334  1.00  0.00     0.012 C 
HETATM    2  C2  UNL     1     -16.731  -0.024 -21.084  1.00  0.00    -0.115 C 
HETATM    3  C3  UNL     1     -16.999   1.382 -20.783  1.00  0.00     0.119 C 
ENDROOT
BRANCH   3   4
HETATM    4  C4  UNL     1     -18.275   1.419 -19.934  1.00  0.00     0.179 C 
BRANCH   4   5
HETATM    5  O1  UNL     1     -18.079   1.719 -18.650  1.00  0.00    -0.389 OA
BRANCH   5   6
HETATM    6  C5  UNL     1     -18.377   0.958 -17.603  1.00  0.00     0.181 C 
BRANCH   6   7
HETATM    7  C6  UNL     1     -19.417   1.375 -16.613  1.00  0.00     0.030 C 
HETATM    8  C7  UNL     1     -20.716   1.710 -17.239  1.00  0.00     0.022 C 
HETATM    9  C8  UNL     1     -19.532   0.268 -15.599  1.00  0.00     0.250 C 
HETATM   10  N1  UNL     1     -20.404   0.498 -14.505  1.00  0.00    -0.071 N 
HETATM   11  C9  UNL     1     -21.794   0.081 -14.761  1.00  0.00     0.272 C 
HETATM   12  C10 UNL     1     -19.939  -0.393 -13.422  1.00  0.00     0.272 C 
HETATM   13  C11 UNL     1     -20.447   1.849 -14.028  1.00  0.00     0.270 C 
HETATM   14  C12 UNL     1     -19.301   2.692 -14.455  1.00  0.00     0.173 C 
HETATM   15  C13 UNL     1     -18.905   2.599 -15.880  1.00  0.00     0.160 C 
BRANCH  14  16
HETATM   16  O2  UNL     1     -19.615   4.024 -14.174  1.00  0.00    -0.391 OA
ATOM     17  H2  UNL     1     -19.414   4.188 -13.260  1.00  0.00     0.210 HD
ENDBRANCH  14  16
BRANCH  15  18
HETATM   18  O3  UNL     1     -17.507   2.691 -15.952  1.00  0.00    -0.392 OA
ATOM     19  H3  UNL     1     -17.178   3.395 -15.405  1.00  0.00     0.210 HD
ENDBRANCH  15  18
ENDBRANCH   6   7
ENDBRANCH   5   6
ENDBRANCH   4   5
ENDBRANCH   3   4
TORSDOF 6
ENDMDL
