MODEL 1
REMARK VINA RESULT: -6.274411971      0.000      0.000
REMARK  7 active torsions:
REMARK  status: ('A' for Active; 'I' for Inactive)
REMARK    1  A    between atoms: C2_2  and  C3_3 
REMARK    2  A    between atoms: C3_3  and  O1_4 
REMARK    3  A    between atoms: N1_10  and  C8_11 
REMARK    4  A    between atoms: C8_11  and  C9_12 
REMARK    5  A    between atoms: C9_12  and  N2_13 
REMARK    6  A    between atoms: N2_13  and  O2_14 
REMARK    7  A    between atoms: N2_13  and  C10_16 
ROOT
HETATM    1  C1  UNL     1     -19.523   1.326 -13.306  1.00  0.00     0.018 C 
HETATM    2  C2  UNL     1     -20.372   1.315 -14.567  1.00  0.00    -0.018 C 
HETATM    3  C4  UNL     1     -20.221   2.553 -15.362  1.00  0.00     0.023 C 
HETATM    4  C5  UNL     1     -19.844   1.755 -16.592  1.00  0.00    -0.023 C 
HETATM    5  C6  UNL     1     -20.972   1.790 -17.611  1.00  0.00     0.017 C 
HETATM    6  C7  UNL     1     -18.558   2.164 -17.254  1.00  0.00     0.126 C 
HETATM    7  N1  UNL     1     -17.565   1.150 -17.257  1.00  0.00    -0.410 N 
HETATM    8  C11 UNL     1     -17.272   0.789 -15.911  1.00  0.00     0.117 C 
HETATM    9  C12 UNL     1     -18.444  -0.008 -15.398  1.00  0.00     0.026 C 
HETATM   10  C13 UNL     1     -19.765   0.549 -15.726  1.00  0.00     0.007 C 
ENDROOT
BRANCH   7  11
HETATM   11  C8  UNL     1     -17.681   0.107 -18.203  1.00  0.00     0.139 C 
BRANCH  11  12
HETATM   12  C9  UNL     1     -17.305   0.539 -19.620  1.00  0.00     0.178 C 
BRANCH  12  13
HETATM   13  N2  UNL     1     -16.263  -0.343 -20.144  1.00  0.00    -0.234 N 
BRANCH  13  14
HETATM   14  O2  UNL     1     -15.716  -0.009 -21.324  1.00  0.00    -0.285 OA
ATOM     15  H2  UNL     1     -15.881  -0.591 -22.056  1.00  0.00     0.245 HD
ENDBRANCH  13  14
BRANCH  13  16
HETATM   16  C10 UNL     1     -15.850  -1.491 -19.431  1.00  0.00     0.376 C 
HETATM   17  O3  UNL     1     -14.635  -1.556 -19.063  1.00  0.00    -0.281 OA
ENDBRANCH  13  16
ENDBRANCH  12  13
ENDBRANCH  11  12
ENDBRANCH   7  11
BRANCH   2  18
HETATM   18  C3  UNL     1     -21.741   0.834 -14.208  1.00  0.00     0.173 C 
BRANCH  18  19
HETATM   19  O1  UNL     1     -22.057  -0.439 -14.598  1.00  0.00    -0.400 OA
ATOM     20  H1  UNL     1     -22.043  -1.102 -13.918  1.00  0.00     0.209 HD
ENDBRANCH  18  19
ENDBRANCH   2  18
TORSDOF 7
ENDMDL
MODEL 2
REMARK VINA RESULT: -6.213135222      0.625      1.210
REMARK  7 active torsions:
REMARK  status: ('A' for Active; 'I' for Inactive)
REMARK    1  A    between atoms: C2_2  and  C3_3 
REMARK    2  A    between atoms: C3_3  and  O1_4 
REMARK    3  A    between atoms: N1_10  and  C8_11 
REMARK    4  A    between atoms: C8_11  and  C9_12 
REMARK    5  A    between atoms: C9_12  and  N2_13 
REMARK    6  A    between atoms: N2_13  and  O2_14 
REMARK    7  A    between atoms: N2_13  and  C10_16 
ROOT
HETATM    1  C1  UNL     1     -19.177   1.203 -13.469  1.00  0.00     0.018 C 
HETATM    2  C2  UNL     1     -20.117   1.274 -14.661  1.00  0.00    -0.018 C 
HETATM    3  C4  UNL     1     -19.964   2.530 -15.428  1.00  0.00     0.023 C 
HETATM    4  C5  UNL     1     -19.721   1.757 -16.707  1.00  0.00    -0.023 C 
HETATM    5  C6  UNL     1     -20.918   1.881 -17.635  1.00  0.00     0.017 C 
HETATM    6  C7  UNL     1     -18.468   2.127 -17.452  1.00  0.00     0.126 C 
HETATM    7  N1  UNL     1     -17.531   1.068 -17.561  1.00  0.00    -0.410 N 
HETATM    8  C11 UNL     1     -17.156   0.648 -16.252  1.00  0.00     0.117 C 
HETATM    9  C12 UNL     1     -18.325  -0.110 -15.676  1.00  0.00     0.026 C 
HETATM   10  C13 UNL     1     -19.638   0.521 -15.886  1.00  0.00     0.007 C 
ENDROOT
BRANCH   7  11
HETATM   11  C8  UNL     1     -17.769   0.064 -18.527  1.00  0.00     0.139 C 
BRANCH  11  12
HETATM   12  C9  UNL     1     -16.858  -1.153 -18.363  1.00  0.00     0.178 C 
BRANCH  12  13
HETATM   13  N2  UNL     1     -15.892  -1.197 -19.459  1.00  0.00    -0.234 N 
BRANCH  13  14
HETATM   14  O2  UNL     1     -14.634  -1.552 -19.151  1.00  0.00    -0.285 OA
ATOM     15  H2  UNL     1     -14.065  -1.794 -19.872  1.00  0.00     0.245 HD
ENDBRANCH  13  14
BRANCH  13  16
HETATM   16  C10 UNL     1     -16.274  -0.884 -20.783  1.00  0.00     0.376 C 
HETATM   17  O3  UNL     1     -15.569  -0.037 -21.419  1.00  0.00    -0.281 OA
ENDBRANCH  13  16
ENDBRANCH  12  13
ENDBRANCH  11  12
ENDBRANCH   7  11
BRANCH   2  18
HETATM   18  C3  UNL     1     -21.478   0.847 -14.214  1.00  0.00     0.173 C 
BRANCH  18  19
HETATM   19  O1  UNL     1     -21.893  -0.387 -14.633  1.00  0.00    -0.400 OA
ATOM     20  H1  UNL     1     -22.312  -0.422 -15.485  1.00  0.00     0.209 HD
ENDBRANCH  18  19
ENDBRANCH   2  18
TORSDOF 7
ENDMDL
MODEL 3
REMARK VINA RESULT: -6.182637947      1.112      1.148
REMARK  7 active torsions:
REMARK  status: ('A' for Active; 'I' for Inactive)
REMARK    1  A    between atoms: C2_2  and  C3_3 
REMARK    2  A    between atoms: C3_3  and  O1_4 
REMARK    3  A    between atoms: N1_10  and  C8_11 
REMARK    4  A    between atoms: C8_11  and  C9_12 
REMARK    5  A    between atoms: C9_12  and  N2_13 
REMARK    6  A    between atoms: N2_13  and  O2_14 
REMARK    7  A    between atoms: N2_13  and  C10_16 
ROOT
HETATM    1  C1  UNL     1     -18.451  -0.113 -13.943  1.00  0.00     0.018 C 
HETATM    2  C2  UNL     1     -19.643   0.345 -14.768  1.00  0.00    -0.018 C 
HETATM    3  C4  UNL     1     -19.668   1.811 -14.962  1.00  0.00     0.023 C 
HETATM    4  C5  UNL     1     -19.733   1.643 -16.466  1.00  0.00    -0.023 C 
HETATM    5  C6  UNL     1     -21.112   2.018 -16.981  1.00  0.00     0.017 C 
HETATM    6  C7  UNL     1     -18.686   2.395 -17.242  1.00  0.00     0.126 C 
HETATM    7  N1  UNL     1     -17.805   1.560 -17.975  1.00  0.00    -0.410 N 
HETATM    8  C11 UNL     1     -17.137   0.686 -17.069  1.00  0.00     0.117 C 
HETATM    9  C12 UNL     1     -18.143  -0.343 -16.621  1.00  0.00     0.026 C 
HETATM   10  C13 UNL     1     -19.465   0.194 -16.266  1.00  0.00     0.007 C 
ENDROOT
BRANCH   7  11
HETATM   11  C8  UNL     1     -18.265   1.011 -19.194  1.00  0.00     0.139 C 
BRANCH  11  12
HETATM   12  C9  UNL     1     -17.288   1.218 -20.350  1.00  0.00     0.178 C 
BRANCH  12  13
HETATM   13  N2  UNL     1     -16.606  -0.041 -20.650  1.00  0.00    -0.234 N 
BRANCH  13  14
HETATM   14  O2  UNL     1     -15.491   0.031 -21.395  1.00  0.00    -0.285 OA
ATOM     15  H2  UNL     1     -15.570  -0.201 -22.313  1.00  0.00     0.245 HD
ENDBRANCH  13  14
BRANCH  13  16
HETATM   16  C10 UNL     1     -17.101  -1.273 -20.168  1.00  0.00     0.376 C 
HETATM   17  O3  UNL     1     -16.270  -2.083 -19.647  1.00  0.00    -0.281 OA
ENDBRANCH  13  16
ENDBRANCH  12  13
ENDBRANCH  11  12
ENDBRANCH   7  11
BRANCH   2  18
HETATM   18  C3  UNL     1     -20.864  -0.350 -14.257  1.00  0.00     0.173 C 
BRANCH  18  19
HETATM   19  O1  UNL     1     -21.889   0.455 -13.842  1.00  0.00    -0.400 OA
ATOM     20  H1  UNL     1     -22.654   0.486 -14.406  1.00  0.00     0.209 HD
ENDBRANCH  18  19
ENDBRANCH   2  18
TORSDOF 7
ENDMDL
MODEL 4
REMARK VINA RESULT: -6.160946785      1.132      1.424
REMARK  7 active torsions:
REMARK  status: ('A' for Active; 'I' for Inactive)
REMARK    1  A    between atoms: C2_2  and  C3_3 
REMARK    2  A    between atoms: C3_3  and  O1_4 
REMARK    3  A    between atoms: N1_10  and  C8_11 
REMARK    4  A    between atoms: C8_11  and  C9_12 
REMARK    5  A    between atoms: C9_12  and  N2_13 
REMARK    6  A    between atoms: N2_13  and  O2_14 
REMARK    7  A    between atoms: N2_13  and  C10_16 
ROOT
HETATM    1  C1  UNL     1     -20.592   1.077 -13.086  1.00  0.00     0.018 C 
HETATM    2  C2  UNL     1     -21.139   1.183 -14.500  1.00  0.00    -0.018 C 
HETATM    3  C4  UNL     1     -20.704   2.419 -15.185  1.00  0.00     0.023 C 
HETATM    4  C5  UNL     1     -20.140   1.619 -16.340  1.00  0.00    -0.023 C 
HETATM    5  C6  UNL     1     -21.006   1.793 -17.577  1.00  0.00     0.017 C 
HETATM    6  C7  UNL     1     -18.707   1.915 -16.687  1.00  0.00     0.126 C 
HETATM    7  N1  UNL     1     -17.835   0.808 -16.521  1.00  0.00    -0.410 N 
HETATM    8  C11 UNL     1     -17.880   0.386 -15.161  1.00  0.00     0.117 C 
HETATM    9  C12 UNL     1     -19.205  -0.304 -14.953  1.00  0.00     0.026 C 
HETATM   10  C13 UNL     1     -20.364   0.390 -15.534  1.00  0.00     0.007 C 
ENDROOT
BRANCH   7  11
HETATM   11  C8  UNL     1     -17.834  -0.194 -17.517  1.00  0.00     0.139 C 
BRANCH  11  12
HETATM   12  C9  UNL     1     -16.467  -0.381 -18.177  1.00  0.00     0.178 C 
BRANCH  12  13
HETATM   13  N2  UNL     1     -16.528  -1.488 -19.131  1.00  0.00    -0.234 N 
BRANCH  13  14
HETATM   14  O2  UNL     1     -16.588  -2.729 -18.623  1.00  0.00    -0.285 OA
ATOM     15  H2  UNL     1     -16.208  -2.862 -17.763  1.00  0.00     0.245 HD
ENDBRANCH  13  14
BRANCH  13  16
HETATM   16  C10 UNL     1     -16.529  -1.252 -20.524  1.00  0.00     0.376 C 
HETATM   17  O3  UNL     1     -15.499  -1.599 -21.185  1.00  0.00    -0.281 OA
ENDBRANCH  13  16
ENDBRANCH  12  13
ENDBRANCH  11  12
ENDBRANCH   7  11
BRANCH   2  18
HETATM   18  C3  UNL     1     -22.592   0.831 -14.470  1.00  0.00     0.173 C 
BRANCH  18  19
HETATM   19  O1  UNL     1     -22.916  -0.438 -14.866  1.00  0.00    -0.400 OA
ATOM     20  H1  UNL     1     -23.808  -0.717 -14.695  1.00  0.00     0.209 HD
ENDBRANCH  18  19
ENDBRANCH   2  18
TORSDOF 7
ENDMDL
MODEL 5
REMARK VINA RESULT: -5.979081986      1.410      1.742
REMARK  7 active torsions:
REMARK  status: ('A' for Active; 'I' for Inactive)
REMARK    1  A    between atoms: C2_2  and  C3_3 
REMARK    2  A    between atoms: C3_3  and  O1_4 
REMARK    3  A    between atoms: N1_10  and  C8_11 
REMARK    4  A    between atoms: C8_11  and  C9_12 
REMARK    5  A    between atoms: C9_12  and  N2_13 
REMARK    6  A    between atoms: N2_13  and  O2_14 
REMARK    7  A    between atoms: N2_13  and  C10_16 
ROOT
HETATM    1  C1  UNL     1     -21.048  -0.071 -13.081  1.00  0.00     0.018 C 
HETATM    2  C2  UNL     1     -21.613   0.335 -14.432  1.00  0.00    -0.018 C 
HETATM    3  C4  UNL     1     -21.484   1.787 -14.687  1.00  0.00     0.023 C 
HETATM    4  C5  UNL     1     -20.756   1.526 -15.988  1.00  0.00    -0.023 C 
HETATM    5  C6  UNL     1     -21.646   1.870 -17.171  1.00  0.00     0.017 C 
HETATM    6  C7  UNL     1     -19.434   2.229 -16.136  1.00  0.00     0.126 C 
HETATM    7  N1  UNL     1     -18.326   1.350 -16.251  1.00  0.00    -0.410 N 
HETATM    8  C11 UNL     1     -18.263   0.534 -15.085  1.00  0.00     0.117 C 
HETATM    9  C12 UNL     1     -19.387  -0.466 -15.180  1.00  0.00     0.026 C 
HETATM   10  C13 UNL     1     -20.681   0.093 -15.602  1.00  0.00     0.007 C 
ENDROOT
BRANCH   7  11
HETATM   11  C8  UNL     1     -18.096   0.727 -17.499  1.00  0.00     0.139 C 
BRANCH  11  12
HETATM   12  C9  UNL     1     -16.667   0.208 -17.654  1.00  0.00     0.178 C 
BRANCH  12  13
HETATM   13  N2  UNL     1     -16.682  -1.065 -18.374  1.00  0.00    -0.234 N 
BRANCH  13  14
HETATM   14  O2  UNL     1     -17.406  -2.061 -17.838  1.00  0.00    -0.285 OA
ATOM     15  H2  UNL     1     -16.973  -2.615 -17.200  1.00  0.00     0.245 HD
ENDBRANCH  13  14
BRANCH  13  16
HETATM   16  C10 UNL     1     -15.967  -1.231 -19.581  1.00  0.00     0.376 C 
HETATM   17  O3  UNL     1     -14.755  -1.609 -19.505  1.00  0.00    -0.281 OA
ENDBRANCH  13  16
ENDBRANCH  12  13
ENDBRANCH  11  12
ENDBRANCH   7  11
BRANCH   2  18
HETATM   18  C3  UNL     1     -22.943  -0.326 -14.604  1.00  0.00     0.173 C 
BRANCH  18  19
HETATM   19  O1  UNL     1     -23.653  -0.564 -13.459  1.00  0.00    -0.400 OA
ATOM     20  H1  UNL     1     -23.399  -1.333 -12.960  1.00  0.00     0.209 HD
ENDBRANCH  18  19
ENDBRANCH   2  18
TORSDOF 7
ENDMDL
