MODEL 1
REMARK VINA RESULT: -5.907777477      0.000      0.000
REMARK  4 active torsions:
REMARK  status: ('A' for Active; 'I' for Inactive)
REMARK    1  A    between atoms: C2_2  and  C3_3 
REMARK    2  A    between atoms: C3_3  and  C4_4 
REMARK    3  A    between atoms: C3_3  and  N3_15 
REMARK       I    between atoms: C4_4  and  N1_6 
REMARK    4  A    between atoms: N1_6  and  C5_8 
ROOT
HETATM    1  C4  UNL     1     -17.449   0.647 -16.846  1.00  0.00     0.255 C 
HETATM    2  O1  UNL     1     -16.233   0.551 -16.557  1.00  0.00    -0.271 OA
HETATM    3  N1  UNL     1     -17.821   0.460 -18.203  1.00  0.00    -0.353 N 
ATOM      4  H1  UNL     1     -18.807   0.538 -18.453  1.00  0.00     0.163 HD
ENDROOT
BRANCH   1   5
HETATM    5  C3  UNL     1     -18.387   0.946 -15.753  1.00  0.00     0.336 C 
BRANCH   5   6
HETATM    6  C2  UNL     1     -17.904   0.307 -14.501  1.00  0.00     0.008 C 
HETATM    7  C1  UNL     1     -17.622   0.981 -13.402  1.00  0.00     0.009 C 
ENDBRANCH   5   6
BRANCH   5   8
HETATM    8  N3  UNL     1     -19.766   0.781 -16.037  1.00  0.00     0.105 N 
HETATM    9  C9  UNL     1     -20.349   2.131 -16.132  1.00  0.00     0.274 C 
HETATM   10  C10 UNL     1     -21.561   2.048 -17.036  1.00  0.00     0.030 C 
HETATM   11  C11 UNL     1     -22.440   0.938 -16.511  1.00  0.00     0.003 C 
HETATM   12  C12 UNL     1     -22.019   0.460 -15.152  1.00  0.00     0.030 C 
HETATM   13  C13 UNL     1     -20.551   0.083 -15.074  1.00  0.00     0.274 C 
ENDBRANCH   5   8
ENDBRANCH   1   5
BRANCH   3  14
HETATM   14  C5  UNL     1     -16.867   0.165 -19.246  1.00  0.00     0.111 C 
HETATM   15  C6  UNL     1     -16.797  -1.283 -19.617  1.00  0.00     0.054 C 
HETATM   16  C7  UNL     1     -17.117  -1.279 -21.083  1.00  0.00     0.234 C 
HETATM   17  N2  UNL     1     -16.787   0.039 -21.568  1.00  0.00    -0.073 N 
HETATM   18  C8  UNL     1     -17.112   0.959 -20.506  1.00  0.00     0.257 C 
ATOM     19  H22 UNL     1     -15.824   0.120 -21.892  1.00  0.00     0.277 HD
ATOM     20  H21 UNL     1     -17.239   0.268 -22.453  1.00  0.00     0.277 HD
ENDBRANCH   3  14
TORSDOF 4
ENDMDL
MODEL 2
REMARK VINA RESULT: -5.663967677      1.821      6.124
REMARK  4 active torsions:
REMARK  status: ('A' for Active; 'I' for Inactive)
REMARK    1  A    between atoms: C2_2  and  C3_3 
REMARK    2  A    between atoms: C3_3  and  C4_4 
REMARK    3  A    between atoms: C3_3  and  N3_15 
REMARK       I    between atoms: C4_4  and  N1_6 
REMARK    4  A    between atoms: N1_6  and  C5_8 
ROOT
HETATM    1  C4  UNL     1     -18.845   1.978 -17.849  1.00  0.00     0.255 C 
HETATM    2  O1  UNL     1     -18.066   2.674 -17.155  1.00  0.00    -0.271 OA
HETATM    3  N1  UNL     1     -20.028   1.497 -17.230  1.00  0.00    -0.353 N 
ATOM      4  H1  UNL     1     -20.669   0.928 -17.782  1.00  0.00     0.163 HD
ENDROOT
BRANCH   1   5
HETATM    5  C3  UNL     1     -18.464   1.720 -19.246  1.00  0.00     0.336 C 
BRANCH   5   6
HETATM    6  C2  UNL     1     -19.690   1.551 -20.068  1.00  0.00     0.008 C 
HETATM    7  C1  UNL     1     -20.339   2.557 -20.623  1.00  0.00     0.009 C 
ENDBRANCH   5   6
BRANCH   5   8
HETATM    8  N3  UNL     1     -17.442   0.761 -19.458  1.00  0.00     0.105 N 
HETATM    9  C9  UNL     1     -17.705   0.136 -20.767  1.00  0.00     0.274 C 
HETATM   10  C10 UNL     1     -16.384  -0.359 -21.317  1.00  0.00     0.030 C 
HETATM   11  C11 UNL     1     -15.741  -1.210 -20.247  1.00  0.00     0.003 C 
HETATM   12  C12 UNL     1     -16.682  -1.536 -19.124  1.00  0.00     0.030 C 
HETATM   13  C13 UNL     1     -17.351  -0.312 -18.524  1.00  0.00     0.274 C 
ENDBRANCH   5   8
ENDBRANCH   1   5
BRANCH   3  14
HETATM   14  C5  UNL     1     -20.365   1.777 -15.854  1.00  0.00     0.111 C 
HETATM   15  C6  UNL     1     -21.747   2.319 -15.662  1.00  0.00     0.054 C 
HETATM   16  C7  UNL     1     -22.378   1.330 -14.728  1.00  0.00     0.234 C 
HETATM   17  N2  UNL     1     -21.296   0.692 -14.019  1.00  0.00    -0.073 N 
HETATM   18  C8  UNL     1     -20.205   0.576 -14.955  1.00  0.00     0.257 C 
ATOM     19  H22 UNL     1     -21.039   1.173 -13.157  1.00  0.00     0.277 HD
ATOM     20  H21 UNL     1     -21.559  -0.197 -13.594  1.00  0.00     0.277 HD
ENDBRANCH   3  14
TORSDOF 4
ENDMDL
MODEL 3
REMARK VINA RESULT: -5.575789729      1.219      1.795
REMARK  4 active torsions:
REMARK  status: ('A' for Active; 'I' for Inactive)
REMARK    1  A    between atoms: C2_2  and  C3_3 
REMARK    2  A    between atoms: C3_3  and  C4_4 
REMARK    3  A    between atoms: C3_3  and  N3_15 
REMARK       I    between atoms: C4_4  and  N1_6 
REMARK    4  A    between atoms: N1_6  and  C5_8 
ROOT
HETATM    1  C4  UNL     1     -18.125  -0.223 -16.873  1.00  0.00     0.255 C 
HETATM    2  O1  UNL     1     -18.438  -1.426 -16.708  1.00  0.00    -0.271 OA
HETATM    3  N1  UNL     1     -17.540   0.143 -18.113  1.00  0.00    -0.353 N 
ATOM      4  H1  UNL     1     -17.280   1.118 -18.259  1.00  0.00     0.163 HD
ENDROOT
BRANCH   1   5
HETATM    5  C3  UNL     1     -18.393   0.707 -15.765  1.00  0.00     0.336 C 
BRANCH   5   6
HETATM    6  C2  UNL     1     -18.008   0.067 -14.480  1.00  0.00     0.008 C 
HETATM    7  C1  UNL     1     -17.454   0.724 -13.478  1.00  0.00     0.009 C 
ENDBRANCH   5   6
BRANCH   5   8
HETATM    8  N3  UNL     1     -19.651   1.360 -15.775  1.00  0.00     0.105 N 
HETATM    9  C9  UNL     1     -20.619   0.438 -15.153  1.00  0.00     0.274 C 
HETATM   10  C10 UNL     1     -21.734   1.272 -14.559  1.00  0.00     0.030 C 
HETATM   11  C11 UNL     1     -22.238   2.193 -15.645  1.00  0.00     0.003 C 
HETATM   12  C12 UNL     1     -21.709   1.830 -17.002  1.00  0.00     0.030 C 
HETATM   13  C13 UNL     1     -20.197   1.703 -17.046  1.00  0.00     0.274 C 
ENDBRANCH   5   8
ENDBRANCH   1   5
BRANCH   3  14
HETATM   14  C5  UNL     1     -17.297  -0.804 -19.177  1.00  0.00     0.111 C 
HETATM   15  C6  UNL     1     -17.546  -0.257 -20.548  1.00  0.00     0.054 C 
HETATM   16  C7  UNL     1     -16.224  -0.437 -21.235  1.00  0.00     0.234 C 
HETATM   17  N2  UNL     1     -15.545  -1.502 -20.538  1.00  0.00    -0.073 N 
HETATM   18  C8  UNL     1     -15.901  -1.373 -19.146  1.00  0.00     0.257 C 
ATOM     19  H22 UNL     1     -15.744  -2.426 -20.922  1.00  0.00     0.277 HD
ATOM     20  H21 UNL     1     -14.538  -1.512 -20.698  1.00  0.00     0.277 HD
ENDBRANCH   3  14
TORSDOF 4
ENDMDL
MODEL 4
REMARK VINA RESULT: -5.553306822      1.454      2.466
REMARK  4 active torsions:
REMARK  status: ('A' for Active; 'I' for Inactive)
REMARK    1  A    between atoms: C2_2  and  C3_3 
REMARK    2  A    between atoms: C3_3  and  C4_4 
REMARK    3  A    between atoms: C3_3  and  N3_15 
REMARK       I    between atoms: C4_4  and  N1_6 
REMARK    4  A    between atoms: N1_6  and  C5_8 
ROOT
HETATM    1  C4  UNL     1     -17.192   0.462 -16.719  1.00  0.00     0.255 C 
HETATM    2  O1  UNL     1     -15.956   0.614 -16.572  1.00  0.00    -0.271 OA
HETATM    3  N1  UNL     1     -17.674   0.206 -18.029  1.00  0.00    -0.353 N 
ATOM      4  H1  UNL     1     -18.678   0.083 -18.163  1.00  0.00     0.163 HD
ENDROOT
BRANCH   1   5
HETATM    5  C3  UNL     1     -18.037   0.563 -15.519  1.00  0.00     0.336 C 
BRANCH   5   6
HETATM    6  C2  UNL     1     -19.141  -0.429 -15.609  1.00  0.00     0.008 C 
HETATM    7  C1  UNL     1     -19.180  -1.540 -14.899  1.00  0.00     0.009 C 
ENDBRANCH   5   6
BRANCH   5   8
HETATM    8  N3  UNL     1     -18.413   1.868 -15.115  1.00  0.00     0.105 N 
HETATM    9  C9  UNL     1     -18.412   1.878 -13.641  1.00  0.00     0.274 C 
HETATM   10  C10 UNL     1     -18.153   3.300 -13.189  1.00  0.00     0.030 C 
HETATM   11  C11 UNL     1     -19.148   4.188 -13.898  1.00  0.00     0.003 C 
HETATM   12  C12 UNL     1     -20.232   3.409 -14.585  1.00  0.00     0.030 C 
HETATM   13  C13 UNL     1     -19.703   2.327 -15.509  1.00  0.00     0.274 C 
ENDBRANCH   5   8
ENDBRANCH   1   5
BRANCH   3  14
HETATM   14  C5  UNL     1     -16.807   0.112 -19.181  1.00  0.00     0.111 C 
HETATM   15  C6  UNL     1     -16.551  -1.290 -19.639  1.00  0.00     0.054 C 
HETATM   16  C7  UNL     1     -17.030  -1.280 -21.061  1.00  0.00     0.234 C 
HETATM   17  N2  UNL     1     -16.969   0.092 -21.501  1.00  0.00    -0.073 N 
HETATM   18  C8  UNL     1     -17.314   0.905 -20.361  1.00  0.00     0.257 C 
ATOM     19  H22 UNL     1     -16.073   0.342 -21.919  1.00  0.00     0.277 HD
ATOM     20  H21 UNL     1     -17.547   0.280 -22.320  1.00  0.00     0.277 HD
ENDBRANCH   3  14
TORSDOF 4
ENDMDL
MODEL 5
REMARK VINA RESULT: -5.537842816      1.562      5.687
REMARK  4 active torsions:
REMARK  status: ('A' for Active; 'I' for Inactive)
REMARK    1  A    between atoms: C2_2  and  C3_3 
REMARK    2  A    between atoms: C3_3  and  C4_4 
REMARK    3  A    between atoms: C3_3  and  N3_15 
REMARK       I    between atoms: C4_4  and  N1_6 
REMARK    4  A    between atoms: N1_6  and  C5_8 
ROOT
HETATM    1  C4  UNL     1     -18.701  -0.218 -16.547  1.00  0.00     0.255 C 
HETATM    2  O1  UNL     1     -18.942  -1.247 -15.871  1.00  0.00    -0.271 OA
HETATM    3  N1  UNL     1     -19.659   0.829 -16.517  1.00  0.00    -0.353 N 
ATOM      4  H1  UNL     1     -19.476   1.671 -17.064  1.00  0.00     0.163 HD
ENDROOT
BRANCH   1   5
HETATM    5  C3  UNL     1     -17.446  -0.186 -17.312  1.00  0.00     0.336 C 
BRANCH   5   6
HETATM    6  C2  UNL     1     -16.538   0.836 -16.728  1.00  0.00     0.008 C 
HETATM    7  C1  UNL     1     -16.581   1.209 -15.463  1.00  0.00     0.009 C 
ENDBRANCH   5   6
BRANCH   5   8
HETATM    8  N3  UNL     1     -17.564  -0.169 -18.725  1.00  0.00     0.105 N 
HETATM    9  C9  UNL     1     -16.383  -0.869 -19.262  1.00  0.00     0.274 C 
HETATM   10  C10 UNL     1     -16.761  -1.442 -20.612  1.00  0.00     0.030 C 
HETATM   11  C11 UNL     1     -17.347  -0.317 -21.433  1.00  0.00     0.003 C 
HETATM   12  C12 UNL     1     -17.128   1.030 -20.807  1.00  0.00     0.030 C 
HETATM   13  C13 UNL     1     -17.588   1.105 -19.362  1.00  0.00     0.274 C 
ENDBRANCH   5   8
ENDBRANCH   1   5
BRANCH   3  14
HETATM   14  C5  UNL     1     -20.879   0.757 -15.748  1.00  0.00     0.111 C 
HETATM   15  C6  UNL     1     -20.716   1.134 -14.309  1.00  0.00     0.054 C 
HETATM   16  C7  UNL     1     -21.679   2.273 -14.141  1.00  0.00     0.234 C 
HETATM   17  N2  UNL     1     -22.675   2.119 -15.173  1.00  0.00    -0.073 N 
HETATM   18  C8  UNL     1     -21.989   1.597 -16.330  1.00  0.00     0.257 C 
ATOM     19  H22 UNL     1     -23.471   1.550 -14.885  1.00  0.00     0.277 HD
ATOM     20  H21 UNL     1     -23.194   2.976 -15.365  1.00  0.00     0.277 HD
ENDBRANCH   3  14
TORSDOF 4
ENDMDL
