MODEL 1
REMARK VINA RESULT: -6.742733862      0.000      0.000
REMARK  12 active torsions:
REMARK  status: ('A' for Active; 'I' for Inactive)
REMARK    1  A    between atoms: C2_2  and  C3_3 
REMARK    2  A    between atoms: C3_3  and  C5_5 
REMARK    3  A    between atoms: C7_10  and  C8_11 
REMARK    4  A    between atoms: C8_11  and  C9_12 
REMARK    5  A    between atoms: C13_19  and  C14_20 
REMARK    6  A    between atoms: C14_20  and  C15_21 
REMARK    7  A    between atoms: C17_28  and  C18_29 
REMARK    8  A    between atoms: C18_29  and  C19_30 
REMARK    9  A    between atoms: C23_37  and  C24_38 
REMARK   10  A    between atoms: C24_38  and  C25_39 
REMARK   11  A    between atoms: C29_46  and  C30_47 
REMARK   12  A    between atoms: C30_47  and  C31_48 
ROOT
HETATM    1  C5  UNL     1      22.611  40.413  18.300  1.00  0.00     0.328 C 
HETATM    2  N1  UNL     1      21.328  40.559  18.848  1.00  0.00    -0.329 N 
ATOM      3  H1  UNL     1      21.135  39.810  19.513  1.00  0.00     0.164 HD
HETATM    4  C6  UNL     1      20.247  41.414  18.754  1.00  0.00     0.242 C 
HETATM    5  O1  UNL     1      19.601  41.601  19.865  1.00  0.00    -0.271 OA
HETATM    6  C7  UNL     1      19.656  42.181  17.630  1.00  0.00     0.177 C 
HETATM    7  N2  UNL     1      18.784  41.364  16.815  1.00  0.00    -0.346 N 
ATOM      8  H2  UNL     1      19.224  41.038  15.954  1.00  0.00     0.163 HD
HETATM    9  C12 UNL     1      17.482  40.935  16.960  1.00  0.00     0.241 C 
HETATM   10  O2  UNL     1      16.656  41.169  15.995  1.00  0.00    -0.271 OA
HETATM   11  C13 UNL     1      16.786  40.217  18.055  1.00  0.00     0.186 C 
HETATM   12  N3  UNL     1      16.293  38.913  17.548  1.00  0.00    -0.346 N 
ATOM     13  H3  UNL     1      15.331  38.880  17.212  1.00  0.00     0.163 HD
HETATM   14  C16 UNL     1      17.025  37.732  17.490  1.00  0.00     0.241 C 
HETATM   15  O5  UNL     1      17.071  37.172  16.321  1.00  0.00    -0.271 OA
HETATM   16  C17 UNL     1      17.755  37.038  18.574  1.00  0.00     0.177 C 
HETATM   17  N4  UNL     1      19.112  37.458  18.674  1.00  0.00    -0.346 N 
ATOM     18  H4  UNL     1      19.197  38.469  18.568  1.00  0.00     0.163 HD
HETATM   19  C22 UNL     1      20.347  36.865  18.875  1.00  0.00     0.241 C 
HETATM   20  O6  UNL     1      20.909  36.865  20.043  1.00  0.00    -0.271 OA
HETATM   21  C23 UNL     1      21.239  36.160  17.888  1.00  0.00     0.177 C 
HETATM   22  N5  UNL     1      22.448  36.932  17.671  1.00  0.00    -0.346 N 
ATOM     23  H5  UNL     1      23.141  36.820  18.410  1.00  0.00     0.163 HD
HETATM   24  C28 UNL     1      22.847  37.788  16.665  1.00  0.00     0.252 C 
HETATM   25  O7  UNL     1      23.846  37.431  15.925  1.00  0.00    -0.271 OA
HETATM   26  C29 UNL     1      22.286  39.136  16.265  1.00  0.00     0.316 C 
HETATM   27  N6  UNL     1      22.895  40.228  16.943  1.00  0.00     0.121 N 
HETATM   28  C34 UNL     1      24.339  39.999  16.823  1.00  0.00     0.314 C 
ENDROOT
BRANCH   1  29
HETATM   29  C3  UNL     1      23.452  41.492  18.931  1.00  0.00     0.034 C 
HETATM   30  C4  UNL     1      23.143  42.893  18.469  1.00  0.00     0.014 C 
BRANCH  29  31
HETATM   31  C2  UNL     1      23.179  41.528  20.455  1.00  0.00     0.004 C 
HETATM   32  C1  UNL     1      23.078  42.952  20.878  1.00  0.00     0.005 C 
ENDBRANCH  29  31
ENDBRANCH   1  29
BRANCH  26  33
HETATM   33  C30 UNL     1      22.423  39.264  14.788  1.00  0.00     0.049 C 
BRANCH  33  34
HETATM   34  C31 UNL     1      21.789  40.408  14.119  1.00  0.00    -0.020 C 
HETATM   35  C32 UNL     1      22.430  41.729  14.278  1.00  0.00     0.009 C 
HETATM   36  C33 UNL     1      21.723  40.153  12.581  1.00  0.00     0.009 C 
ENDBRANCH  33  34
ENDBRANCH  26  33
BRANCH   6  37
HETATM   37  C8  UNL     1      18.956  43.402  18.228  1.00  0.00     0.038 C 
BRANCH  37  38
HETATM   38  C9  UNL     1      19.127  44.562  17.288  1.00  0.00    -0.020 C 
HETATM   39  C10 UNL     1      20.351  44.298  16.406  1.00  0.00     0.009 C 
HETATM   40  C11 UNL     1      17.891  44.698  16.377  1.00  0.00     0.009 C 
ENDBRANCH  37  38
ENDBRANCH   6  37
BRANCH  21  41
HETATM   41  C24 UNL     1      21.627  34.854  18.609  1.00  0.00     0.038 C 
BRANCH  41  42
HETATM   42  C25 UNL     1      22.104  33.790  17.682  1.00  0.00    -0.020 C 
HETATM   43  C26 UNL     1      23.536  33.877  17.277  1.00  0.00     0.009 C 
HETATM   44  C27 UNL     1      21.263  33.920  16.402  1.00  0.00     0.009 C 
ENDBRANCH  41  42
ENDBRANCH  21  41
BRANCH  11  45
HETATM   45  C14 UNL     1      15.556  41.022  18.517  1.00  0.00     0.147 C 
BRANCH  45  46
HETATM   46  C15 UNL     1      15.215  40.620  19.905  1.00  0.00     0.175 C 
HETATM   47  O3  UNL     1      15.919  39.793  20.526  1.00  0.00    -0.648 OA
HETATM   48  O4  UNL     1      14.109  41.125  20.601  1.00  0.00    -0.648 OA
ENDBRANCH  45  46
ENDBRANCH  11  45
BRANCH  16  49
HETATM   49  C18 UNL     1      17.619  35.556  18.513  1.00  0.00     0.038 C 
BRANCH  49  50
HETATM   50  C19 UNL     1      16.825  34.959  17.429  1.00  0.00    -0.020 C 
HETATM   51  C20 UNL     1      15.488  34.395  17.696  1.00  0.00     0.009 C 
HETATM   52  C21 UNL     1      17.604  33.912  16.635  1.00  0.00     0.009 C 
ENDBRANCH  49  50
ENDBRANCH  16  49
TORSDOF 12
ENDMDL
MODEL 2
REMARK VINA RESULT: -6.500726404      2.360      4.854
REMARK  12 active torsions:
REMARK  status: ('A' for Active; 'I' for Inactive)
REMARK    1  A    between atoms: C2_2  and  C3_3 
REMARK    2  A    between atoms: C3_3  and  C5_5 
REMARK    3  A    between atoms: C7_10  and  C8_11 
REMARK    4  A    between atoms: C8_11  and  C9_12 
REMARK    5  A    between atoms: C13_19  and  C14_20 
REMARK    6  A    between atoms: C14_20  and  C15_21 
REMARK    7  A    between atoms: C17_28  and  C18_29 
REMARK    8  A    between atoms: C18_29  and  C19_30 
REMARK    9  A    between atoms: C23_37  and  C24_38 
REMARK   10  A    between atoms: C24_38  and  C25_39 
REMARK   11  A    between atoms: C29_46  and  C30_47 
REMARK   12  A    between atoms: C30_47  and  C31_48 
ROOT
HETATM    1  C5  UNL     1      21.530  43.521  19.614  1.00  0.00     0.328 C 
HETATM    2  N1  UNL     1      20.783  42.373  19.917  1.00  0.00    -0.329 N 
ATOM      3  H1  UNL     1      21.369  41.675  20.377  1.00  0.00     0.164 HD
HETATM    4  C6  UNL     1      19.491  41.905  19.777  1.00  0.00     0.242 C 
HETATM    5  O1  UNL     1      19.071  41.160  20.754  1.00  0.00    -0.271 OA
HETATM    6  C7  UNL     1      18.459  42.078  18.725  1.00  0.00     0.177 C 
HETATM    7  N2  UNL     1      18.660  41.172  17.615  1.00  0.00    -0.346 N 
ATOM      8  H2  UNL     1      19.109  41.611  16.811  1.00  0.00     0.163 HD
HETATM    9  C12 UNL     1      18.369  39.839  17.418  1.00  0.00     0.241 C 
HETATM   10  O2  UNL     1      17.684  39.517  16.372  1.00  0.00    -0.271 OA
HETATM   11  C13 UNL     1      18.698  38.622  18.199  1.00  0.00     0.186 C 
HETATM   12  N3  UNL     1      19.529  37.718  17.368  1.00  0.00    -0.346 N 
ATOM     13  H3  UNL     1      19.043  36.986  16.849  1.00  0.00     0.163 HD
HETATM   14  C16 UNL     1      20.912  37.777  17.231  1.00  0.00     0.241 C 
HETATM   15  O5  UNL     1      21.339  37.856  16.009  1.00  0.00    -0.271 OA
HETATM   16  C17 UNL     1      21.950  37.766  18.286  1.00  0.00     0.177 C 
HETATM   17  N4  UNL     1      22.292  39.076  18.727  1.00  0.00    -0.346 N 
ATOM     18  H4  UNL     1      21.463  39.662  18.834  1.00  0.00     0.163 HD
HETATM   19  C22 UNL     1      23.445  39.771  19.051  1.00  0.00     0.241 C 
HETATM   20  O6  UNL     1      23.808  39.931  20.286  1.00  0.00    -0.271 OA
HETATM   21  C23 UNL     1      24.443  40.440  18.143  1.00  0.00     0.177 C 
HETATM   22  N5  UNL     1      24.387  41.879  18.317  1.00  0.00    -0.346 N 
ATOM     23  H5  UNL     1      24.886  42.209  19.143  1.00  0.00     0.163 HD
HETATM   24  C28 UNL     1      23.795  42.890  17.590  1.00  0.00     0.252 C 
HETATM   25  O7  UNL     1      24.565  43.750  17.007  1.00  0.00    -0.271 OA
HETATM   26  C29 UNL     1      22.327  43.174  17.350  1.00  0.00     0.316 C 
HETATM   27  N6  UNL     1      21.748  44.029  18.330  1.00  0.00     0.121 N 
HETATM   28  C34 UNL     1      22.676  45.158  18.454  1.00  0.00     0.314 C 
ENDROOT
BRANCH   1  29
HETATM   29  C3  UNL     1      21.078  44.574  20.591  1.00  0.00     0.034 C 
HETATM   30  C4  UNL     1      19.664  45.060  20.396  1.00  0.00     0.014 C 
BRANCH  29  31
HETATM   31  C2  UNL     1      21.080  43.982  22.021  1.00  0.00     0.004 C 
HETATM   32  C1  UNL     1      19.842  44.431  22.715  1.00  0.00     0.005 C 
ENDBRANCH  29  31
ENDBRANCH   1  29
BRANCH  26  33
HETATM   33  C30 UNL     1      22.193  43.743  15.981  1.00  0.00     0.049 C 
BRANCH  33  34
HETATM   34  C31 UNL     1      21.948  42.826  14.859  1.00  0.00    -0.020 C 
HETATM   35  C32 UNL     1      23.067  42.577  13.928  1.00  0.00     0.009 C 
HETATM   36  C33 UNL     1      21.530  41.424  15.403  1.00  0.00     0.009 C 
ENDBRANCH  33  34
ENDBRANCH  26  33
BRANCH   6  37
HETATM   37  C8  UNL     1      17.093  41.920  19.394  1.00  0.00     0.038 C 
BRANCH  37  38
HETATM   38  C9  UNL     1      16.040  42.461  18.469  1.00  0.00    -0.020 C 
HETATM   39  C10 UNL     1      14.985  41.374  18.242  1.00  0.00     0.009 C 
HETATM   40  C11 UNL     1      15.350  43.685  19.101  1.00  0.00     0.009 C 
ENDBRANCH  37  38
ENDBRANCH   6  37
BRANCH  21  41
HETATM   41  C24 UNL     1      25.806  39.946  18.666  1.00  0.00     0.038 C 
BRANCH  41  42
HETATM   42  C25 UNL     1      26.705  41.052  19.102  1.00  0.00    -0.020 C 
HETATM   43  C26 UNL     1      27.940  41.242  18.290  1.00  0.00     0.009 C 
HETATM   44  C27 UNL     1      27.151  40.711  20.532  1.00  0.00     0.009 C 
ENDBRANCH  41  42
ENDBRANCH  21  41
BRANCH  11  45
HETATM   45  C14 UNL     1      17.408  37.857  18.554  1.00  0.00     0.147 C 
BRANCH  45  46
HETATM   46  C15 UNL     1      17.584  36.428  18.194  1.00  0.00     0.175 C 
HETATM   47  O3  UNL     1      17.031  35.947  17.180  1.00  0.00    -0.648 OA
HETATM   48  O4  UNL     1      18.363  35.537  18.944  1.00  0.00    -0.648 OA
ENDBRANCH  45  46
ENDBRANCH  11  45
BRANCH  16  49
HETATM   49  C18 UNL     1      23.146  36.957  17.920  1.00  0.00     0.038 C 
BRANCH  49  50
HETATM   50  C19 UNL     1      23.295  35.611  18.495  1.00  0.00    -0.020 C 
HETATM   51  C20 UNL     1      22.966  34.412  17.701  1.00  0.00     0.009 C 
HETATM   52  C21 UNL     1      22.591  35.465  19.842  1.00  0.00     0.009 C 
ENDBRANCH  49  50
ENDBRANCH  16  49
TORSDOF 12
ENDMDL
MODEL 3
REMARK VINA RESULT: -6.299232662      2.753      6.821
REMARK  12 active torsions:
REMARK  status: ('A' for Active; 'I' for Inactive)
REMARK    1  A    between atoms: C2_2  and  C3_3 
REMARK    2  A    between atoms: C3_3  and  C5_5 
REMARK    3  A    between atoms: C7_10  and  C8_11 
REMARK    4  A    between atoms: C8_11  and  C9_12 
REMARK    5  A    between atoms: C13_19  and  C14_20 
REMARK    6  A    between atoms: C14_20  and  C15_21 
REMARK    7  A    between atoms: C17_28  and  C18_29 
REMARK    8  A    between atoms: C18_29  and  C19_30 
REMARK    9  A    between atoms: C23_37  and  C24_38 
REMARK   10  A    between atoms: C24_38  and  C25_39 
REMARK   11  A    between atoms: C29_46  and  C30_47 
REMARK   12  A    between atoms: C30_47  and  C31_48 
ROOT
HETATM    1  C5  UNL     1      20.902  43.527  17.449  1.00  0.00     0.328 C 
HETATM    2  N1  UNL     1      20.805  42.412  18.295  1.00  0.00    -0.329 N 
ATOM      3  H1  UNL     1      21.499  42.468  19.041  1.00  0.00     0.164 HD
HETATM    4  C6  UNL     1      20.050  41.262  18.420  1.00  0.00     0.242 C 
HETATM    5  O1  UNL     1      19.808  40.898  19.643  1.00  0.00    -0.271 OA
HETATM    6  C7  UNL     1      19.444  40.336  17.432  1.00  0.00     0.177 C 
HETATM    7  N2  UNL     1      20.402  39.375  16.931  1.00  0.00    -0.346 N 
ATOM      8  H2  UNL     1      20.774  39.617  16.012  1.00  0.00     0.163 HD
HETATM    9  C12 UNL     1      20.916  38.200  17.437  1.00  0.00     0.241 C 
HETATM   10  O2  UNL     1      20.841  37.141  16.703  1.00  0.00    -0.271 OA
HETATM   11  C13 UNL     1      21.577  37.875  18.724  1.00  0.00     0.186 C 
HETATM   12  N3  UNL     1      22.958  37.405  18.459  1.00  0.00    -0.346 N 
ATOM     13  H3  UNL     1      23.099  36.397  18.385  1.00  0.00     0.163 HD
HETATM   14  C16 UNL     1      24.079  38.213  18.302  1.00  0.00     0.241 C 
HETATM   15  O5  UNL     1      24.743  38.022  17.204  1.00  0.00    -0.271 OA
HETATM   16  C17 UNL     1      24.606  39.256  19.210  1.00  0.00     0.177 C 
HETATM   17  N4  UNL     1      24.073  40.546  18.925  1.00  0.00    -0.346 N 
ATOM     18  H4  UNL     1      23.073  40.500  18.727  1.00  0.00     0.163 HD
HETATM   19  C22 UNL     1      24.544  41.846  18.845  1.00  0.00     0.241 C 
HETATM   20  O6  UNL     1      24.387  42.678  19.827  1.00  0.00    -0.271 OA
HETATM   21  C23 UNL     1      25.270  42.530  17.717  1.00  0.00     0.177 C 
HETATM   22  N5  UNL     1      24.429  43.562  17.140  1.00  0.00    -0.346 N 
ATOM     23  H5  UNL     1      24.415  44.425  17.682  1.00  0.00     0.163 HD
HETATM   24  C28 UNL     1      23.646  43.610  16.006  1.00  0.00     0.252 C 
HETATM   25  O7  UNL     1      23.994  44.424  15.062  1.00  0.00    -0.271 OA
HETATM   26  C29 UNL     1      22.392  42.834  15.665  1.00  0.00     0.316 C 
HETATM   27  N6  UNL     1      21.195  43.481  16.082  1.00  0.00     0.121 N 
HETATM   28  C34 UNL     1      21.320  44.865  15.612  1.00  0.00     0.314 C 
ENDROOT
BRANCH   1  29
HETATM   29  C3  UNL     1      19.705  44.386  17.761  1.00  0.00     0.034 C 
HETATM   30  C4  UNL     1      18.383  43.832  17.294  1.00  0.00     0.014 C 
BRANCH  29  31
HETATM   31  C2  UNL     1      19.544  44.501  19.297  1.00  0.00     0.004 C 
HETATM   32  C1  UNL     1      18.104  44.327  19.630  1.00  0.00     0.005 C 
ENDBRANCH  29  31
ENDBRANCH   1  29
BRANCH  26  33
HETATM   33  C30 UNL     1      22.396  42.586  14.197  1.00  0.00     0.049 C 
BRANCH  33  34
HETATM   34  C31 UNL     1      22.853  41.279  13.706  1.00  0.00    -0.020 C 
HETATM   35  C32 UNL     1      21.868  40.178  13.687  1.00  0.00     0.009 C 
HETATM   36  C33 UNL     1      23.365  41.413  12.238  1.00  0.00     0.009 C 
ENDBRANCH  33  34
ENDBRANCH  26  33
BRANCH   6  37
HETATM   37  C8  UNL     1      18.230  39.688  18.099  1.00  0.00     0.038 C 
BRANCH  37  38
HETATM   38  C9  UNL     1      17.118  39.603  17.092  1.00  0.00    -0.020 C 
HETATM   39  C10 UNL     1      16.546  38.182  17.114  1.00  0.00     0.009 C 
HETATM   40  C11 UNL     1      15.990  40.587  17.456  1.00  0.00     0.009 C 
ENDBRANCH  37  38
ENDBRANCH   6  37
BRANCH  21  41
HETATM   41  C24 UNL     1      26.465  43.214  18.408  1.00  0.00     0.038 C 
BRANCH  41  42
HETATM   42  C25 UNL     1      27.654  42.327  18.542  1.00  0.00    -0.020 C 
HETATM   43  C26 UNL     1      28.686  42.769  19.521  1.00  0.00     0.009 C 
HETATM   44  C27 UNL     1      28.327  42.291  17.160  1.00  0.00     0.009 C 
ENDBRANCH  41  42
ENDBRANCH  21  41
BRANCH  11  45
HETATM   45  C14 UNL     1      20.830  36.724  19.426  1.00  0.00     0.147 C 
BRANCH  45  46
HETATM   46  C15 UNL     1      21.789  35.621  19.687  1.00  0.00     0.175 C 
HETATM   47  O3  UNL     1      22.305  35.471  20.816  1.00  0.00    -0.648 OA
HETATM   48  O4  UNL     1      22.175  34.692  18.711  1.00  0.00    -0.648 OA
ENDBRANCH  45  46
ENDBRANCH  11  45
BRANCH  16  49
HETATM   49  C18 UNL     1      26.092  39.260  19.295  1.00  0.00     0.038 C 
BRANCH  49  50
HETATM   50  C19 UNL     1      26.728  39.195  20.620  1.00  0.00    -0.020 C 
HETATM   51  C20 UNL     1      26.620  40.323  21.564  1.00  0.00     0.009 C 
HETATM   52  C21 UNL     1      28.204  38.811  20.547  1.00  0.00     0.009 C 
ENDBRANCH  49  50
ENDBRANCH  16  49
TORSDOF 12
ENDMDL
MODEL 4
REMARK VINA RESULT: -6.275403933      2.549      4.486
REMARK  12 active torsions:
REMARK  status: ('A' for Active; 'I' for Inactive)
REMARK    1  A    between atoms: C2_2  and  C3_3 
REMARK    2  A    between atoms: C3_3  and  C5_5 
REMARK    3  A    between atoms: C7_10  and  C8_11 
REMARK    4  A    between atoms: C8_11  and  C9_12 
REMARK    5  A    between atoms: C13_19  and  C14_20 
REMARK    6  A    between atoms: C14_20  and  C15_21 
REMARK    7  A    between atoms: C17_28  and  C18_29 
REMARK    8  A    between atoms: C18_29  and  C19_30 
REMARK    9  A    between atoms: C23_37  and  C24_38 
REMARK   10  A    between atoms: C24_38  and  C25_39 
REMARK   11  A    between atoms: C29_46  and  C30_47 
REMARK   12  A    between atoms: C30_47  and  C31_48 
ROOT
HETATM    1  C5  UNL     1      23.389  43.905  18.356  1.00  0.00     0.328 C 
HETATM    2  N1  UNL     1      22.239  43.221  18.776  1.00  0.00    -0.329 N 
ATOM      3  H1  UNL     1      22.469  42.550  19.509  1.00  0.00     0.164 HD
HETATM    4  C6  UNL     1      20.888  43.184  18.492  1.00  0.00     0.242 C 
HETATM    5  O1  UNL     1      20.120  42.962  19.516  1.00  0.00    -0.271 OA
HETATM    6  C7  UNL     1      20.111  43.350  17.239  1.00  0.00     0.177 C 
HETATM    7  N2  UNL     1      20.070  42.131  16.461  1.00  0.00    -0.346 N 
ATOM      8  H2  UNL     1      20.732  42.125  15.684  1.00  0.00     0.163 HD
HETATM    9  C12 UNL     1      19.322  40.976  16.551  1.00  0.00     0.241 C 
HETATM   10  O2  UNL     1      18.678  40.588  15.501  1.00  0.00    -0.271 OA
HETATM   11  C13 UNL     1      19.088  40.026  17.665  1.00  0.00     0.186 C 
HETATM   12  N3  UNL     1      19.600  38.688  17.283  1.00  0.00    -0.346 N 
ATOM     13  H3  UNL     1      18.931  38.034  16.876  1.00  0.00     0.163 HD
HETATM   14  C16 UNL     1      20.910  38.244  17.427  1.00  0.00     0.241 C 
HETATM   15  O5  UNL     1      21.460  37.794  16.342  1.00  0.00    -0.271 OA
HETATM   16  C17 UNL     1      21.753  38.222  18.643  1.00  0.00     0.177 C 
HETATM   17  N4  UNL     1      22.515  39.415  18.800  1.00  0.00    -0.346 N 
ATOM     18  H4  UNL     1      21.959  40.243  18.580  1.00  0.00     0.163 HD
HETATM   19  C22 UNL     1      23.804  39.757  19.171  1.00  0.00     0.241 C 
HETATM   20  O6  UNL     1      24.071  40.165  20.373  1.00  0.00    -0.271 OA
HETATM   21  C23 UNL     1      25.068  39.742  18.353  1.00  0.00     0.177 C 
HETATM   22  N5  UNL     1      25.539  41.098  18.142  1.00  0.00    -0.346 N 
ATOM     23  H5  UNL     1      26.036  41.486  18.943  1.00  0.00     0.163 HD
HETATM   24  C28 UNL     1      25.447  41.969  17.076  1.00  0.00     0.252 C 
HETATM   25  O7  UNL     1      26.540  42.301  16.468  1.00  0.00    -0.271 OA
HETATM   26  C29 UNL     1      24.227  42.629  16.471  1.00  0.00     0.316 C 
HETATM   27  N6  UNL     1      23.913  43.887  17.059  1.00  0.00     0.121 N 
HETATM   28  C34 UNL     1      25.179  44.628  17.085  1.00  0.00     0.314 C 
ENDROOT
BRANCH   1  29
HETATM   29  C3  UNL     1      23.268  45.297  18.917  1.00  0.00     0.034 C 
HETATM   30  C4  UNL     1      22.165  46.132  18.318  1.00  0.00     0.014 C 
BRANCH  29  31
HETATM   31  C2  UNL     1      22.904  45.213  20.420  1.00  0.00     0.004 C 
HETATM   32  C1  UNL     1      21.840  46.216  20.700  1.00  0.00     0.005 C 
ENDBRANCH  29  31
ENDBRANCH   1  29
BRANCH  26  33
HETATM   33  C30 UNL     1      24.458  42.754  15.005  1.00  0.00     0.049 C 
BRANCH  33  34
HETATM   34  C31 UNL     1      23.394  42.327  14.087  1.00  0.00    -0.020 C 
HETATM   35  C32 UNL     1      23.751  42.167  12.662  1.00  0.00     0.009 C 
HETATM   36  C33 UNL     1      22.827  40.944  14.538  1.00  0.00     0.009 C 
ENDBRANCH  33  34
ENDBRANCH  26  33
BRANCH   6  37
HETATM   37  C8  UNL     1      18.724  43.866  17.626  1.00  0.00     0.038 C 
BRANCH  37  38
HETATM   38  C9  UNL     1      18.028  44.347  16.384  1.00  0.00    -0.020 C 
HETATM   39  C10 UNL     1      16.632  43.720  16.333  1.00  0.00     0.009 C 
HETATM   40  C11 UNL     1      17.871  45.880  16.419  1.00  0.00     0.009 C 
ENDBRANCH  37  38
ENDBRANCH   6  37
BRANCH  21  41
HETATM   41  C24 UNL     1      26.084  39.017  19.256  1.00  0.00     0.038 C 
BRANCH  41  42
HETATM   42  C25 UNL     1      27.352  39.777  19.444  1.00  0.00    -0.020 C 
HETATM   43  C26 UNL     1      28.603  39.046  19.101  1.00  0.00     0.009 C 
HETATM   44  C27 UNL     1      27.429  40.131  20.938  1.00  0.00     0.009 C 
ENDBRANCH  41  42
ENDBRANCH  21  41
BRANCH  11  45
HETATM   45  C14 UNL     1      17.576  39.879  17.925  1.00  0.00     0.147 C 
BRANCH  45  46
HETATM   46  C15 UNL     1      17.196  38.455  17.747  1.00  0.00     0.175 C 
HETATM   47  O3  UNL     1      16.681  38.055  16.679  1.00  0.00    -0.648 OA
HETATM   48  O4  UNL     1      17.382  37.480  18.736  1.00  0.00    -0.648 OA
ENDBRANCH  45  46
ENDBRANCH  11  45
BRANCH  16  49
HETATM   49  C18 UNL     1      22.589  36.994  18.752  1.00  0.00     0.038 C 
BRANCH  49  50
HETATM   50  C19 UNL     1      22.846  36.426  20.084  1.00  0.00    -0.020 C 
HETATM   51  C20 UNL     1      24.205  36.007  20.476  1.00  0.00     0.009 C 
HETATM   52  C21 UNL     1      21.905  35.272  20.425  1.00  0.00     0.009 C 
ENDBRANCH  49  50
ENDBRANCH  16  49
TORSDOF 12
ENDMDL
MODEL 5
REMARK VINA RESULT: -6.239874859      2.305      5.616
REMARK  12 active torsions:
REMARK  status: ('A' for Active; 'I' for Inactive)
REMARK    1  A    between atoms: C2_2  and  C3_3 
REMARK    2  A    between atoms: C3_3  and  C5_5 
REMARK    3  A    between atoms: C7_10  and  C8_11 
REMARK    4  A    between atoms: C8_11  and  C9_12 
REMARK    5  A    between atoms: C13_19  and  C14_20 
REMARK    6  A    between atoms: C14_20  and  C15_21 
REMARK    7  A    between atoms: C17_28  and  C18_29 
REMARK    8  A    between atoms: C18_29  and  C19_30 
REMARK    9  A    between atoms: C23_37  and  C24_38 
REMARK   10  A    between atoms: C24_38  and  C25_39 
REMARK   11  A    between atoms: C29_46  and  C30_47 
REMARK   12  A    between atoms: C30_47  and  C31_48 
ROOT
HETATM    1  C5  UNL     1      19.662  43.451  20.225  1.00  0.00     0.328 C 
HETATM    2  N1  UNL     1      19.328  42.099  20.395  1.00  0.00    -0.329 N 
ATOM      3  H1  UNL     1      20.134  41.571  20.731  1.00  0.00     0.164 HD
HETATM    4  C6  UNL     1      18.234  41.270  20.243  1.00  0.00     0.242 C 
HETATM    5  O1  UNL     1      18.142  40.320  21.124  1.00  0.00    -0.271 OA
HETATM    6  C7  UNL     1      17.117  41.235  19.267  1.00  0.00     0.177 C 
HETATM    7  N2  UNL     1      17.494  40.576  18.035  1.00  0.00    -0.346 N 
ATOM      8  H2  UNL     1      17.721  41.227  17.283  1.00  0.00     0.163 HD
HETATM    9  C12 UNL     1      17.610  39.253  17.668  1.00  0.00     0.241 C 
HETATM   10  O2  UNL     1      16.974  38.859  16.615  1.00  0.00    -0.271 OA
HETATM   11  C13 UNL     1      18.357  38.116  18.259  1.00  0.00     0.186 C 
HETATM   12  N3  UNL     1      19.355  37.624  17.279  1.00  0.00    -0.346 N 
ATOM     13  H3  UNL     1      19.075  36.845  16.684  1.00  0.00     0.163 HD
HETATM   14  C16 UNL     1      20.637  38.130  17.097  1.00  0.00     0.241 C 
HETATM   15  O5  UNL     1      20.920  38.484  15.882  1.00  0.00    -0.271 OA
HETATM   16  C17 UNL     1      21.711  38.320  18.098  1.00  0.00     0.177 C 
HETATM   17  N4  UNL     1      21.671  39.609  18.702  1.00  0.00    -0.346 N 
ATOM     18  H4  UNL     1      20.714  39.887  18.921  1.00  0.00     0.163 HD
HETATM   19  C22 UNL     1      22.578  40.586  19.073  1.00  0.00     0.241 C 
HETATM   20  O6  UNL     1      22.974  40.704  20.302  1.00  0.00    -0.271 OA
HETATM   21  C23 UNL     1      23.248  41.637  18.227  1.00  0.00     0.177 C 
HETATM   22  N5  UNL     1      22.769  42.954  18.601  1.00  0.00    -0.346 N 
ATOM     23  H5  UNL     1      23.208  43.323  19.444  1.00  0.00     0.163 HD
HETATM   24  C28 UNL     1      21.839  43.808  18.045  1.00  0.00     0.252 C 
HETATM   25  O7  UNL     1      22.260  44.929  17.556  1.00  0.00    -0.271 OA
HETATM   26  C29 UNL     1      20.340  43.644  17.905  1.00  0.00     0.316 C 
HETATM   27  N6  UNL     1      19.609  44.151  19.015  1.00  0.00     0.121 N 
HETATM   28  C34 UNL     1      20.154  45.491  19.258  1.00  0.00     0.314 C 
ENDROOT
BRANCH   1  29
HETATM   29  C3  UNL     1      18.990  44.185  21.355  1.00  0.00     0.034 C 
HETATM   30  C4  UNL     1      17.499  44.357  21.207  1.00  0.00     0.014 C 
BRANCH  29  31
HETATM   31  C2  UNL     1      19.148  43.371  22.662  1.00  0.00     0.004 C 
HETATM   32  C1  UNL     1      17.840  43.366  23.371  1.00  0.00     0.005 C 
ENDBRANCH  29  31
ENDBRANCH   1  29
BRANCH  26  33
HETATM   33  C30 UNL     1      19.929  44.300  16.634  1.00  0.00     0.049 C 
BRANCH  33  34
HETATM   34  C31 UNL     1      18.549  44.786  16.507  1.00  0.00    -0.020 C 
HETATM   35  C32 UNL     1      18.256  45.724  15.403  1.00  0.00     0.009 C 
HETATM   36  C33 UNL     1      17.578  43.580  16.306  1.00  0.00     0.009 C 
ENDBRANCH  33  34
ENDBRANCH  26  33
BRANCH   6  37
HETATM   37  C8  UNL     1      15.923  40.578  19.962  1.00  0.00     0.038 C 
BRANCH  37  38
HETATM   38  C9  UNL     1      14.774  41.546  19.957  1.00  0.00    -0.020 C 
HETATM   39  C10 UNL     1      14.616  42.123  21.367  1.00  0.00     0.009 C 
HETATM   40  C11 UNL     1      15.057  42.707  18.984  1.00  0.00     0.009 C 
ENDBRANCH  37  38
ENDBRANCH   6  37
BRANCH  21  41
HETATM   41  C24 UNL     1      24.734  41.536  18.622  1.00  0.00     0.038 C 
BRANCH  41  42
HETATM   42  C25 UNL     1      25.627  41.218  17.473  1.00  0.00    -0.020 C 
HETATM   43  C26 UNL     1      26.658  42.244  17.148  1.00  0.00     0.009 C 
HETATM   44  C27 UNL     1      24.719  41.083  16.240  1.00  0.00     0.009 C 
ENDBRANCH  41  42
ENDBRANCH  21  41
BRANCH  11  45
HETATM   45  C14 UNL     1      17.395  36.949  18.556  1.00  0.00     0.147 C 
BRANCH  45  46
HETATM   46  C15 UNL     1      18.073  35.673  18.217  1.00  0.00     0.175 C 
HETATM   47  O3  UNL     1      17.796  35.058  17.164  1.00  0.00    -0.648 OA
HETATM   48  O4  UNL     1      19.046  35.080  19.033  1.00  0.00    -0.648 OA
ENDBRANCH  45  46
ENDBRANCH  11  45
BRANCH  16  49
HETATM   49  C18 UNL     1      23.063  37.976  17.577  1.00  0.00     0.038 C 
BRANCH  49  50
HETATM   50  C19 UNL     1      23.444  36.559  17.472  1.00  0.00    -0.020 C 
HETATM   51  C20 UNL     1      23.272  35.824  16.205  1.00  0.00     0.009 C 
HETATM   52  C21 UNL     1      22.831  35.701  18.576  1.00  0.00     0.009 C 
ENDBRANCH  49  50
ENDBRANCH  16  49
TORSDOF 12
ENDMDL
