MODEL 1
REMARK VINA RESULT: -6.253926363      0.000      0.000
REMARK  13 active torsions:
REMARK  status: ('A' for Active; 'I' for Inactive)
REMARK    1  A    between atoms: C2_2  and  C4_4 
REMARK    2  A    between atoms: C4_4  and  C5_5 
REMARK    3  A    between atoms: C7_10  and  C8_11 
REMARK    4  A    between atoms: C8_11  and  C9_12 
REMARK    5  A    between atoms: C13_19  and  C14_20 
REMARK    6  A    between atoms: C14_20  and  C15_21 
REMARK    7  A    between atoms: C19_28  and  C20_29 
REMARK    8  A    between atoms: C20_29  and  C21_30 
REMARK    9  A    between atoms: C24_35  and  O4_36 
REMARK   10  A    between atoms: C25_38  and  C26_39 
REMARK   11  A    between atoms: C26_39  and  C27_40 
REMARK   12  A    between atoms: C31_47  and  C32_48 
REMARK   13  A    between atoms: C32_48  and  C33_49 
ROOT
HETATM    1  C5  UNL     1      24.552  38.232  18.360  1.00  0.00     0.154 C 
HETATM    2  N1  UNL     1      24.677  39.068  17.196  1.00  0.00    -0.348 N 
ATOM      3  H1  UNL     1      25.444  38.797  16.580  1.00  0.00     0.163 HD
HETATM    4  C6  UNL     1      23.975  40.154  16.749  1.00  0.00     0.241 C 
HETATM    5  O1  UNL     1      23.451  40.102  15.579  1.00  0.00    -0.271 OA
HETATM    6  C7  UNL     1      23.718  41.466  17.471  1.00  0.00     0.177 C 
HETATM    7  N2  UNL     1      22.727  42.210  16.738  1.00  0.00    -0.346 N 
ATOM      8  H2  UNL     1      23.092  42.899  16.081  1.00  0.00     0.163 HD
HETATM    9  C12 UNL     1      21.344  42.119  16.804  1.00  0.00     0.241 C 
HETATM   10  O2  UNL     1      20.737  42.035  15.666  1.00  0.00    -0.271 OA
HETATM   11  C13 UNL     1      20.449  42.103  18.008  1.00  0.00     0.177 C 
HETATM   12  N3  UNL     1      20.303  40.771  18.533  1.00  0.00    -0.346 N 
ATOM     13  H3  UNL     1      21.071  40.452  19.123  1.00  0.00     0.163 HD
HETATM   14  C18 UNL     1      19.265  39.848  18.357  1.00  0.00     0.241 C 
HETATM   15  O3  UNL     1      18.990  39.132  19.393  1.00  0.00    -0.271 OA
HETATM   16  C19 UNL     1      18.438  39.555  17.188  1.00  0.00     0.175 C 
HETATM   17  N4  UNL     1      17.677  38.312  17.326  1.00  0.00    -0.359 N 
ATOM     18  H4  UNL     1      16.800  38.285  16.805  1.00  0.00     0.162 HD
HETATM   19  C24 UNL     1      17.959  37.172  18.051  1.00  0.00     0.135 C 
HETATM   20  C25 UNL     1      19.060  36.185  17.903  1.00  0.00     0.159 C 
HETATM   21  N5  UNL     1      19.874  36.437  16.736  1.00  0.00    -0.349 N 
ATOM     22  H5  UNL     1      19.387  36.722  15.886  1.00  0.00     0.163 HD
HETATM   23  C30 UNL     1      21.283  36.324  16.660  1.00  0.00     0.223 C 
HETATM   24  O5  UNL     1      21.891  37.144  15.878  1.00  0.00    -0.273 OA
HETATM   25  C31 UNL     1      22.130  35.372  17.378  1.00  0.00     0.093 C 
HETATM   26  C34 UNL     1      23.493  36.003  17.687  1.00  0.00     0.095 C 
HETATM   27  C35 UNL     1      23.333  37.365  18.261  1.00  0.00     0.150 C 
HETATM   28  O7  UNL     1      22.268  37.812  18.655  1.00  0.00    -0.296 OA
ENDROOT
BRANCH   1  29
HETATM   29  C4  UNL     1      24.511  38.916  19.680  1.00  0.00     0.037 C 
BRANCH  29  30
HETATM   30  C2  UNL     1      25.973  39.010  20.166  1.00  0.00    -0.020 C 
HETATM   31  C1  UNL     1      26.195  37.795  21.032  1.00  0.00     0.009 C 
HETATM   32  C3  UNL     1      26.032  40.250  21.065  1.00  0.00     0.009 C 
ENDBRANCH  29  30
ENDBRANCH   1  29
BRANCH   6  33
HETATM   33  C8  UNL     1      25.038  42.150  17.621  1.00  0.00     0.038 C 
BRANCH  33  34
HETATM   34  C9  UNL     1      25.317  43.006  18.773  1.00  0.00    -0.020 C 
HETATM   35  C10 UNL     1      24.738  44.378  18.672  1.00  0.00     0.009 C 
HETATM   36  C11 UNL     1      26.858  43.158  18.841  1.00  0.00     0.009 C 
ENDBRANCH  33  34
ENDBRANCH   6  33
BRANCH  25  37
HETATM   37  C32 UNL     1      22.346  34.048  16.722  1.00  0.00     0.114 C 
BRANCH  37  38
HETATM   38  C33 UNL     1      22.541  34.023  15.288  1.00  0.00     0.232 C 
HETATM   39  N6  UNL     1      21.598  33.289  14.496  1.00  0.00    -0.062 NA
HETATM   40  O6  UNL     1      23.457  34.580  14.659  1.00  0.00    -0.277 OA
ENDBRANCH  37  38
ENDBRANCH  25  37
BRANCH  11  41
HETATM   41  C14 UNL     1      20.901  43.126  19.012  1.00  0.00     0.038 C 
BRANCH  41  42
HETATM   42  C15 UNL     1      21.030  42.718  20.423  1.00  0.00    -0.020 C 
HETATM   43  C16 UNL     1      20.646  43.969  21.265  1.00  0.00     0.009 C 
HETATM   44  C17 UNL     1      22.412  42.355  20.888  1.00  0.00     0.009 C 
ENDBRANCH  41  42
ENDBRANCH  11  41
BRANCH  20  45
HETATM   45  C26 UNL     1      18.611  34.782  18.019  1.00  0.00     0.037 C 
BRANCH  45  46
HETATM   46  C27 UNL     1      18.364  33.971  16.829  1.00  0.00    -0.020 C 
HETATM   47  C28 UNL     1      18.885  32.586  16.755  1.00  0.00     0.009 C 
HETATM   48  C29 UNL     1      16.907  33.933  16.391  1.00  0.00     0.009 C 
ENDBRANCH  45  46
ENDBRANCH  20  45
BRANCH  19  49
HETATM   49  O4  UNL     1      17.167  36.857  19.035  1.00  0.00    -0.348 OA
ATOM     50  H4  UNL     1      17.484  36.244  19.688  1.00  0.00     0.219 HD
ENDBRANCH  19  49
BRANCH  16  51
HETATM   51  C20 UNL     1      17.471  40.612  16.745  1.00  0.00     0.038 C 
BRANCH  51  52
HETATM   52  C21 UNL     1      16.916  41.549  17.713  1.00  0.00    -0.020 C 
HETATM   53  C22 UNL     1      16.805  42.986  17.437  1.00  0.00     0.009 C 
HETATM   54  C23 UNL     1      15.485  41.057  18.026  1.00  0.00     0.009 C 
ENDBRANCH  51  52
ENDBRANCH  16  51
TORSDOF 13
ENDMDL
MODEL 2
REMARK VINA RESULT: -6.157936096      0.934      1.232
REMARK  13 active torsions:
REMARK  status: ('A' for Active; 'I' for Inactive)
REMARK    1  A    between atoms: C2_2  and  C4_4 
REMARK    2  A    between atoms: C4_4  and  C5_5 
REMARK    3  A    between atoms: C7_10  and  C8_11 
REMARK    4  A    between atoms: C8_11  and  C9_12 
REMARK    5  A    between atoms: C13_19  and  C14_20 
REMARK    6  A    between atoms: C14_20  and  C15_21 
REMARK    7  A    between atoms: C19_28  and  C20_29 
REMARK    8  A    between atoms: C20_29  and  C21_30 
REMARK    9  A    between atoms: C24_35  and  O4_36 
REMARK   10  A    between atoms: C25_38  and  C26_39 
REMARK   11  A    between atoms: C26_39  and  C27_40 
REMARK   12  A    between atoms: C31_47  and  C32_48 
REMARK   13  A    between atoms: C32_48  and  C33_49 
ROOT
HETATM    1  C5  UNL     1      24.490  38.465  18.466  1.00  0.00     0.154 C 
HETATM    2  N1  UNL     1      24.673  39.171  17.227  1.00  0.00    -0.348 N 
ATOM      3  H1  UNL     1      25.416  38.786  16.644  1.00  0.00     0.163 HD
HETATM    4  C6  UNL     1      24.051  40.257  16.673  1.00  0.00     0.241 C 
HETATM    5  O1  UNL     1      23.522  40.130  15.511  1.00  0.00    -0.271 OA
HETATM    6  C7  UNL     1      23.893  41.649  17.262  1.00  0.00     0.177 C 
HETATM    7  N2  UNL     1      22.957  42.388  16.456  1.00  0.00    -0.346 N 
ATOM      8  H2  UNL     1      23.370  42.981  15.736  1.00  0.00     0.163 HD
HETATM    9  C12 UNL     1      21.571  42.405  16.524  1.00  0.00     0.241 C 
HETATM   10  O2  UNL     1      20.956  42.256  15.397  1.00  0.00    -0.271 OA
HETATM   11  C13 UNL     1      20.681  42.574  17.719  1.00  0.00     0.177 C 
HETATM   12  N3  UNL     1      20.439  41.313  18.372  1.00  0.00    -0.346 N 
ATOM     13  H3  UNL     1      21.183  40.998  18.993  1.00  0.00     0.163 HD
HETATM   14  C18 UNL     1      19.336  40.456  18.282  1.00  0.00     0.241 C 
HETATM   15  O3  UNL     1      19.012  39.867  19.382  1.00  0.00    -0.271 OA
HETATM   16  C19 UNL     1      18.486  40.112  17.143  1.00  0.00     0.175 C 
HETATM   17  N4  UNL     1      17.636  38.947  17.399  1.00  0.00    -0.359 N 
ATOM     18  H4  UNL     1      16.758  38.933  16.879  1.00  0.00     0.162 HD
HETATM   19  C24 UNL     1      17.836  37.866  18.233  1.00  0.00     0.135 C 
HETATM   20  C25 UNL     1      18.861  36.791  18.187  1.00  0.00     0.159 C 
HETATM   21  N5  UNL     1      19.688  36.867  17.005  1.00  0.00    -0.349 N 
ATOM     22  H5  UNL     1      19.221  37.103  16.129  1.00  0.00     0.163 HD
HETATM   23  C30 UNL     1      21.084  36.645  16.946  1.00  0.00     0.223 C 
HETATM   24  O5  UNL     1      21.749  37.337  16.091  1.00  0.00    -0.273 OA
HETATM   25  C31 UNL     1      21.862  35.707  17.757  1.00  0.00     0.093 C 
HETATM   26  C34 UNL     1      23.268  36.264  18.010  1.00  0.00     0.095 C 
HETATM   27  C35 UNL     1      23.210  37.684  18.447  1.00  0.00     0.150 C 
HETATM   28  O7  UNL     1      22.182  38.245  18.791  1.00  0.00    -0.296 OA
ENDROOT
BRANCH   1  29
HETATM   29  C4  UNL     1      24.503  39.276  19.713  1.00  0.00     0.037 C 
BRANCH  29  30
HETATM   30  C2  UNL     1      25.977  39.361  20.161  1.00  0.00    -0.020 C 
HETATM   31  C1  UNL     1      26.304  38.011  20.750  1.00  0.00     0.009 C 
HETATM   32  C3  UNL     1      26.008  40.393  21.293  1.00  0.00     0.009 C 
ENDBRANCH  29  30
ENDBRANCH   1  29
BRANCH   6  33
HETATM   33  C8  UNL     1      25.260  42.246  17.351  1.00  0.00     0.038 C 
BRANCH  33  34
HETATM   34  C9  UNL     1      25.589  43.228  18.382  1.00  0.00    -0.020 C 
HETATM   35  C10 UNL     1      24.671  43.213  19.559  1.00  0.00     0.009 C 
HETATM   36  C11 UNL     1      25.464  44.621  17.714  1.00  0.00     0.009 C 
ENDBRANCH  33  34
ENDBRANCH   6  33
BRANCH  25  37
HETATM   37  C32 UNL     1      21.977  34.313  17.235  1.00  0.00     0.114 C 
BRANCH  37  38
HETATM   38  C33 UNL     1      22.256  34.136  15.826  1.00  0.00     0.232 C 
HETATM   39  N6  UNL     1      21.289  33.432  15.035  1.00  0.00    -0.062 NA
HETATM   40  O6  UNL     1      23.263  34.536  15.217  1.00  0.00    -0.277 OA
ENDBRANCH  37  38
ENDBRANCH  25  37
BRANCH  11  41
HETATM   41  C14 UNL     1      21.210  43.654  18.621  1.00  0.00     0.038 C 
BRANCH  41  42
HETATM   42  C15 UNL     1      21.392  45.007  18.065  1.00  0.00    -0.020 C 
HETATM   43  C16 UNL     1      22.003  45.860  19.214  1.00  0.00     0.009 C 
HETATM   44  C17 UNL     1      20.140  45.740  17.671  1.00  0.00     0.009 C 
ENDBRANCH  41  42
ENDBRANCH  11  41
BRANCH  20  45
HETATM   45  C26 UNL     1      18.311  35.443  18.438  1.00  0.00     0.037 C 
BRANCH  45  46
HETATM   46  C27 UNL     1      17.588  34.720  17.394  1.00  0.00    -0.020 C 
HETATM   47  C28 UNL     1      18.176  33.498  16.796  1.00  0.00     0.009 C 
HETATM   48  C29 UNL     1      16.140  34.406  17.740  1.00  0.00     0.009 C 
ENDBRANCH  45  46
ENDBRANCH  20  45
BRANCH  19  49
HETATM   49  O4  UNL     1      17.025  37.707  19.240  1.00  0.00    -0.348 OA
ATOM     50  H4  UNL     1      16.393  36.999  19.200  1.00  0.00     0.219 HD
ENDBRANCH  19  49
BRANCH  16  51
HETATM   51  C20 UNL     1      17.598  41.189  16.595  1.00  0.00     0.038 C 
BRANCH  51  52
HETATM   52  C21 UNL     1      17.036  42.197  17.483  1.00  0.00    -0.020 C 
HETATM   53  C22 UNL     1      17.095  43.631  17.177  1.00  0.00     0.009 C 
HETATM   54  C23 UNL     1      15.538  41.851  17.645  1.00  0.00     0.009 C 
ENDBRANCH  51  52
ENDBRANCH  16  51
TORSDOF 13
ENDMDL
MODEL 3
REMARK VINA RESULT: -6.069435347      0.811      1.127
REMARK  13 active torsions:
REMARK  status: ('A' for Active; 'I' for Inactive)
REMARK    1  A    between atoms: C2_2  and  C4_4 
REMARK    2  A    between atoms: C4_4  and  C5_5 
REMARK    3  A    between atoms: C7_10  and  C8_11 
REMARK    4  A    between atoms: C8_11  and  C9_12 
REMARK    5  A    between atoms: C13_19  and  C14_20 
REMARK    6  A    between atoms: C14_20  and  C15_21 
REMARK    7  A    between atoms: C19_28  and  C20_29 
REMARK    8  A    between atoms: C20_29  and  C21_30 
REMARK    9  A    between atoms: C24_35  and  O4_36 
REMARK   10  A    between atoms: C25_38  and  C26_39 
REMARK   11  A    between atoms: C26_39  and  C27_40 
REMARK   12  A    between atoms: C31_47  and  C32_48 
REMARK   13  A    between atoms: C32_48  and  C33_49 
ROOT
HETATM    1  C5  UNL     1      24.440  37.528  18.430  1.00  0.00     0.154 C 
HETATM    2  N1  UNL     1      24.611  38.437  17.329  1.00  0.00    -0.348 N 
ATOM      3  H1  UNL     1      25.375  38.180  16.704  1.00  0.00     0.163 HD
HETATM    4  C6  UNL     1      23.956  39.578  16.951  1.00  0.00     0.241 C 
HETATM    5  O1  UNL     1      23.447  39.627  15.775  1.00  0.00    -0.271 OA
HETATM    6  C7  UNL     1      23.739  40.845  17.760  1.00  0.00     0.177 C 
HETATM    7  N2  UNL     1      22.786  41.676  17.070  1.00  0.00    -0.346 N 
ATOM      8  H2  UNL     1      23.185  42.394  16.466  1.00  0.00     0.163 HD
HETATM    9  C12 UNL     1      21.400  41.633  17.115  1.00  0.00     0.241 C 
HETATM   10  O2  UNL     1      20.805  41.652  15.967  1.00  0.00    -0.271 OA
HETATM   11  C13 UNL     1      20.489  41.569  18.304  1.00  0.00     0.177 C 
HETATM   12  N3  UNL     1      20.286  40.210  18.734  1.00  0.00    -0.346 N 
ATOM     13  H3  UNL     1      21.034  39.821  19.309  1.00  0.00     0.163 HD
HETATM   14  C18 UNL     1      19.217  39.341  18.483  1.00  0.00     0.241 C 
HETATM   15  O3  UNL     1      18.902  38.567  19.464  1.00  0.00    -0.271 OA
HETATM   16  C19 UNL     1      18.395  39.162  17.288  1.00  0.00     0.175 C 
HETATM   17  N4  UNL     1      17.586  37.942  17.331  1.00  0.00    -0.359 N 
ATOM     18  H4  UNL     1      16.716  37.984  16.800  1.00  0.00     0.162 HD
HETATM   19  C24 UNL     1      17.816  36.745  17.978  1.00  0.00     0.135 C 
HETATM   20  C25 UNL     1      18.882  35.729  17.774  1.00  0.00     0.159 C 
HETATM   21  N5  UNL     1      19.719  36.029  16.636  1.00  0.00    -0.349 N 
ATOM     22  H5  UNL     1      19.255  36.391  15.803  1.00  0.00     0.163 HD
HETATM   23  C30 UNL     1      21.124  35.869  16.567  1.00  0.00     0.223 C 
HETATM   24  O5  UNL     1      21.772  36.717  15.851  1.00  0.00    -0.273 OA
HETATM   25  C31 UNL     1      21.926  34.837  17.226  1.00  0.00     0.093 C 
HETATM   26  C34 UNL     1      23.307  35.393  17.593  1.00  0.00     0.095 C 
HETATM   27  C35 UNL     1      23.190  36.717  18.259  1.00  0.00     0.150 C 
HETATM   28  O7  UNL     1      22.138  37.177  18.671  1.00  0.00    -0.296 OA
ENDROOT
BRANCH   1  29
HETATM   29  C4  UNL     1      24.407  38.121  19.794  1.00  0.00     0.037 C 
BRANCH  29  30
HETATM   30  C2  UNL     1      25.722  37.700  20.483  1.00  0.00    -0.020 C 
HETATM   31  C1  UNL     1      25.351  36.583  21.426  1.00  0.00     0.009 C 
HETATM   32  C3  UNL     1      26.155  38.906  21.323  1.00  0.00     0.009 C 
ENDBRANCH  29  30
ENDBRANCH   1  29
BRANCH   6  33
HETATM   33  C8  UNL     1      25.082  41.467  17.971  1.00  0.00     0.038 C 
BRANCH  33  34
HETATM   34  C9  UNL     1      25.357  42.284  19.151  1.00  0.00    -0.020 C 
HETATM   35  C10 UNL     1      26.733  42.119  19.705  1.00  0.00     0.009 C 
HETATM   36  C11 UNL     1      24.360  41.823  20.244  1.00  0.00     0.009 C 
ENDBRANCH  33  34
ENDBRANCH   6  33
BRANCH  25  37
HETATM   37  C32 UNL     1      22.100  33.554  16.482  1.00  0.00     0.114 C 
BRANCH  37  38
HETATM   38  C33 UNL     1      22.331  33.622  15.054  1.00  0.00     0.232 C 
HETATM   39  N6  UNL     1      21.313  33.104  14.186  1.00  0.00    -0.062 NA
HETATM   40  O6  UNL     1      23.335  34.089  14.491  1.00  0.00    -0.277 OA
ENDBRANCH  37  38
ENDBRANCH  25  37
BRANCH  11  41
HETATM   41  C14 UNL     1      20.965  42.502  19.382  1.00  0.00     0.038 C 
BRANCH  41  42
HETATM   42  C15 UNL     1      20.810  43.953  19.176  1.00  0.00    -0.020 C 
HETATM   43  C16 UNL     1      22.219  44.570  19.407  1.00  0.00     0.009 C 
HETATM   44  C17 UNL     1      19.915  44.672  20.148  1.00  0.00     0.009 C 
ENDBRANCH  41  42
ENDBRANCH  11  41
BRANCH  20  45
HETATM   45  C26 UNL     1      18.379  34.340  17.787  1.00  0.00     0.037 C 
BRANCH  45  46
HETATM   46  C27 UNL     1      18.207  33.591  16.545  1.00  0.00    -0.020 C 
HETATM   47  C28 UNL     1      18.558  32.152  16.492  1.00  0.00     0.009 C 
HETATM   48  C29 UNL     1      16.835  33.748  15.906  1.00  0.00     0.009 C 
ENDBRANCH  45  46
ENDBRANCH  20  45
BRANCH  19  49
HETATM   49  O4  UNL     1      17.000  36.393  18.929  1.00  0.00    -0.348 OA
ATOM     50  H4  UNL     1      17.148  36.742  19.800  1.00  0.00     0.219 HD
ENDBRANCH  19  49
BRANCH  16  51
HETATM   51  C20 UNL     1      17.475  40.283  16.910  1.00  0.00     0.038 C 
BRANCH  51  52
HETATM   52  C21 UNL     1      16.921  41.155  17.937  1.00  0.00    -0.020 C 
HETATM   53  C22 UNL     1      16.943  42.618  17.818  1.00  0.00     0.009 C 
HETATM   54  C23 UNL     1      15.436  40.756  18.095  1.00  0.00     0.009 C 
ENDBRANCH  51  52
ENDBRANCH  16  51
TORSDOF 13
ENDMDL
MODEL 4
REMARK VINA RESULT: -6.069228862      2.214      7.572
REMARK  13 active torsions:
REMARK  status: ('A' for Active; 'I' for Inactive)
REMARK    1  A    between atoms: C2_2  and  C4_4 
REMARK    2  A    between atoms: C4_4  and  C5_5 
REMARK    3  A    between atoms: C7_10  and  C8_11 
REMARK    4  A    between atoms: C8_11  and  C9_12 
REMARK    5  A    between atoms: C13_19  and  C14_20 
REMARK    6  A    between atoms: C14_20  and  C15_21 
REMARK    7  A    between atoms: C19_28  and  C20_29 
REMARK    8  A    between atoms: C20_29  and  C21_30 
REMARK    9  A    between atoms: C24_35  and  O4_36 
REMARK   10  A    between atoms: C25_38  and  C26_39 
REMARK   11  A    between atoms: C26_39  and  C27_40 
REMARK   12  A    between atoms: C31_47  and  C32_48 
REMARK   13  A    between atoms: C32_48  and  C33_49 
ROOT
HETATM    1  C5  UNL     1      22.313  42.146  19.095  1.00  0.00     0.154 C 
HETATM    2  N1  UNL     1      22.221  41.946  17.674  1.00  0.00    -0.348 N 
ATOM      3  H1  UNL     1      22.579  42.730  17.128  1.00  0.00     0.163 HD
HETATM    4  C6  UNL     1      21.752  40.915  16.907  1.00  0.00     0.241 C 
HETATM    5  O1  UNL     1      22.544  40.382  16.049  1.00  0.00    -0.271 OA
HETATM    6  C7  UNL     1      20.368  40.286  16.926  1.00  0.00     0.177 C 
HETATM    7  N2  UNL     1      20.399  39.078  16.144  1.00  0.00    -0.346 N 
ATOM      8  H2  UNL     1      20.099  39.175  15.174  1.00  0.00     0.163 HD
HETATM    9  C12 UNL     1      20.780  37.800  16.530  1.00  0.00     0.241 C 
HETATM   10  O2  UNL     1      21.601  37.200  15.732  1.00  0.00    -0.271 OA
HETATM   11  C13 UNL     1      20.375  37.012  17.740  1.00  0.00     0.177 C 
HETATM   12  N3  UNL     1      21.212  37.322  18.869  1.00  0.00    -0.346 N 
ATOM     13  H3  UNL     1      20.968  38.178  19.367  1.00  0.00     0.163 HD
HETATM   14  C18 UNL     1      22.311  36.626  19.386  1.00  0.00     0.241 C 
HETATM   15  O3  UNL     1      22.409  36.640  20.672  1.00  0.00    -0.271 OA
HETATM   16  C19 UNL     1      23.373  35.882  18.711  1.00  0.00     0.175 C 
HETATM   17  N4  UNL     1      24.496  35.563  19.595  1.00  0.00    -0.359 N 
ATOM     18  H4  UNL     1      25.011  34.718  19.348  1.00  0.00     0.162 HD
HETATM   19  C24 UNL     1      24.966  36.226  20.710  1.00  0.00     0.135 C 
HETATM   20  C25 UNL     1      25.572  37.576  20.844  1.00  0.00     0.159 C 
HETATM   21  N5  UNL     1      25.786  38.214  19.565  1.00  0.00    -0.349 N 
ATOM     22  H5  UNL     1      26.126  37.624  18.806  1.00  0.00     0.163 HD
HETATM   23  C30 UNL     1      25.569  39.580  19.266  1.00  0.00     0.223 C 
HETATM   24  O5  UNL     1      25.170  39.860  18.077  1.00  0.00    -0.273 OA
HETATM   25  C31 UNL     1      25.752  40.719  20.167  1.00  0.00     0.093 C 
HETATM   26  C34 UNL     1      24.738  41.823  19.839  1.00  0.00     0.095 C 
HETATM   27  C35 UNL     1      23.369  41.263  19.689  1.00  0.00     0.150 C 
HETATM   28  O7  UNL     1      23.061  40.130  20.021  1.00  0.00    -0.296 OA
ENDROOT
BRANCH   1  29
HETATM   29  C4  UNL     1      21.067  41.949  19.885  1.00  0.00     0.037 C 
BRANCH  29  30
HETATM   30  C2  UNL     1      20.189  43.192  19.628  1.00  0.00    -0.020 C 
HETATM   31  C1  UNL     1      20.987  44.368  20.133  1.00  0.00     0.009 C 
HETATM   32  C3  UNL     1      18.963  43.027  20.532  1.00  0.00     0.009 C 
ENDBRANCH  29  30
ENDBRANCH   1  29
BRANCH   6  33
HETATM   33  C8  UNL     1      19.407  41.325  16.446  1.00  0.00     0.038 C 
BRANCH  33  34
HETATM   34  C9  UNL     1      17.971  41.188  16.676  1.00  0.00    -0.020 C 
HETATM   35  C10 UNL     1      17.216  42.475  16.631  1.00  0.00     0.009 C 
HETATM   36  C11 UNL     1      17.811  40.608  18.104  1.00  0.00     0.009 C 
ENDBRANCH  33  34
ENDBRANCH   6  33
BRANCH  25  37
HETATM   37  C32 UNL     1      27.120  41.314  20.218  1.00  0.00     0.114 C 
BRANCH  37  38
HETATM   38  C33 UNL     1      27.944  41.226  19.032  1.00  0.00     0.232 C 
HETATM   39  N6  UNL     1      27.750  42.209  18.006  1.00  0.00    -0.062 NA
HETATM   40  O6  UNL     1      28.818  40.372  18.803  1.00  0.00    -0.277 OA
ENDBRANCH  37  38
ENDBRANCH  25  37
BRANCH  11  41
HETATM   41  C14 UNL     1      18.901  37.160  17.994  1.00  0.00     0.038 C 
BRANCH  41  42
HETATM   42  C15 UNL     1      18.147  35.986  18.471  1.00  0.00    -0.020 C 
HETATM   43  C16 UNL     1      18.880  34.744  17.886  1.00  0.00     0.009 C 
HETATM   44  C17 UNL     1      16.732  35.859  17.981  1.00  0.00     0.009 C 
ENDBRANCH  41  42
ENDBRANCH  11  41
BRANCH  20  45
HETATM   45  C26 UNL     1      26.759  37.604  21.723  1.00  0.00     0.037 C 
BRANCH  45  46
HETATM   46  C27 UNL     1      28.107  37.489  21.171  1.00  0.00    -0.020 C 
HETATM   47  C28 UNL     1      29.176  38.405  21.631  1.00  0.00     0.009 C 
HETATM   48  C29 UNL     1      28.675  36.077  21.199  1.00  0.00     0.009 C 
ENDBRANCH  45  46
ENDBRANCH  20  45
BRANCH  19  49
HETATM   49  O4  UNL     1      24.895  35.621  21.861  1.00  0.00    -0.348 OA
ATOM     50  H4  UNL     1      24.260  35.935  22.495  1.00  0.00     0.219 HD
ENDBRANCH  19  49
BRANCH  16  51
HETATM   51  C20 UNL     1      22.990  34.610  18.016  1.00  0.00     0.038 C 
BRANCH  51  52
HETATM   52  C21 UNL     1      23.021  34.532  16.562  1.00  0.00    -0.020 C 
HETATM   53  C22 UNL     1      24.253  34.239  15.819  1.00  0.00     0.009 C 
HETATM   54  C23 UNL     1      22.004  33.440  16.160  1.00  0.00     0.009 C 
ENDBRANCH  51  52
ENDBRANCH  16  51
TORSDOF 13
ENDMDL
MODEL 5
REMARK VINA RESULT: -6.060970794      2.299      7.004
REMARK  13 active torsions:
REMARK  status: ('A' for Active; 'I' for Inactive)
REMARK    1  A    between atoms: C2_2  and  C4_4 
REMARK    2  A    between atoms: C4_4  and  C5_5 
REMARK    3  A    between atoms: C7_10  and  C8_11 
REMARK    4  A    between atoms: C8_11  and  C9_12 
REMARK    5  A    between atoms: C13_19  and  C14_20 
REMARK    6  A    between atoms: C14_20  and  C15_21 
REMARK    7  A    between atoms: C19_28  and  C20_29 
REMARK    8  A    between atoms: C20_29  and  C21_30 
REMARK    9  A    between atoms: C24_35  and  O4_36 
REMARK   10  A    between atoms: C25_38  and  C26_39 
REMARK   11  A    between atoms: C26_39  and  C27_40 
REMARK   12  A    between atoms: C31_47  and  C32_48 
REMARK   13  A    between atoms: C32_48  and  C33_49 
ROOT
HETATM    1  C5  UNL     1      22.927  42.650  19.435  1.00  0.00     0.154 C 
HETATM    2  N1  UNL     1      22.974  42.673  17.998  1.00  0.00    -0.348 N 
ATOM      3  H1  UNL     1      23.556  43.422  17.621  1.00  0.00     0.163 HD
HETATM    4  C6  UNL     1      22.395  41.893  17.034  1.00  0.00     0.241 C 
HETATM    5  O1  UNL     1      23.156  41.316  16.178  1.00  0.00    -0.271 OA
HETATM    6  C7  UNL     1      20.918  41.603  16.825  1.00  0.00     0.177 C 
HETATM    7  N2  UNL     1      20.788  40.540  15.864  1.00  0.00    -0.346 N 
ATOM      8  H2  UNL     1      20.640  40.835  14.899  1.00  0.00     0.163 HD
HETATM    9  C12 UNL     1      20.837  39.168  16.070  1.00  0.00     0.241 C 
HETATM   10  O2  UNL     1      21.605  38.511  15.264  1.00  0.00    -0.271 OA
HETATM   11  C13 UNL     1      20.125  38.335  17.094  1.00  0.00     0.177 C 
HETATM   12  N3  UNL     1      20.861  38.286  18.330  1.00  0.00    -0.346 N 
ATOM     13  H3  UNL     1      20.745  39.098  18.936  1.00  0.00     0.163 HD
HETATM   14  C18 UNL     1      21.712  37.291  18.826  1.00  0.00     0.241 C 
HETATM   15  O3  UNL     1      21.649  37.105  20.100  1.00  0.00    -0.271 OA
HETATM   16  C19 UNL     1      22.667  36.423  18.139  1.00  0.00     0.175 C 
HETATM   17  N4  UNL     1      23.576  35.737  19.059  1.00  0.00    -0.359 N 
ATOM     18  H4  UNL     1      23.926  34.838  18.726  1.00  0.00     0.162 HD
HETATM   19  C24 UNL     1      24.033  36.115  20.305  1.00  0.00     0.135 C 
HETATM   20  C25 UNL     1      24.892  37.258  20.710  1.00  0.00     0.159 C 
HETATM   21  N5  UNL     1      25.396  37.998  19.577  1.00  0.00    -0.349 N 
ATOM     22  H5  UNL     1      25.694  37.456  18.766  1.00  0.00     0.163 HD
HETATM   23  C30 UNL     1      25.514  39.406  19.485  1.00  0.00     0.223 C 
HETATM   24  O5  UNL     1      25.336  39.930  18.325  1.00  0.00    -0.273 OA
HETATM   25  C31 UNL     1      25.821  40.337  20.571  1.00  0.00     0.093 C 
HETATM   26  C34 UNL     1      25.115  41.678  20.335  1.00  0.00     0.095 C 
HETATM   27  C35 UNL     1      23.689  41.475  19.972  1.00  0.00     0.150 C 
HETATM   28  O7  UNL     1      23.106  40.408  20.087  1.00  0.00    -0.296 OA
ENDROOT
BRANCH   1  29
HETATM   29  C4  UNL     1      21.579  42.638  20.065  1.00  0.00     0.037 C 
BRANCH  29  30
HETATM   30  C2  UNL     1      21.063  44.090  20.014  1.00  0.00    -0.020 C 
HETATM   31  C1  UNL     1      21.971  44.881  20.922  1.00  0.00     0.009 C 
HETATM   32  C3  UNL     1      19.669  44.057  20.648  1.00  0.00     0.009 C 
ENDBRANCH  29  30
ENDBRANCH   1  29
BRANCH   6  33
HETATM   33  C8  UNL     1      20.269  42.891  16.433  1.00  0.00     0.038 C 
BRANCH  33  34
HETATM   34  C9  UNL     1      19.017  43.323  17.051  1.00  0.00    -0.020 C 
HETATM   35  C10 UNL     1      17.855  42.426  16.776  1.00  0.00     0.009 C 
HETATM   36  C11 UNL     1      18.686  44.710  16.444  1.00  0.00     0.009 C 
ENDBRANCH  33  34
ENDBRANCH   6  33
BRANCH  25  37
HETATM   37  C32 UNL     1      27.267  40.589  20.843  1.00  0.00     0.114 C 
BRANCH  37  38
HETATM   38  C33 UNL     1      28.161  40.708  19.710  1.00  0.00     0.232 C 
HETATM   39  N6  UNL     1      29.021  39.599  19.417  1.00  0.00    -0.062 NA
HETATM   40  O6  UNL     1      28.265  41.687  18.952  1.00  0.00    -0.277 OA
ENDBRANCH  37  38
ENDBRANCH  25  37
BRANCH  11  41
HETATM   41  C14 UNL     1      18.696  38.782  17.233  1.00  0.00     0.038 C 
BRANCH  41  42
HETATM   42  C15 UNL     1      18.018  38.575  18.526  1.00  0.00    -0.020 C 
HETATM   43  C16 UNL     1      17.429  37.136  18.474  1.00  0.00     0.009 C 
HETATM   44  C17 UNL     1      16.835  39.460  18.806  1.00  0.00     0.009 C 
ENDBRANCH  41  42
ENDBRANCH  11  41
BRANCH  20  45
HETATM   45  C26 UNL     1      25.938  36.890  21.687  1.00  0.00     0.037 C 
BRANCH  45  46
HETATM   46  C27 UNL     1      27.316  36.660  21.262  1.00  0.00    -0.020 C 
HETATM   47  C28 UNL     1      28.438  37.238  22.039  1.00  0.00     0.009 C 
HETATM   48  C29 UNL     1      27.653  35.200  20.997  1.00  0.00     0.009 C 
ENDBRANCH  45  46
ENDBRANCH  20  45
BRANCH  19  49
HETATM   49  O4  UNL     1      23.692  35.389  21.331  1.00  0.00    -0.348 OA
ATOM     50  H4  UNL     1      24.168  34.583  21.489  1.00  0.00     0.219 HD
ENDBRANCH  19  49
BRANCH  16  51
HETATM   51  C20 UNL     1      22.112  35.382  17.215  1.00  0.00     0.038 C 
BRANCH  51  52
HETATM   52  C21 UNL     1      22.947  34.272  16.775  1.00  0.00    -0.020 C 
HETATM   53  C22 UNL     1      22.483  32.880  16.815  1.00  0.00     0.009 C 
HETATM   54  C23 UNL     1      23.320  34.562  15.304  1.00  0.00     0.009 C 
ENDBRANCH  51  52
ENDBRANCH  16  51
TORSDOF 13
ENDMDL
