MODEL 1
REMARK VINA RESULT: -5.925942488      0.000      0.000
REMARK  13 active torsions:
REMARK  status: ('A' for Active; 'I' for Inactive)
REMARK    1  A    between atoms: C2_2  and  C4_4 
REMARK    2  A    between atoms: C4_4  and  C5_5 
REMARK    3  A    between atoms: C7_10  and  C8_11 
REMARK    4  A    between atoms: C8_11  and  C9_12 
REMARK    5  A    between atoms: C11_19  and  C12_20 
REMARK    6  A    between atoms: C12_20  and  C13_21 
REMARK    7  A    between atoms: C17_28  and  C18_29 
REMARK    8  A    between atoms: C18_29  and  C19_30 
REMARK    9  A    between atoms: C23_37  and  C24_38 
REMARK   10  A    between atoms: C24_38  and  C25_39 
REMARK   11  A    between atoms: C29_46  and  C30_47 
REMARK   12  A    between atoms: C30_47  and  C31_48 
REMARK   13  A    between atoms: C34_53  and  O7_54 
ROOT
HETATM    1  C5  UNL     1      19.144  43.340  18.485  1.00  0.00     0.159 C 
HETATM    2  N1  UNL     1      20.017  44.336  19.063  1.00  0.00    -0.347 N 
ATOM      3  H1  UNL     1      19.563  45.091  19.577  1.00  0.00     0.163 HD
HETATM    4  C6  UNL     1      21.414  44.382  19.000  1.00  0.00     0.241 C 
HETATM    5  O1  UNL     1      21.971  45.507  18.865  1.00  0.00    -0.271 OA
HETATM    6  C7  UNL     1      22.345  43.227  19.076  1.00  0.00     0.185 C 
HETATM    7  N3  UNL     1      23.270  43.400  17.955  1.00  0.00    -0.346 N 
ATOM      8  H3  UNL     1      23.637  44.337  17.790  1.00  0.00     0.163 HD
HETATM    9  C10 UNL     1      23.692  42.382  17.090  1.00  0.00     0.241 C 
HETATM   10  O3  UNL     1      24.907  42.307  16.701  1.00  0.00    -0.271 OA
HETATM   11  C11 UNL     1      22.784  41.332  16.566  1.00  0.00     0.177 C 
HETATM   12  N4  UNL     1      23.394  40.006  16.587  1.00  0.00    -0.346 N 
ATOM     13  H4  UNL     1      24.412  39.945  16.566  1.00  0.00     0.163 HD
HETATM   14  C16 UNL     1      22.657  38.801  16.635  1.00  0.00     0.244 C 
HETATM   15  O4  UNL     1      23.047  37.881  15.844  1.00  0.00    -0.271 OA
HETATM   16  C17 UNL     1      21.474  38.553  17.538  1.00  0.00     0.200 C 
HETATM   17  N5  UNL     1      20.278  38.368  16.760  1.00  0.00    -0.343 N 
ATOM     18  H5  UNL     1      20.453  38.033  15.812  1.00  0.00     0.163 HD
HETATM   19  C22 UNL     1      18.929  38.559  17.047  1.00  0.00     0.241 C 
HETATM   20  O5  UNL     1      18.241  39.328  16.267  1.00  0.00    -0.271 OA
HETATM   21  C23 UNL     1      18.115  37.996  18.151  1.00  0.00     0.177 C 
HETATM   22  N6  UNL     1      18.051  38.777  19.346  1.00  0.00    -0.346 N 
ATOM     23  H6  UNL     1      18.250  38.242  20.191  1.00  0.00     0.163 HD
HETATM   24  C28 UNL     1      17.774  40.107  19.591  1.00  0.00     0.241 C 
HETATM   25  O6  UNL     1      18.635  40.754  20.309  1.00  0.00    -0.271 OA
HETATM   26  C29 UNL     1      16.632  40.940  19.166  1.00  0.00     0.175 C 
HETATM   27  N7  UNL     1      16.867  42.360  19.290  1.00  0.00    -0.359 N 
ATOM     28  H7  UNL     1      16.008  42.911  19.277  1.00  0.00     0.162 HD
HETATM   29  C34 UNL     1      17.996  43.126  19.422  1.00  0.00     0.135 C 
ENDROOT
BRANCH   1  30
HETATM   30  C4  UNL     1      18.686  43.792  17.133  1.00  0.00     0.037 C 
BRANCH  30  31
HETATM   31  C2  UNL     1      17.822  44.983  17.040  1.00  0.00    -0.020 C 
HETATM   32  C1  UNL     1      16.531  44.613  16.262  1.00  0.00     0.009 C 
HETATM   33  C3  UNL     1      18.367  46.175  16.304  1.00  0.00     0.009 C 
ENDBRANCH  30  31
ENDBRANCH   1  30
BRANCH  29  34
HETATM   34  O7  UNL     1      18.076  43.772  20.549  1.00  0.00    -0.348 OA
ATOM     35  H7  UNL     1      17.579  43.394  21.264  1.00  0.00     0.219 HD
ENDBRANCH  29  34
BRANCH   6  36
HETATM   36  C8  UNL     1      23.238  43.404  20.313  1.00  0.00     0.134 C 
BRANCH  36  37
HETATM   37  C9  UNL     1      23.502  42.167  21.031  1.00  0.00     0.233 C 
HETATM   38  N2  UNL     1      23.292  40.914  20.404  1.00  0.00    -0.062 NA
HETATM   39  O2  UNL     1      23.919  42.155  22.208  1.00  0.00    -0.277 OA
ENDBRANCH  36  37
ENDBRANCH   6  36
BRANCH  26  40
HETATM   40  C30 UNL     1      15.310  40.537  19.739  1.00  0.00     0.038 C 
BRANCH  40  41
HETATM   41  C31 UNL     1      15.008  40.740  21.145  1.00  0.00    -0.020 C 
HETATM   42  C32 UNL     1      13.609  40.954  21.582  1.00  0.00     0.009 C 
HETATM   43  C33 UNL     1      15.614  39.678  22.076  1.00  0.00     0.009 C 
ENDBRANCH  40  41
ENDBRANCH  26  40
BRANCH  11  44
HETATM   44  C12 UNL     1      22.206  41.685  15.235  1.00  0.00     0.038 C 
BRANCH  44  45
HETATM   45  C13 UNL     1      22.884  41.116  14.044  1.00  0.00    -0.020 C 
HETATM   46  C14 UNL     1      23.224  42.314  13.140  1.00  0.00     0.009 C 
HETATM   47  C15 UNL     1      22.016  40.224  13.183  1.00  0.00     0.009 C 
ENDBRANCH  44  45
ENDBRANCH  11  44
BRANCH  21  48
HETATM   48  C24 UNL     1      16.706  37.644  17.632  1.00  0.00     0.038 C 
BRANCH  48  49
HETATM   49  C25 UNL     1      16.684  36.233  17.106  1.00  0.00    -0.020 C 
HETATM   50  C26 UNL     1      17.018  35.193  18.135  1.00  0.00     0.009 C 
HETATM   51  C27 UNL     1      15.228  35.984  16.680  1.00  0.00     0.009 C 
ENDBRANCH  48  49
ENDBRANCH  21  48
BRANCH  16  52
HETATM   52  C18 UNL     1      21.725  37.633  18.648  1.00  0.00     0.010 C 
BRANCH  52  53
HETATM   53  C19 UNL     1      21.547  36.185  18.577  1.00  0.00    -0.089 C 
HETATM   54  C20 UNL     1      22.776  35.338  18.421  1.00  0.00     0.042 C 
HETATM   55  C21 UNL     1      20.520  35.585  19.514  1.00  0.00     0.042 C 
ENDBRANCH  52  53
ENDBRANCH  16  52
TORSDOF 13
ENDMDL
MODEL 2
REMARK VINA RESULT: -5.691427638      2.581      4.759
REMARK  13 active torsions:
REMARK  status: ('A' for Active; 'I' for Inactive)
REMARK    1  A    between atoms: C2_2  and  C4_4 
REMARK    2  A    between atoms: C4_4  and  C5_5 
REMARK    3  A    between atoms: C7_10  and  C8_11 
REMARK    4  A    between atoms: C8_11  and  C9_12 
REMARK    5  A    between atoms: C11_19  and  C12_20 
REMARK    6  A    between atoms: C12_20  and  C13_21 
REMARK    7  A    between atoms: C17_28  and  C18_29 
REMARK    8  A    between atoms: C18_29  and  C19_30 
REMARK    9  A    between atoms: C23_37  and  C24_38 
REMARK   10  A    between atoms: C24_38  and  C25_39 
REMARK   11  A    between atoms: C29_46  and  C30_47 
REMARK   12  A    between atoms: C30_47  and  C31_48 
REMARK   13  A    between atoms: C34_53  and  O7_54 
ROOT
HETATM    1  C5  UNL     1      19.388  40.216  17.679  1.00  0.00     0.159 C 
HETATM    2  N1  UNL     1      18.867  41.364  18.386  1.00  0.00    -0.347 N 
ATOM      3  H1  UNL     1      17.851  41.456  18.410  1.00  0.00     0.163 HD
HETATM    4  C6  UNL     1      19.595  42.363  19.041  1.00  0.00     0.241 C 
HETATM    5  O1  UNL     1      19.182  43.554  18.965  1.00  0.00    -0.271 OA
HETATM    6  C7  UNL     1      20.835  42.180  19.839  1.00  0.00     0.185 C 
HETATM    7  N3  UNL     1      21.767  43.195  19.347  1.00  0.00    -0.346 N 
ATOM      8  H3  UNL     1      21.399  44.133  19.190  1.00  0.00     0.163 HD
HETATM    9  C10 UNL     1      23.123  42.982  19.073  1.00  0.00     0.241 C 
HETATM   10  O3  UNL     1      24.006  43.850  19.392  1.00  0.00    -0.271 OA
HETATM   11  C11 UNL     1      23.637  41.760  18.406  1.00  0.00     0.177 C 
HETATM   12  N4  UNL     1      24.854  41.253  19.032  1.00  0.00    -0.346 N 
ATOM     13  H4  UNL     1      25.437  41.909  19.551  1.00  0.00     0.163 HD
HETATM   14  C16 UNL     1      25.273  39.905  18.960  1.00  0.00     0.244 C 
HETATM   15  O4  UNL     1      26.509  39.721  18.710  1.00  0.00    -0.271 OA
HETATM   16  C17 UNL     1      24.368  38.713  19.157  1.00  0.00     0.200 C 
HETATM   17  N5  UNL     1      24.267  37.955  17.938  1.00  0.00    -0.343 N 
ATOM     18  H5  UNL     1      25.069  38.066  17.318  1.00  0.00     0.163 HD
HETATM   19  C22 UNL     1      23.287  37.099  17.441  1.00  0.00     0.241 C 
HETATM   20  O5  UNL     1      22.796  37.347  16.270  1.00  0.00    -0.271 OA
HETATM   21  C23 UNL     1      22.689  35.893  18.063  1.00  0.00     0.177 C 
HETATM   22  N6  UNL     1      21.513  36.108  18.847  1.00  0.00    -0.346 N 
ATOM     23  H6  UNL     1      21.555  35.673  19.768  1.00  0.00     0.163 HD
HETATM   24  C28 UNL     1      20.332  36.782  18.612  1.00  0.00     0.241 C 
HETATM   25  O6  UNL     1      19.972  37.647  19.504  1.00  0.00    -0.271 OA
HETATM   26  C29 UNL     1      19.381  36.681  17.487  1.00  0.00     0.175 C 
HETATM   27  N7  UNL     1      18.466  37.796  17.395  1.00  0.00    -0.359 N 
ATOM     28  H7  UNL     1      17.647  37.595  16.821  1.00  0.00     0.162 HD
HETATM   29  C34 UNL     1      18.462  39.063  17.914  1.00  0.00     0.135 C 
ENDROOT
BRANCH   1  30
HETATM   30  C4  UNL     1      19.525  40.537  16.224  1.00  0.00     0.037 C 
BRANCH  30  31
HETATM   31  C2  UNL     1      20.852  40.917  15.705  1.00  0.00    -0.020 C 
HETATM   32  C1  UNL     1      20.908  42.460  15.538  1.00  0.00     0.009 C 
HETATM   33  C3  UNL     1      21.243  40.387  14.353  1.00  0.00     0.009 C 
ENDBRANCH  30  31
ENDBRANCH   1  30
BRANCH  29  34
HETATM   34  O7  UNL     1      17.489  39.299  18.745  1.00  0.00    -0.348 OA
ATOM     35  H7  UNL     1      17.344  38.622  19.396  1.00  0.00     0.219 HD
ENDBRANCH  29  34
BRANCH   6  36
HETATM   36  C8  UNL     1      20.551  42.618  21.283  1.00  0.00     0.134 C 
BRANCH  36  37
HETATM   37  C9  UNL     1      21.749  42.856  22.074  1.00  0.00     0.233 C 
HETATM   38  N2  UNL     1      22.049  44.158  22.546  1.00  0.00    -0.062 NA
HETATM   39  O2  UNL     1      22.548  41.942  22.366  1.00  0.00    -0.277 OA
ENDBRANCH  36  37
ENDBRANCH   6  36
BRANCH  26  40
HETATM   40  C30 UNL     1      18.678  35.366  17.373  1.00  0.00     0.038 C 
BRANCH  40  41
HETATM   41  C31 UNL     1      17.295  35.288  16.934  1.00  0.00    -0.020 C 
HETATM   42  C32 UNL     1      16.924  34.415  15.796  1.00  0.00     0.009 C 
HETATM   43  C33 UNL     1      16.293  35.008  18.064  1.00  0.00     0.009 C 
ENDBRANCH  40  41
ENDBRANCH  26  40
BRANCH  11  44
HETATM   44  C12 UNL     1      23.768  41.926  16.928  1.00  0.00     0.038 C 
BRANCH  44  45
HETATM   45  C13 UNL     1      25.011  42.575  16.440  1.00  0.00    -0.020 C 
HETATM   46  C14 UNL     1      24.556  43.826  15.665  1.00  0.00     0.009 C 
HETATM   47  C15 UNL     1      25.798  41.768  15.430  1.00  0.00     0.009 C 
ENDBRANCH  44  45
ENDBRANCH  11  44
BRANCH  21  48
HETATM   48  C24 UNL     1      22.459  34.811  16.987  1.00  0.00     0.038 C 
BRANCH  48  49
HETATM   49  C25 UNL     1      23.534  33.760  17.072  1.00  0.00    -0.020 C 
HETATM   50  C26 UNL     1      23.009  32.354  17.108  1.00  0.00     0.009 C 
HETATM   51  C27 UNL     1      24.336  33.899  15.767  1.00  0.00     0.009 C 
ENDBRANCH  48  49
ENDBRANCH  21  48
BRANCH  16  52
HETATM   52  C18 UNL     1      24.567  37.984  20.410  1.00  0.00     0.010 C 
BRANCH  52  53
HETATM   53  C19 UNL     1      25.566  36.936  20.606  1.00  0.00    -0.089 C 
HETATM   54  C20 UNL     1      26.888  37.334  21.196  1.00  0.00     0.042 C 
HETATM   55  C21 UNL     1      25.056  35.607  21.120  1.00  0.00     0.042 C 
ENDBRANCH  52  53
ENDBRANCH  16  52
TORSDOF 13
ENDMDL
MODEL 3
REMARK VINA RESULT: -5.685893656      1.626      2.037
REMARK  13 active torsions:
REMARK  status: ('A' for Active; 'I' for Inactive)
REMARK    1  A    between atoms: C2_2  and  C4_4 
REMARK    2  A    between atoms: C4_4  and  C5_5 
REMARK    3  A    between atoms: C7_10  and  C8_11 
REMARK    4  A    between atoms: C8_11  and  C9_12 
REMARK    5  A    between atoms: C11_19  and  C12_20 
REMARK    6  A    between atoms: C12_20  and  C13_21 
REMARK    7  A    between atoms: C17_28  and  C18_29 
REMARK    8  A    between atoms: C18_29  and  C19_30 
REMARK    9  A    between atoms: C23_37  and  C24_38 
REMARK   10  A    between atoms: C24_38  and  C25_39 
REMARK   11  A    between atoms: C29_46  and  C30_47 
REMARK   12  A    between atoms: C30_47  and  C31_48 
REMARK   13  A    between atoms: C34_53  and  O7_54 
ROOT
HETATM    1  C5  UNL     1      20.965  43.475  18.536  1.00  0.00     0.159 C 
HETATM    2  N1  UNL     1      21.910  44.326  19.223  1.00  0.00    -0.347 N 
ATOM      3  H1  UNL     1      21.525  45.155  19.675  1.00  0.00     0.163 HD
HETATM    4  C6  UNL     1      23.293  44.142  19.338  1.00  0.00     0.241 C 
HETATM    5  O1  UNL     1      24.039  45.159  19.277  1.00  0.00    -0.271 OA
HETATM    6  C7  UNL     1      24.004  42.853  19.532  1.00  0.00     0.185 C 
HETATM    7  N3  UNL     1      25.079  42.850  18.538  1.00  0.00    -0.346 N 
ATOM      8  H3  UNL     1      25.613  43.711  18.423  1.00  0.00     0.163 HD
HETATM    9  C10 UNL     1      25.433  41.760  17.734  1.00  0.00     0.241 C 
HETATM   10  O3  UNL     1      26.659  41.480  17.503  1.00  0.00    -0.271 OA
HETATM   11  C11 UNL     1      24.438  40.862  17.097  1.00  0.00     0.177 C 
HETATM   12  N4  UNL     1      24.815  39.455  17.194  1.00  0.00    -0.346 N 
ATOM     13  H4  UNL     1      25.803  39.228  17.303  1.00  0.00     0.163 HD
HETATM   14  C16 UNL     1      23.890  38.388  17.145  1.00  0.00     0.244 C 
HETATM   15  O4  UNL     1      24.220  37.401  16.409  1.00  0.00    -0.271 OA
HETATM   16  C17 UNL     1      22.577  38.354  17.890  1.00  0.00     0.200 C 
HETATM   17  N5  UNL     1      21.476  38.351  16.965  1.00  0.00    -0.343 N 
ATOM     18  H5  UNL     1      21.711  37.973  16.047  1.00  0.00     0.163 HD
HETATM   19  C22 UNL     1      20.151  38.765  17.077  1.00  0.00     0.241 C 
HETATM   20  O5  UNL     1      19.703  39.620  16.216  1.00  0.00    -0.271 OA
HETATM   21  C23 UNL     1      19.122  38.365  18.067  1.00  0.00     0.177 C 
HETATM   22  N6  UNL     1      19.037  39.169  19.246  1.00  0.00    -0.346 N 
ATOM     23  H6  UNL     1      19.038  38.626  20.108  1.00  0.00     0.163 HD
HETATM   24  C28 UNL     1      18.954  40.531  19.455  1.00  0.00     0.241 C 
HETATM   25  O6  UNL     1      19.812  41.044  20.277  1.00  0.00    -0.271 OA
HETATM   26  C29 UNL     1      18.028  41.531  18.888  1.00  0.00     0.175 C 
HETATM   27  N7  UNL     1      18.475  42.896  19.043  1.00  0.00    -0.359 N 
ATOM     28  H7  UNL     1      17.727  43.579  18.921  1.00  0.00     0.162 HD
HETATM   29  C34 UNL     1      19.688  43.469  19.318  1.00  0.00     0.135 C 
ENDROOT
BRANCH   1  30
HETATM   30  C4  UNL     1      20.763  43.968  17.138  1.00  0.00     0.037 C 
BRANCH  30  31
HETATM   31  C2  UNL     1      20.176  45.306  16.937  1.00  0.00    -0.020 C 
HETATM   32  C1  UNL     1      18.960  45.187  15.978  1.00  0.00     0.009 C 
HETATM   33  C3  UNL     1      21.046  46.354  16.301  1.00  0.00     0.009 C 
ENDBRANCH  30  31
ENDBRANCH   1  30
BRANCH  29  34
HETATM   34  O7  UNL     1      19.731  44.116  20.447  1.00  0.00    -0.348 OA
ATOM     35  H7  UNL     1      19.353  44.987  20.426  1.00  0.00     0.219 HD
ENDBRANCH  29  34
BRANCH   6  36
HETATM   36  C8  UNL     1      24.750  42.906  20.873  1.00  0.00     0.134 C 
BRANCH  36  37
HETATM   37  C9  UNL     1      24.089  42.179  21.945  1.00  0.00     0.233 C 
HETATM   38  N2  UNL     1      24.796  41.846  23.127  1.00  0.00    -0.062 NA
HETATM   39  O2  UNL     1      22.894  41.825  21.874  1.00  0.00    -0.277 OA
ENDBRANCH  36  37
ENDBRANCH   6  36
BRANCH  26  40
HETATM   40  C30 UNL     1      16.596  41.360  19.287  1.00  0.00     0.038 C 
BRANCH  40  41
HETATM   41  C31 UNL     1      15.524  41.492  18.315  1.00  0.00    -0.020 C 
HETATM   42  C32 UNL     1      14.623  42.667  18.356  1.00  0.00     0.009 C 
HETATM   43  C33 UNL     1      15.977  41.320  16.856  1.00  0.00     0.009 C 
ENDBRANCH  40  41
ENDBRANCH  26  40
BRANCH  11  44
HETATM   44  C12 UNL     1      24.100  41.278  15.703  1.00  0.00     0.038 C 
BRANCH  44  45
HETATM   45  C13 UNL     1      22.657  41.427  15.386  1.00  0.00    -0.020 C 
HETATM   46  C14 UNL     1      22.353  40.373  14.306  1.00  0.00     0.009 C 
HETATM   47  C15 UNL     1      22.278  42.746  14.748  1.00  0.00     0.009 C 
ENDBRANCH  44  45
ENDBRANCH  11  44
BRANCH  21  48
HETATM   48  C24 UNL     1      17.751  38.237  17.372  1.00  0.00     0.038 C 
BRANCH  48  49
HETATM   49  C25 UNL     1      17.065  36.970  17.808  1.00  0.00    -0.020 C 
HETATM   50  C26 UNL     1      16.140  36.391  16.778  1.00  0.00     0.009 C 
HETATM   51  C27 UNL     1      18.197  35.948  18.011  1.00  0.00     0.009 C 
ENDBRANCH  48  49
ENDBRANCH  21  48
BRANCH  16  52
HETATM   52  C18 UNL     1      22.532  37.427  19.022  1.00  0.00     0.010 C 
BRANCH  52  53
HETATM   53  C19 UNL     1      21.923  36.100  18.978  1.00  0.00    -0.089 C 
HETATM   54  C20 UNL     1      22.606  35.046  18.158  1.00  0.00     0.042 C 
HETATM   55  C21 UNL     1      21.359  35.575  20.281  1.00  0.00     0.042 C 
ENDBRANCH  52  53
ENDBRANCH  16  52
TORSDOF 13
ENDMDL
MODEL 4
REMARK VINA RESULT: -5.662195587      2.137      4.200
REMARK  13 active torsions:
REMARK  status: ('A' for Active; 'I' for Inactive)
REMARK    1  A    between atoms: C2_2  and  C4_4 
REMARK    2  A    between atoms: C4_4  and  C5_5 
REMARK    3  A    between atoms: C7_10  and  C8_11 
REMARK    4  A    between atoms: C8_11  and  C9_12 
REMARK    5  A    between atoms: C11_19  and  C12_20 
REMARK    6  A    between atoms: C12_20  and  C13_21 
REMARK    7  A    between atoms: C17_28  and  C18_29 
REMARK    8  A    between atoms: C18_29  and  C19_30 
REMARK    9  A    between atoms: C23_37  and  C24_38 
REMARK   10  A    between atoms: C24_38  and  C25_39 
REMARK   11  A    between atoms: C29_46  and  C30_47 
REMARK   12  A    between atoms: C30_47  and  C31_48 
REMARK   13  A    between atoms: C34_53  and  O7_54 
ROOT
HETATM    1  C5  UNL     1      19.066  41.107  18.550  1.00  0.00     0.159 C 
HETATM    2  N1  UNL     1      18.902  42.200  19.481  1.00  0.00    -0.347 N 
ATOM      3  H1  UNL     1      18.065  42.174  20.064  1.00  0.00     0.163 HD
HETATM    4  C6  UNL     1      19.760  43.288  19.675  1.00  0.00     0.241 C 
HETATM    5  O1  UNL     1      19.249  44.421  19.897  1.00  0.00    -0.271 OA
HETATM    6  C7  UNL     1      21.245  43.263  19.652  1.00  0.00     0.185 C 
HETATM    7  N3  UNL     1      21.637  44.370  18.778  1.00  0.00    -0.346 N 
ATOM      8  H3  UNL     1      21.147  45.256  18.895  1.00  0.00     0.163 HD
HETATM    9  C10 UNL     1      22.632  44.310  17.795  1.00  0.00     0.241 C 
HETATM   10  O3  UNL     1      23.446  45.280  17.618  1.00  0.00    -0.271 OA
HETATM   11  C11 UNL     1      22.819  43.143  16.897  1.00  0.00     0.177 C 
HETATM   12  N4  UNL     1      24.225  42.791  16.726  1.00  0.00    -0.346 N 
ATOM     13  H4  UNL     1      24.924  43.519  16.871  1.00  0.00     0.163 HD
HETATM   14  C16 UNL     1      24.676  41.499  16.372  1.00  0.00     0.244 C 
HETATM   15  O4  UNL     1      25.580  41.454  15.475  1.00  0.00    -0.271 OA
HETATM   16  C17 UNL     1      24.162  40.215  16.975  1.00  0.00     0.200 C 
HETATM   17  N5  UNL     1      23.487  39.427  15.978  1.00  0.00    -0.343 N 
ATOM     18  H5  UNL     1      23.797  39.619  15.025  1.00  0.00     0.163 HD
HETATM   19  C22 UNL     1      22.493  38.455  16.060  1.00  0.00     0.241 C 
HETATM   20  O5  UNL     1      21.415  38.624  15.364  1.00  0.00    -0.271 OA
HETATM   21  C23 UNL     1      22.468  37.200  16.849  1.00  0.00     0.177 C 
HETATM   22  N6  UNL     1      21.904  37.293  18.159  1.00  0.00    -0.346 N 
ATOM     23  H6  UNL     1      22.493  36.883  18.883  1.00  0.00     0.163 HD
HETATM   24  C28 UNL     1      20.726  37.822  18.644  1.00  0.00     0.241 C 
HETATM   25  O6  UNL     1      20.828  38.656  19.628  1.00  0.00    -0.271 OA
HETATM   26  C29 UNL     1      19.329  37.592  18.223  1.00  0.00     0.175 C 
HETATM   27  N7  UNL     1      18.403  38.591  18.703  1.00  0.00    -0.359 N 
ATOM     28  H7  UNL     1      17.430  38.287  18.664  1.00  0.00     0.162 HD
HETATM   29  C34 UNL     1      18.551  39.860  19.199  1.00  0.00     0.135 C 
ENDROOT
BRANCH   1  30
HETATM   30  C4  UNL     1      18.343  41.415  17.276  1.00  0.00     0.037 C 
BRANCH  30  31
HETATM   31  C2  UNL     1      17.085  42.181  17.343  1.00  0.00    -0.020 C 
HETATM   32  C1  UNL     1      15.892  41.218  17.096  1.00  0.00     0.009 C 
HETATM   33  C3  UNL     1      16.889  43.277  16.334  1.00  0.00     0.009 C 
ENDBRANCH  30  31
ENDBRANCH   1  30
BRANCH  29  34
HETATM   34  O7  UNL     1      18.179  39.997  20.438  1.00  0.00    -0.348 OA
ATOM     35  H7  UNL     1      18.104  39.186  20.928  1.00  0.00     0.219 HD
ENDBRANCH  29  34
BRANCH   6  36
HETATM   36  C8  UNL     1      21.759  43.692  21.034  1.00  0.00     0.134 C 
BRANCH  36  37
HETATM   37  C9  UNL     1      21.889  42.597  21.982  1.00  0.00     0.233 C 
HETATM   38  N2  UNL     1      20.871  42.351  22.937  1.00  0.00    -0.062 NA
HETATM   39  O2  UNL     1      22.882  41.839  21.995  1.00  0.00    -0.277 OA
ENDBRANCH  36  37
ENDBRANCH   6  36
BRANCH  26  40
HETATM   40  C30 UNL     1      18.824  36.202  18.451  1.00  0.00     0.038 C 
BRANCH  40  41
HETATM   41  C31 UNL     1      17.984  35.538  17.469  1.00  0.00    -0.020 C 
HETATM   42  C32 UNL     1      18.430  34.271  16.843  1.00  0.00     0.009 C 
HETATM   43  C33 UNL     1      16.532  35.329  17.926  1.00  0.00     0.009 C 
ENDBRANCH  40  41
ENDBRANCH  26  40
BRANCH  11  44
HETATM   44  C12 UNL     1      22.096  43.296  15.600  1.00  0.00     0.038 C 
BRANCH  44  45
HETATM   45  C13 UNL     1      22.855  43.915  14.484  1.00  0.00    -0.020 C 
HETATM   46  C14 UNL     1      21.989  45.086  13.985  1.00  0.00     0.009 C 
HETATM   47  C15 UNL     1      23.037  43.031  13.270  1.00  0.00     0.009 C 
ENDBRANCH  44  45
ENDBRANCH  11  44
BRANCH  21  48
HETATM   48  C24 UNL     1      21.801  36.080  16.025  1.00  0.00     0.038 C 
BRANCH  48  49
HETATM   49  C25 UNL     1      22.682  34.860  15.999  1.00  0.00    -0.020 C 
HETATM   50  C26 UNL     1      21.991  33.617  15.518  1.00  0.00     0.009 C 
HETATM   51  C27 UNL     1      23.781  35.180  14.972  1.00  0.00     0.009 C 
ENDBRANCH  48  49
ENDBRANCH  21  48
BRANCH  16  52
HETATM   52  C18 UNL     1      25.095  39.537  17.876  1.00  0.00     0.010 C 
BRANCH  52  53
HETATM   53  C19 UNL     1      24.924  39.444  19.324  1.00  0.00    -0.089 C 
HETATM   54  C20 UNL     1      24.976  38.079  19.946  1.00  0.00     0.042 C 
HETATM   55  C21 UNL     1      25.611  40.508  20.152  1.00  0.00     0.042 C 
ENDBRANCH  52  53
ENDBRANCH  16  52
TORSDOF 13
ENDMDL
MODEL 5
REMARK VINA RESULT: -5.535454876      2.704      4.770
REMARK  13 active torsions:
REMARK  status: ('A' for Active; 'I' for Inactive)
REMARK    1  A    between atoms: C2_2  and  C4_4 
REMARK    2  A    between atoms: C4_4  and  C5_5 
REMARK    3  A    between atoms: C7_10  and  C8_11 
REMARK    4  A    between atoms: C8_11  and  C9_12 
REMARK    5  A    between atoms: C11_19  and  C12_20 
REMARK    6  A    between atoms: C12_20  and  C13_21 
REMARK    7  A    between atoms: C17_28  and  C18_29 
REMARK    8  A    between atoms: C18_29  and  C19_30 
REMARK    9  A    between atoms: C23_37  and  C24_38 
REMARK   10  A    between atoms: C24_38  and  C25_39 
REMARK   11  A    between atoms: C29_46  and  C30_47 
REMARK   12  A    between atoms: C30_47  and  C31_48 
REMARK   13  A    between atoms: C34_53  and  O7_54 
ROOT
HETATM    1  C5  UNL     1      20.311  41.371  17.558  1.00  0.00     0.159 C 
HETATM    2  N1  UNL     1      19.860  42.532  18.290  1.00  0.00    -0.347 N 
ATOM      3  H1  UNL     1      18.857  42.718  18.267  1.00  0.00     0.163 HD
HETATM    4  C6  UNL     1      20.640  43.429  19.028  1.00  0.00     0.241 C 
HETATM    5  O1  UNL     1      20.343  44.655  18.987  1.00  0.00    -0.271 OA
HETATM    6  C7  UNL     1      21.812  43.096  19.878  1.00  0.00     0.185 C 
HETATM    7  N3  UNL     1      22.859  44.039  19.482  1.00  0.00    -0.346 N 
ATOM      8  H3  UNL     1      22.588  45.013  19.352  1.00  0.00     0.163 HD
HETATM    9  C10 UNL     1      24.203  43.710  19.268  1.00  0.00     0.241 C 
HETATM   10  O3  UNL     1      25.143  44.477  19.671  1.00  0.00    -0.271 OA
HETATM   11  C11 UNL     1      24.638  42.474  18.571  1.00  0.00     0.177 C 
HETATM   12  N4  UNL     1      25.767  41.828  19.233  1.00  0.00    -0.346 N 
ATOM     13  H4  UNL     1      26.379  42.404  19.811  1.00  0.00     0.163 HD
HETATM   14  C16 UNL     1      26.063  40.451  19.119  1.00  0.00     0.244 C 
HETATM   15  O4  UNL     1      27.288  40.162  18.923  1.00  0.00    -0.271 OA
HETATM   16  C17 UNL     1      25.043  39.342  19.213  1.00  0.00     0.200 C 
HETATM   17  N5  UNL     1      24.939  38.649  17.957  1.00  0.00    -0.343 N 
ATOM     18  H5  UNL     1      25.780  38.710  17.383  1.00  0.00     0.163 HD
HETATM   19  C22 UNL     1      23.913  37.912  17.371  1.00  0.00     0.241 C 
HETATM   20  O5  UNL     1      23.513  38.254  16.189  1.00  0.00    -0.271 OA
HETATM   21  C23 UNL     1      23.173  36.743  17.903  1.00  0.00     0.177 C 
HETATM   22  N6  UNL     1      21.981  37.034  18.636  1.00  0.00    -0.346 N 
ATOM     23  H6  UNL     1      21.933  36.559  19.537  1.00  0.00     0.163 HD
HETATM   24  C28 UNL     1      20.882  37.826  18.374  1.00  0.00     0.241 C 
HETATM   25  O6  UNL     1      20.555  38.683  19.287  1.00  0.00    -0.271 OA
HETATM   26  C29 UNL     1      19.988  37.864  17.199  1.00  0.00     0.175 C 
HETATM   27  N7  UNL     1      19.186  39.062  17.113  1.00  0.00    -0.359 N 
ATOM     28  H7  UNL     1      18.385  38.964  16.489  1.00  0.00     0.162 HD
HETATM   29  C34 UNL     1      19.271  40.302  17.690  1.00  0.00     0.135 C 
ENDROOT
BRANCH   1  30
HETATM   30  C4  UNL     1      20.557  41.739  16.128  1.00  0.00     0.037 C 
BRANCH  30  31
HETATM   31  C2  UNL     1      21.668  41.086  15.410  1.00  0.00    -0.020 C 
HETATM   32  C1  UNL     1      22.466  42.163  14.626  1.00  0.00     0.009 C 
HETATM   33  C3  UNL     1      21.310  40.063  14.368  1.00  0.00     0.009 C 
ENDBRANCH  30  31
ENDBRANCH   1  30
BRANCH  29  34
HETATM   34  O7  UNL     1      18.280  40.593  18.482  1.00  0.00    -0.348 OA
ATOM     35  H7  UNL     1      17.738  39.855  18.736  1.00  0.00     0.219 HD
ENDBRANCH  29  34
BRANCH   6  36
HETATM   36  C8  UNL     1      21.491  43.497  21.325  1.00  0.00     0.134 C 
BRANCH  36  37
HETATM   37  C9  UNL     1      21.996  42.566  22.322  1.00  0.00     0.233 C 
HETATM   38  N2  UNL     1      23.362  42.188  22.323  1.00  0.00    -0.062 NA
HETATM   39  O2  UNL     1      21.264  42.070  23.204  1.00  0.00    -0.277 OA
ENDBRANCH  36  37
ENDBRANCH   6  36
BRANCH  26  40
HETATM   40  C30 UNL     1      19.174  36.626  16.987  1.00  0.00     0.038 C 
BRANCH  40  41
HETATM   41  C31 UNL     1      18.584  35.915  18.108  1.00  0.00    -0.020 C 
HETATM   42  C32 UNL     1      17.176  36.169  18.492  1.00  0.00     0.009 C 
HETATM   43  C33 UNL     1      18.768  34.390  18.049  1.00  0.00     0.009 C 
ENDBRANCH  40  41
ENDBRANCH  26  40
BRANCH  11  44
HETATM   44  C12 UNL     1      24.865  42.689  17.111  1.00  0.00     0.038 C 
BRANCH  44  45
HETATM   45  C13 UNL     1      26.245  43.048  16.698  1.00  0.00    -0.020 C 
HETATM   46  C14 UNL     1      26.149  44.460  16.091  1.00  0.00     0.009 C 
HETATM   47  C15 UNL     1      26.821  42.195  15.589  1.00  0.00     0.009 C 
ENDBRANCH  44  45
ENDBRANCH  11  44
BRANCH  21  48
HETATM   48  C24 UNL     1      22.904  35.734  16.768  1.00  0.00     0.038 C 
BRANCH  48  49
HETATM   49  C25 UNL     1      23.531  34.405  17.096  1.00  0.00    -0.020 C 
HETATM   50  C26 UNL     1      22.537  33.311  17.363  1.00  0.00     0.009 C 
HETATM   51  C27 UNL     1      24.304  34.001  15.830  1.00  0.00     0.009 C 
ENDBRANCH  48  49
ENDBRANCH  21  48
BRANCH  16  52
HETATM   52  C18 UNL     1      25.105  38.546  20.439  1.00  0.00     0.010 C 
BRANCH  52  53
HETATM   53  C19 UNL     1      25.880  37.317  20.587  1.00  0.00    -0.089 C 
HETATM   54  C20 UNL     1      27.265  37.429  21.155  1.00  0.00     0.042 C 
HETATM   55  C21 UNL     1      25.126  36.100  21.080  1.00  0.00     0.042 C 
ENDBRANCH  52  53
ENDBRANCH  16  52
TORSDOF 13
ENDMDL
