MODEL 1
REMARK VINA RESULT: -6.303701125      0.000      0.000
REMARK  12 active torsions:
REMARK  status: ('A' for Active; 'I' for Inactive)
REMARK    1  A    between atoms: C2_2  and  C3_3 
REMARK    2  A    between atoms: C3_3  and  C4_4 
REMARK    3  A    between atoms: C5_5  and  C6_6 
REMARK    4  A    between atoms: C9_13  and  C10_14 
REMARK    5  A    between atoms: C10_14  and  C11_15 
REMARK    6  A    between atoms: C11_15  and  C12_16 
REMARK    7  A    between atoms: C15_22  and  C16_23 
REMARK    8  A    between atoms: C20_30  and  C21_31 
REMARK    9  A    between atoms: C21_31  and  C22_32 
REMARK   10  A    between atoms: C25_35  and  C26_36 
REMARK   11  A    between atoms: C31_45  and  C32_46 
REMARK   12  A    between atoms: C32_46  and  C33_47 
ROOT
HETATM    1  C6  UNL     1      19.284  37.350  18.231  1.00  0.00     0.116 C 
HETATM    2  C7  UNL     1      17.880  37.816  18.336  1.00  0.00     0.133 C 
HETATM    3  C8  UNL     1      17.613  39.069  17.579  1.00  0.00     0.235 C 
HETATM    4  O1  UNL     1      17.064  38.951  16.454  1.00  0.00    -0.272 OA
HETATM    5  N1  UNL     1      17.985  40.311  18.157  1.00  0.00    -0.273 N 
ATOM      6  H1  UNL     1      17.662  41.173  17.719  1.00  0.00     0.185 HD
HETATM    7  N2  UNL     1      18.772  40.393  19.294  1.00  0.00    -0.124 NA
HETATM    8  C9  UNL     1      18.348  41.409  20.241  1.00  0.00     0.191 C 
HETATM    9  C14 UNL     1      18.029  42.687  19.557  1.00  0.00     0.239 C 
HETATM   10  O2  UNL     1      16.815  42.900  19.242  1.00  0.00    -0.272 OA
HETATM   11  N3  UNL     1      19.002  43.674  19.240  1.00  0.00    -0.346 N 
ATOM     12  H3  UNL     1      18.777  44.646  19.449  1.00  0.00     0.163 HD
HETATM   13  C15 UNL     1      20.292  43.395  18.639  1.00  0.00     0.180 C 
HETATM   14  C19 UNL     1      21.324  43.220  19.690  1.00  0.00     0.241 C 
HETATM   15  O3  UNL     1      21.096  43.723  20.848  1.00  0.00    -0.271 OA
HETATM   16  N4  UNL     1      22.546  42.541  19.511  1.00  0.00    -0.346 N 
ATOM     17  H4  UNL     1      23.240  42.624  20.254  1.00  0.00     0.163 HD
HETATM   18  C20 UNL     1      22.900  41.732  18.359  1.00  0.00     0.181 C 
HETATM   19  C29 UNL     1      22.889  40.291  18.736  1.00  0.00     0.243 C 
HETATM   20  O6  UNL     1      23.168  40.054  19.962  1.00  0.00    -0.271 OA
HETATM   21  N5  UNL     1      22.615  39.198  17.914  1.00  0.00    -0.341 N 
HETATM   22  C30 UNL     1      23.362  37.962  18.213  1.00  0.00     0.153 C 
HETATM   23  C31 UNL     1      21.675  39.171  16.805  1.00  0.00     0.178 C 
HETATM   24  C35 UNL     1      21.163  37.796  16.574  1.00  0.00     0.241 C 
HETATM   25  O7  UNL     1      22.008  37.021  15.995  1.00  0.00    -0.271 OA
HETATM   26  N6  UNL     1      19.871  37.311  16.931  1.00  0.00    -0.351 N 
ATOM     27  H6  UNL     1      19.312  36.895  16.185  1.00  0.00     0.163 HD
ENDROOT
BRANCH  18  28
HETATM   28  C21 UNL     1      24.364  41.979  17.966  1.00  0.00     0.073 C 
BRANCH  28  29
HETATM   29  C22 UNL     1      24.565  42.199  16.541  1.00  0.00    -0.056 A 
HETATM   30  C23 UNL     1      25.661  41.696  15.850  1.00  0.00     0.008 A 
HETATM   31  C24 UNL     1      25.838  41.910  14.495  1.00  0.00     0.019 A 
HETATM   32  C25 UNL     1      24.901  42.652  13.767  1.00  0.00     0.040 A 
HETATM   33  C27 UNL     1      23.804  43.158  14.451  1.00  0.00     0.019 A 
HETATM   34  C28 UNL     1      23.660  42.929  15.783  1.00  0.00     0.008 A 
BRANCH  32  35
HETATM   35  C26 UNL     1      25.065  42.891  12.344  1.00  0.00     0.209 C 
HETATM   36  O4  UNL     1      25.304  44.049  11.937  1.00  0.00    -0.644 OA
HETATM   37  O5  UNL     1      24.955  41.828  11.471  1.00  0.00    -0.644 OA
ENDBRANCH  32  35
ENDBRANCH  28  29
ENDBRANCH  18  28
BRANCH  13  38
HETATM   38  C16 UNL     1      20.619  44.538  17.687  1.00  0.00     0.009 C 
HETATM   39  C17 UNL     1      19.917  45.803  18.116  1.00  0.00     0.012 C 
HETATM   40  C18 UNL     1      20.194  44.095  16.307  1.00  0.00     0.012 C 
ENDBRANCH  13  38
BRANCH  23  41
HETATM   41  C32 UNL     1      22.317  39.693  15.533  1.00  0.00     0.035 C 
BRANCH  41  42
HETATM   42  C33 UNL     1      21.286  40.207  14.554  1.00  0.00    -0.002 C 
HETATM   43  C34 UNL     1      21.885  40.133  13.165  1.00  0.00     0.005 C 
ENDBRANCH  41  42
ENDBRANCH  23  41
BRANCH   8  44
HETATM   44  C10 UNL     1      17.214  40.867  21.074  1.00  0.00     0.033 C 
BRANCH  44  45
HETATM   45  C11 UNL     1      17.471  41.143  22.524  1.00  0.00     0.002 C 
BRANCH  45  46
HETATM   46  C12 UNL     1      16.631  40.251  23.418  1.00  0.00    -0.004 C 
HETATM   47  C13 UNL     1      15.528  39.663  22.537  1.00  0.00     0.005 C 
ENDBRANCH  45  46
ENDBRANCH  44  45
ENDBRANCH   8  44
BRANCH   1  48
HETATM   48  C5  UNL     1      19.419  36.045  18.923  1.00  0.00    -0.005 C 
HETATM   49  C4  UNL     1      19.044  34.875  18.464  1.00  0.00    -0.025 C 
BRANCH  49  50
HETATM   50  C3  UNL     1      18.412  34.507  17.201  1.00  0.00     0.053 C 
BRANCH  50  51
HETATM   51  C2  UNL     1      16.920  34.411  17.461  1.00  0.00    -0.033 C 
HETATM   52  C1  UNL     1      16.085  34.994  16.628  1.00  0.00     0.007 C 
ENDBRANCH  50  51
ENDBRANCH  49  50
ENDBRANCH   1  48
TORSDOF 12
ENDMDL
MODEL 2
REMARK VINA RESULT: -5.920641279      2.871      6.972
REMARK  12 active torsions:
REMARK  status: ('A' for Active; 'I' for Inactive)
REMARK    1  A    between atoms: C2_2  and  C3_3 
REMARK    2  A    between atoms: C3_3  and  C4_4 
REMARK    3  A    between atoms: C5_5  and  C6_6 
REMARK    4  A    between atoms: C9_13  and  C10_14 
REMARK    5  A    between atoms: C10_14  and  C11_15 
REMARK    6  A    between atoms: C11_15  and  C12_16 
REMARK    7  A    between atoms: C15_22  and  C16_23 
REMARK    8  A    between atoms: C20_30  and  C21_31 
REMARK    9  A    between atoms: C21_31  and  C22_32 
REMARK   10  A    between atoms: C25_35  and  C26_36 
REMARK   11  A    between atoms: C31_45  and  C32_46 
REMARK   12  A    between atoms: C32_46  and  C33_47 
ROOT
HETATM    1  C6  UNL     1      17.151  41.397  17.750  1.00  0.00     0.116 C 
HETATM    2  C7  UNL     1      16.192  40.450  18.371  1.00  0.00     0.133 C 
HETATM    3  C8  UNL     1      16.812  39.564  19.392  1.00  0.00     0.235 C 
HETATM    4  O1  UNL     1      16.654  39.883  20.598  1.00  0.00    -0.272 OA
HETATM    5  N1  UNL     1      17.538  38.423  18.959  1.00  0.00    -0.273 N 
ATOM      6  H1  UNL     1      17.824  37.731  19.651  1.00  0.00     0.185 HD
HETATM    7  N2  UNL     1      17.870  38.215  17.631  1.00  0.00    -0.124 NA
HETATM    8  C9  UNL     1      17.720  36.841  17.185  1.00  0.00     0.191 C 
HETATM    9  C14 UNL     1      18.286  35.888  18.171  1.00  0.00     0.239 C 
HETATM   10  O2  UNL     1      17.492  35.382  19.026  1.00  0.00    -0.272 OA
HETATM   11  N3  UNL     1      19.658  35.515  18.206  1.00  0.00    -0.346 N 
ATOM     12  H3  UNL     1      19.877  34.524  18.309  1.00  0.00     0.163 HD
HETATM   13  C15 UNL     1      20.766  36.445  18.106  1.00  0.00     0.180 C 
HETATM   14  C19 UNL     1      21.202  36.578  16.695  1.00  0.00     0.241 C 
HETATM   15  O3  UNL     1      20.899  35.635  15.879  1.00  0.00    -0.271 OA
HETATM   16  N4  UNL     1      21.931  37.668  16.178  1.00  0.00    -0.346 N 
ATOM     17  H4  UNL     1      22.310  37.573  15.236  1.00  0.00     0.163 HD
HETATM   18  C20 UNL     1      22.188  38.916  16.874  1.00  0.00     0.181 C 
HETATM   19  C29 UNL     1      21.367  40.004  16.272  1.00  0.00     0.243 C 
HETATM   20  O6  UNL     1      21.102  39.852  15.031  1.00  0.00    -0.271 OA
HETATM   21  N5  UNL     1      20.870  41.143  16.904  1.00  0.00    -0.341 N 
HETATM   22  C30 UNL     1      20.793  42.360  16.074  1.00  0.00     0.153 C 
HETATM   23  C31 UNL     1      20.430  41.238  18.286  1.00  0.00     0.178 C 
HETATM   24  C35 UNL     1      19.419  42.313  18.452  1.00  0.00     0.241 C 
HETATM   25  O7  UNL     1      19.917  43.497  18.435  1.00  0.00    -0.271 OA
HETATM   26  N6  UNL     1      18.016  42.126  18.619  1.00  0.00    -0.351 N 
ATOM     27  H6  UNL     1      17.588  42.555  19.441  1.00  0.00     0.163 HD
ENDROOT
BRANCH  18  28
HETATM   28  C21 UNL     1      23.629  39.382  16.616  1.00  0.00     0.073 C 
BRANCH  28  29
HETATM   29  C22 UNL     1      24.476  39.370  17.800  1.00  0.00    -0.056 A 
HETATM   30  C23 UNL     1      25.533  40.253  17.976  1.00  0.00     0.008 A 
HETATM   31  C24 UNL     1      26.328  40.234  19.108  1.00  0.00     0.019 A 
HETATM   32  C25 UNL     1      26.085  39.306  20.128  1.00  0.00     0.040 A 
HETATM   33  C27 UNL     1      25.030  38.420  19.958  1.00  0.00     0.019 A 
HETATM   34  C28 UNL     1      24.269  38.466  18.833  1.00  0.00     0.008 A 
BRANCH  32  35
HETATM   35  C26 UNL     1      26.907  39.266  21.325  1.00  0.00     0.209 C 
HETATM   36  O4  UNL     1      28.153  39.243  21.216  1.00  0.00    -0.644 OA
HETATM   37  O5  UNL     1      26.290  39.254  22.559  1.00  0.00    -0.644 OA
ENDBRANCH  32  35
ENDBRANCH  28  29
ENDBRANCH  18  28
BRANCH  13  38
HETATM   38  C16 UNL     1      21.880  35.939  19.013  1.00  0.00     0.009 C 
HETATM   39  C17 UNL     1      22.660  34.839  18.335  1.00  0.00     0.012 C 
HETATM   40  C18 UNL     1      21.225  35.465  20.289  1.00  0.00     0.012 C 
ENDBRANCH  13  38
BRANCH  23  41
HETATM   41  C32 UNL     1      21.602  41.496  19.215  1.00  0.00     0.035 C 
BRANCH  41  42
HETATM   42  C33 UNL     1      22.635  42.398  18.578  1.00  0.00    -0.002 C 
HETATM   43  C34 UNL     1      23.565  42.885  19.670  1.00  0.00     0.005 C 
ENDBRANCH  41  42
ENDBRANCH  23  41
BRANCH   8  44
HETATM   44  C10 UNL     1      16.271  36.585  16.855  1.00  0.00     0.033 C 
BRANCH  44  45
HETATM   45  C11 UNL     1      16.173  35.653  15.686  1.00  0.00     0.002 C 
BRANCH  45  46
HETATM   46  C12 UNL     1      15.841  34.239  16.126  1.00  0.00    -0.004 C 
HETATM   47  C13 UNL     1      17.048  33.374  15.765  1.00  0.00     0.005 C 
ENDBRANCH  45  46
ENDBRANCH  44  45
ENDBRANCH   8  44
BRANCH   1  48
HETATM   48  C5  UNL     1      16.418  42.304  16.833  1.00  0.00    -0.005 C 
HETATM   49  C4  UNL     1      15.901  43.470  17.138  1.00  0.00    -0.025 C 
BRANCH  49  50
HETATM   50  C3  UNL     1      15.884  44.204  18.400  1.00  0.00     0.053 C 
BRANCH  50  51
HETATM   51  C2  UNL     1      14.614  43.806  19.128  1.00  0.00    -0.033 C 
HETATM   52  C1  UNL     1      14.705  43.172  20.278  1.00  0.00     0.007 C 
ENDBRANCH  50  51
ENDBRANCH  49  50
ENDBRANCH   1  48
TORSDOF 12
ENDMDL
MODEL 3
REMARK VINA RESULT: -5.887788252      0.872      1.820
REMARK  12 active torsions:
REMARK  status: ('A' for Active; 'I' for Inactive)
REMARK    1  A    between atoms: C2_2  and  C3_3 
REMARK    2  A    between atoms: C3_3  and  C4_4 
REMARK    3  A    between atoms: C5_5  and  C6_6 
REMARK    4  A    between atoms: C9_13  and  C10_14 
REMARK    5  A    between atoms: C10_14  and  C11_15 
REMARK    6  A    between atoms: C11_15  and  C12_16 
REMARK    7  A    between atoms: C15_22  and  C16_23 
REMARK    8  A    between atoms: C20_30  and  C21_31 
REMARK    9  A    between atoms: C21_31  and  C22_32 
REMARK   10  A    between atoms: C25_35  and  C26_36 
REMARK   11  A    between atoms: C31_45  and  C32_46 
REMARK   12  A    between atoms: C32_46  and  C33_47 
ROOT
HETATM    1  C6  UNL     1      19.462  37.339  18.162  1.00  0.00     0.116 C 
HETATM    2  C7  UNL     1      18.034  37.718  18.294  1.00  0.00     0.133 C 
HETATM    3  C8  UNL     1      17.684  38.968  17.567  1.00  0.00     0.235 C 
HETATM    4  O1  UNL     1      17.128  38.840  16.447  1.00  0.00    -0.272 OA
HETATM    5  N1  UNL     1      17.990  40.218  18.166  1.00  0.00    -0.273 N 
ATOM      6  H1  UNL     1      17.611  41.068  17.751  1.00  0.00     0.185 HD
HETATM    7  N2  UNL     1      18.785  40.324  19.295  1.00  0.00    -0.124 NA
HETATM    8  C9  UNL     1      18.315  41.294  20.268  1.00  0.00     0.191 C 
HETATM    9  C14 UNL     1      17.912  42.564  19.615  1.00  0.00     0.239 C 
HETATM   10  O2  UNL     1      16.683  42.711  19.319  1.00  0.00    -0.272 OA
HETATM   11  N3  UNL     1      18.820  43.613  19.306  1.00  0.00    -0.346 N 
ATOM     12  H3  UNL     1      18.540  44.566  19.539  1.00  0.00     0.163 HD
HETATM   13  C15 UNL     1      20.116  43.423  18.684  1.00  0.00     0.180 C 
HETATM   14  C19 UNL     1      21.170  43.290  19.719  1.00  0.00     0.241 C 
HETATM   15  O3  UNL     1      20.928  43.754  20.890  1.00  0.00    -0.271 OA
HETATM   16  N4  UNL     1      22.429  42.687  19.511  1.00  0.00    -0.346 N 
ATOM     17  H4  UNL     1      23.126  42.797  20.247  1.00  0.00     0.163 HD
HETATM   18  C20 UNL     1      22.814  41.924  18.338  1.00  0.00     0.181 C 
HETATM   19  C29 UNL     1      22.894  40.478  18.685  1.00  0.00     0.243 C 
HETATM   20  O6  UNL     1      23.202  40.234  19.902  1.00  0.00    -0.271 OA
HETATM   21  N5  UNL     1      22.674  39.388  17.843  1.00  0.00    -0.341 N 
HETATM   22  C30 UNL     1      23.497  38.193  18.107  1.00  0.00     0.153 C 
HETATM   23  C31 UNL     1      21.723  39.327  16.746  1.00  0.00     0.178 C 
HETATM   24  C35 UNL     1      21.290  37.929  16.492  1.00  0.00     0.241 C 
HETATM   25  O7  UNL     1      22.171  37.217  15.886  1.00  0.00    -0.271 OA
HETATM   26  N6  UNL     1      20.034  37.361  16.855  1.00  0.00    -0.351 N 
ATOM     27  H6  UNL     1      19.490  36.928  16.107  1.00  0.00     0.163 HD
ENDROOT
BRANCH  18  28
HETATM   28  C21 UNL     1      24.256  42.266  17.932  1.00  0.00     0.073 C 
BRANCH  28  29
HETATM   29  C22 UNL     1      24.455  42.380  16.494  1.00  0.00    -0.056 A 
HETATM   30  C23 UNL     1      25.483  41.730  15.825  1.00  0.00     0.008 A 
HETATM   31  C24 UNL     1      25.659  41.843  14.457  1.00  0.00     0.019 A 
HETATM   32  C25 UNL     1      24.789  42.631  13.695  1.00  0.00     0.040 A 
HETATM   33  C27 UNL     1      23.759  43.284  14.358  1.00  0.00     0.019 A 
HETATM   34  C28 UNL     1      23.614  43.151  15.703  1.00  0.00     0.008 A 
BRANCH  32  35
HETATM   35  C26 UNL     1      24.953  42.766  12.258  1.00  0.00     0.209 C 
HETATM   36  O4  UNL     1      24.975  43.907  11.745  1.00  0.00    -0.644 OA
HETATM   37  O5  UNL     1      25.082  41.628  11.490  1.00  0.00    -0.644 OA
ENDBRANCH  32  35
ENDBRANCH  28  29
ENDBRANCH  18  28
BRANCH  13  38
HETATM   38  C16 UNL     1      20.362  44.603  17.753  1.00  0.00     0.009 C 
HETATM   39  C17 UNL     1      19.455  45.757  18.106  1.00  0.00     0.012 C 
HETATM   40  C18 UNL     1      20.126  44.108  16.346  1.00  0.00     0.012 C 
ENDBRANCH  13  38
BRANCH  23  41
HETATM   41  C32 UNL     1      22.315  39.913  15.477  1.00  0.00     0.035 C 
BRANCH  41  42
HETATM   42  C33 UNL     1      21.247  40.251  14.462  1.00  0.00    -0.002 C 
HETATM   43  C34 UNL     1      21.863  40.142  13.083  1.00  0.00     0.005 C 
ENDBRANCH  41  42
ENDBRANCH  23  41
BRANCH   8  44
HETATM   44  C10 UNL     1      17.227  40.668  21.103  1.00  0.00     0.033 C 
BRANCH  44  45
HETATM   45  C11 UNL     1      17.363  41.108  22.529  1.00  0.00     0.002 C 
BRANCH  45  46
HETATM   46  C12 UNL     1      16.626  40.175  23.472  1.00  0.00    -0.004 C 
HETATM   47  C13 UNL     1      15.423  39.634  22.700  1.00  0.00     0.005 C 
ENDBRANCH  45  46
ENDBRANCH  44  45
ENDBRANCH   8  44
BRANCH   1  48
HETATM   48  C5  UNL     1      19.684  36.030  18.825  1.00  0.00    -0.005 C 
HETATM   49  C4  UNL     1      20.723  35.688  19.548  1.00  0.00    -0.025 C 
BRANCH  49  50
HETATM   50  C3  UNL     1      21.921  36.441  19.911  1.00  0.00     0.053 C 
BRANCH  50  51
HETATM   51  C2  UNL     1      22.920  35.445  20.469  1.00  0.00    -0.033 C 
HETATM   52  C1  UNL     1      24.117  35.866  20.818  1.00  0.00     0.007 C 
ENDBRANCH  50  51
ENDBRANCH  49  50
ENDBRANCH   1  48
TORSDOF 12
ENDMDL
MODEL 4
REMARK VINA RESULT: -5.793585366      0.884      1.107
REMARK  12 active torsions:
REMARK  status: ('A' for Active; 'I' for Inactive)
REMARK    1  A    between atoms: C2_2  and  C3_3 
REMARK    2  A    between atoms: C3_3  and  C4_4 
REMARK    3  A    between atoms: C5_5  and  C6_6 
REMARK    4  A    between atoms: C9_13  and  C10_14 
REMARK    5  A    between atoms: C10_14  and  C11_15 
REMARK    6  A    between atoms: C11_15  and  C12_16 
REMARK    7  A    between atoms: C15_22  and  C16_23 
REMARK    8  A    between atoms: C20_30  and  C21_31 
REMARK    9  A    between atoms: C21_31  and  C22_32 
REMARK   10  A    between atoms: C25_35  and  C26_36 
REMARK   11  A    between atoms: C31_45  and  C32_46 
REMARK   12  A    between atoms: C32_46  and  C33_47 
ROOT
HETATM    1  C6  UNL     1      19.216  37.272  18.241  1.00  0.00     0.116 C 
HETATM    2  C7  UNL     1      17.859  37.857  18.364  1.00  0.00     0.133 C 
HETATM    3  C8  UNL     1      17.686  39.120  17.596  1.00  0.00     0.235 C 
HETATM    4  O1  UNL     1      17.109  39.037  16.483  1.00  0.00    -0.272 OA
HETATM    5  N1  UNL     1      18.174  40.331  18.152  1.00  0.00    -0.273 N 
ATOM      6  H1  UNL     1      17.918  41.214  17.710  1.00  0.00     0.185 HD
HETATM    7  N2  UNL     1      18.985  40.359  19.274  1.00  0.00    -0.124 NA
HETATM    8  C9  UNL     1      18.667  41.418  20.216  1.00  0.00     0.191 C 
HETATM    9  C14 UNL     1      18.446  42.710  19.522  1.00  0.00     0.239 C 
HETATM   10  O2  UNL     1      17.249  43.023  19.226  1.00  0.00    -0.272 OA
HETATM   11  N3  UNL     1      19.494  43.607  19.176  1.00  0.00    -0.346 N 
ATOM     12  H3  UNL     1      19.356  44.597  19.377  1.00  0.00     0.163 HD
HETATM   13  C15 UNL     1      20.743  43.212  18.556  1.00  0.00     0.180 C 
HETATM   14  C19 UNL     1      21.776  42.962  19.591  1.00  0.00     0.241 C 
HETATM   15  O3  UNL     1      21.612  43.494  20.747  1.00  0.00    -0.271 OA
HETATM   16  N4  UNL     1      22.932  42.178  19.400  1.00  0.00    -0.346 N 
ATOM     17  H4  UNL     1      23.644  42.210  20.129  1.00  0.00     0.163 HD
HETATM   18  C20 UNL     1      23.194  41.329  18.252  1.00  0.00     0.181 C 
HETATM   19  C29 UNL     1      23.068  39.898  18.647  1.00  0.00     0.243 C 
HETATM   20  O6  UNL     1      23.348  39.652  19.870  1.00  0.00    -0.271 OA
HETATM   21  N5  UNL     1      22.686  38.825  17.843  1.00  0.00    -0.341 N 
HETATM   22  C30 UNL     1      23.331  37.533  18.144  1.00  0.00     0.153 C 
HETATM   23  C31 UNL     1      21.728  38.866  16.751  1.00  0.00     0.178 C 
HETATM   24  C35 UNL     1      21.096  37.537  16.546  1.00  0.00     0.241 C 
HETATM   25  O7  UNL     1      21.861  36.686  15.962  1.00  0.00    -0.271 OA
HETATM   26  N6  UNL     1      19.774  37.168  16.932  1.00  0.00    -0.351 N 
ATOM     27  H6  UNL     1      19.168  36.794  16.201  1.00  0.00     0.163 HD
ENDROOT
BRANCH  18  28
HETATM   28  C21 UNL     1      24.667  41.446  17.830  1.00  0.00     0.073 C 
BRANCH  28  29
HETATM   29  C22 UNL     1      24.884  42.288  16.663  1.00  0.00    -0.056 A 
HETATM   30  C23 UNL     1      24.944  43.673  16.737  1.00  0.00     0.008 A 
HETATM   31  C24 UNL     1      25.154  44.462  15.620  1.00  0.00     0.019 A 
HETATM   32  C25 UNL     1      25.316  43.875  14.359  1.00  0.00     0.040 A 
HETATM   33  C27 UNL     1      25.256  42.491  14.278  1.00  0.00     0.019 A 
HETATM   34  C28 UNL     1      25.048  41.746  15.396  1.00  0.00     0.008 A 
BRANCH  32  35
HETATM   35  C26 UNL     1      25.537  44.682  13.172  1.00  0.00     0.209 C 
HETATM   36  O4  UNL     1      24.595  45.360  12.704  1.00  0.00    -0.644 OA
HETATM   37  O5  UNL     1      26.786  44.682  12.587  1.00  0.00    -0.644 OA
ENDBRANCH  32  35
ENDBRANCH  28  29
ENDBRANCH  18  28
BRANCH  13  38
HETATM   38  C16 UNL     1      21.150  44.313  17.585  1.00  0.00     0.009 C 
HETATM   39  C17 UNL     1      20.164  45.455  17.634  1.00  0.00     0.012 C 
HETATM   40  C18 UNL     1      21.218  43.684  16.213  1.00  0.00     0.012 C 
ENDBRANCH  13  38
BRANCH  23  41
HETATM   41  C32 UNL     1      22.389  39.318  15.462  1.00  0.00     0.035 C 
BRANCH  41  42
HETATM   42  C33 UNL     1      21.466  40.180  14.631  1.00  0.00    -0.002 C 
HETATM   43  C34 UNL     1      21.991  40.190  13.211  1.00  0.00     0.005 C 
ENDBRANCH  41  42
ENDBRANCH  23  41
BRANCH   8  44
HETATM   44  C10 UNL     1      17.507  40.983  21.075  1.00  0.00     0.033 C 
BRANCH  44  45
HETATM   45  C11 UNL     1      17.794  41.292  22.513  1.00  0.00     0.002 C 
BRANCH  45  46
HETATM   46  C12 UNL     1      17.015  40.382  23.445  1.00  0.00    -0.004 C 
HETATM   47  C13 UNL     1      17.984  39.954  24.547  1.00  0.00     0.005 C 
ENDBRANCH  45  46
ENDBRANCH  44  45
ENDBRANCH   8  44
BRANCH   1  48
HETATM   48  C5  UNL     1      19.252  35.967  18.947  1.00  0.00    -0.005 C 
HETATM   49  C4  UNL     1      18.716  34.843  18.537  1.00  0.00    -0.025 C 
BRANCH  49  50
HETATM   50  C3  UNL     1      17.959  34.534  17.327  1.00  0.00     0.053 C 
BRANCH  50  51
HETATM   51  C2  UNL     1      16.493  34.498  17.717  1.00  0.00    -0.033 C 
HETATM   52  C1  UNL     1      15.630  35.221  17.035  1.00  0.00     0.007 C 
ENDBRANCH  50  51
ENDBRANCH  49  50
ENDBRANCH   1  48
TORSDOF 12
ENDMDL
MODEL 5
REMARK VINA RESULT: -5.719386865      2.888      7.009
REMARK  12 active torsions:
REMARK  status: ('A' for Active; 'I' for Inactive)
REMARK    1  A    between atoms: C2_2  and  C3_3 
REMARK    2  A    between atoms: C3_3  and  C4_4 
REMARK    3  A    between atoms: C5_5  and  C6_6 
REMARK    4  A    between atoms: C9_13  and  C10_14 
REMARK    5  A    between atoms: C10_14  and  C11_15 
REMARK    6  A    between atoms: C11_15  and  C12_16 
REMARK    7  A    between atoms: C15_22  and  C16_23 
REMARK    8  A    between atoms: C20_30  and  C21_31 
REMARK    9  A    between atoms: C21_31  and  C22_32 
REMARK   10  A    between atoms: C25_35  and  C26_36 
REMARK   11  A    between atoms: C31_45  and  C32_46 
REMARK   12  A    between atoms: C32_46  and  C33_47 
ROOT
HETATM    1  C6  UNL     1      17.486  41.152  17.387  1.00  0.00     0.116 C 
HETATM    2  C7  UNL     1      16.411  40.368  18.042  1.00  0.00     0.133 C 
HETATM    3  C8  UNL     1      16.903  39.487  19.136  1.00  0.00     0.235 C 
HETATM    4  O1  UNL     1      16.759  39.904  20.313  1.00  0.00    -0.272 OA
HETATM    5  N1  UNL     1      17.498  38.243  18.799  1.00  0.00    -0.273 N 
ATOM      6  H1  UNL     1      17.688  37.571  19.542  1.00  0.00     0.185 HD
HETATM    7  N2  UNL     1      17.829  37.908  17.497  1.00  0.00    -0.124 NA
HETATM    8  C9  UNL     1      17.527  36.534  17.137  1.00  0.00     0.191 C 
HETATM    9  C14 UNL     1      17.959  35.591  18.198  1.00  0.00     0.239 C 
HETATM   10  O2  UNL     1      17.094  35.239  19.063  1.00  0.00    -0.272 OA
HETATM   11  N3  UNL     1      19.277  35.065  18.296  1.00  0.00    -0.346 N 
ATOM     12  H3  UNL     1      19.376  34.065  18.469  1.00  0.00     0.163 HD
HETATM   13  C15 UNL     1      20.488  35.851  18.165  1.00  0.00     0.180 C 
HETATM   14  C19 UNL     1      20.964  35.836  16.761  1.00  0.00     0.241 C 
HETATM   15  O3  UNL     1      20.568  34.882  16.000  1.00  0.00    -0.271 OA
HETATM   16  N4  UNL     1      21.826  36.798  16.194  1.00  0.00    -0.346 N 
ATOM     17  H4  UNL     1      22.209  36.595  15.271  1.00  0.00     0.163 HD
HETATM   18  C20 UNL     1      22.213  38.051  16.813  1.00  0.00     0.181 C 
HETATM   19  C29 UNL     1      21.538  39.183  16.119  1.00  0.00     0.243 C 
HETATM   20  O6  UNL     1      21.281  38.979  14.884  1.00  0.00    -0.271 OA
HETATM   21  N5  UNL     1      21.165  40.413  16.661  1.00  0.00    -0.341 N 
HETATM   22  C30 UNL     1      21.248  41.571  15.751  1.00  0.00     0.153 C 
HETATM   23  C31 UNL     1      20.713  40.652  18.022  1.00  0.00     0.178 C 
HETATM   24  C35 UNL     1      19.831  41.846  18.089  1.00  0.00     0.241 C 
HETATM   25  O7  UNL     1      20.465  42.960  18.008  1.00  0.00    -0.271 OA
HETATM   26  N6  UNL     1      18.413  41.834  18.230  1.00  0.00    -0.351 N 
ATOM     27  H6  UNL     1      18.023  42.365  19.009  1.00  0.00     0.163 HD
ENDROOT
BRANCH  18  28
HETATM   28  C21 UNL     1      23.704  38.329  16.565  1.00  0.00     0.073 C 
BRANCH  28  29
HETATM   29  C22 UNL     1      24.404  38.878  17.717  1.00  0.00    -0.056 A 
HETATM   30  C23 UNL     1      24.527  38.191  18.918  1.00  0.00     0.008 A 
HETATM   31  C24 UNL     1      25.198  38.722  20.005  1.00  0.00     0.019 A 
HETATM   32  C25 UNL     1      25.784  39.991  19.924  1.00  0.00     0.040 A 
HETATM   33  C27 UNL     1      25.664  40.683  18.727  1.00  0.00     0.019 A 
HETATM   34  C28 UNL     1      24.997  40.132  17.678  1.00  0.00     0.008 A 
BRANCH  32  35
HETATM   35  C26 UNL     1      26.493  40.570  21.051  1.00  0.00     0.209 C 
HETATM   36  O4  UNL     1      25.910  40.686  22.152  1.00  0.00    -0.644 OA
HETATM   37  O5  UNL     1      27.799  40.980  20.880  1.00  0.00    -0.644 OA
ENDBRANCH  32  35
ENDBRANCH  28  29
ENDBRANCH  18  28
BRANCH  13  38
HETATM   38  C16 UNL     1      21.517  35.283  19.134  1.00  0.00     0.009 C 
HETATM   39  C17 UNL     1      21.976  36.345  20.104  1.00  0.00     0.012 C 
HETATM   40  C18 UNL     1      22.657  34.750  18.298  1.00  0.00     0.012 C 
ENDBRANCH  13  38
BRANCH  23  41
HETATM   41  C32 UNL     1      21.889  40.836  18.963  1.00  0.00     0.035 C 
BRANCH  41  42
HETATM   42  C33 UNL     1      21.488  41.564  20.226  1.00  0.00    -0.002 C 
HETATM   43  C34 UNL     1      22.749  42.078  20.888  1.00  0.00     0.005 C 
ENDBRANCH  41  42
ENDBRANCH  23  41
BRANCH   8  44
HETATM   44  C10 UNL     1      16.065  36.425  16.786  1.00  0.00     0.033 C 
BRANCH  44  45
HETATM   45  C11 UNL     1      15.888  35.476  15.639  1.00  0.00     0.002 C 
BRANCH  45  46
HETATM   46  C12 UNL     1      15.804  34.038  16.114  1.00  0.00    -0.004 C 
HETATM   47  C13 UNL     1      17.043  33.326  15.573  1.00  0.00     0.005 C 
ENDBRANCH  45  46
ENDBRANCH  44  45
ENDBRANCH   8  44
BRANCH   1  48
HETATM   48  C5  UNL     1      16.882  42.074  16.393  1.00  0.00    -0.005 C 
HETATM   49  C4  UNL     1      16.509  43.313  16.604  1.00  0.00    -0.025 C 
BRANCH  49  50
HETATM   50  C3  UNL     1      16.567  44.133  17.811  1.00  0.00     0.053 C 
BRANCH  50  51
HETATM   51  C2  UNL     1      17.594  45.222  17.560  1.00  0.00    -0.033 C 
HETATM   52  C1  UNL     1      17.991  45.457  16.328  1.00  0.00     0.007 C 
ENDBRANCH  50  51
ENDBRANCH  49  50
ENDBRANCH   1  48
TORSDOF 12
ENDMDL
