MODEL 1
REMARK VINA RESULT: -7.829611867      0.000      0.000
REMARK  14 active torsions:
REMARK  status: ('A' for Active; 'I' for Inactive)
REMARK    1  A    between atoms: C2_2  and  C4_4 
REMARK    2  A    between atoms: C4_4  and  C5_5 
REMARK    3  A    between atoms: C7_10  and  C8_11 
REMARK    4  A    between atoms: C8_11  and  C9_12 
REMARK    5  A    between atoms: C17_24  and  O2_25 
REMARK    6  A    between atoms: C18_27  and  C19_28 
REMARK    7  A    between atoms: C22_33  and  O3_34 
REMARK    8  A    between atoms: C23_36  and  C24_37 
REMARK    9  A    between atoms: C24_37  and  C25_38 
REMARK   10  A    between atoms: C25_38  and  C26_39 
REMARK   11  A    between atoms: C26_39  and  C27_40 
REMARK   12  A    between atoms: C27_40  and  N5_41 
REMARK   13  A    between atoms: C31_49  and  C32_50 
REMARK   14  A    between atoms: C32_50  and  C33_51 
ROOT
HETATM    1  C5  UNL     1      18.254  35.505  17.416  1.00  0.00     0.177 C 
HETATM    2  N1  UNL     1      18.699  35.582  18.793  1.00  0.00    -0.346 N 
ATOM      3  H1  UNL     1      18.047  36.004  19.454  1.00  0.00     0.163 HD
HETATM    4  C6  UNL     1      19.906  35.149  19.316  1.00  0.00     0.241 C 
HETATM    5  O1  UNL     1      19.860  34.440  20.382  1.00  0.00    -0.271 OA
HETATM    6  C7  UNL     1      21.287  35.418  18.766  1.00  0.00     0.180 C 
HETATM    7  N3  UNL     1      21.733  34.221  18.103  1.00  0.00    -0.356 N 
ATOM      8  H3  UNL     1      21.127  33.423  18.298  1.00  0.00     0.162 HD
HETATM    9  C17 UNL     1      22.781  33.891  17.268  1.00  0.00     0.164 C 
HETATM   10  C18 UNL     1      23.281  34.292  15.975  1.00  0.00     0.086 C 
HETATM   11  N4  UNL     1      23.079  33.396  14.854  1.00  0.00    -0.332 N 
ATOM     12  H4  UNL     1      23.905  33.382  14.256  1.00  0.00     0.168 HD
HETATM   13  C22 UNL     1      22.111  32.559  14.353  1.00  0.00     0.164 C 
HETATM   14  C23 UNL     1      21.620  31.201  14.551  1.00  0.00     0.065 C 
HETATM   15  N7  UNL     1      20.622  30.889  15.508  1.00  0.00    -0.320 N 
HETATM   16  C29 UNL     1      20.591  29.456  15.906  1.00  0.00     0.159 C 
HETATM   17  C30 UNL     1      19.653  31.661  16.134  1.00  0.00     0.246 C 
HETATM   18  O4  UNL     1      19.426  31.305  17.358  1.00  0.00    -0.271 OA
HETATM   19  C31 UNL     1      18.855  32.815  15.605  1.00  0.00     0.177 C 
HETATM   20  N8  UNL     1      17.819  33.079  16.614  1.00  0.00    -0.346 N 
ATOM     21  H8  UNL     1      17.263  32.264  16.877  1.00  0.00     0.163 HD
HETATM   22  C36 UNL     1      17.478  34.230  17.256  1.00  0.00     0.241 C 
HETATM   23  O5  UNL     1      16.321  34.264  17.823  1.00  0.00    -0.271 OA
ENDROOT
BRANCH   6  24
HETATM   24  C8  UNL     1      22.142  35.749  19.983  1.00  0.00     0.075 C 
BRANCH  24  25
HETATM   25  C9  UNL     1      23.068  36.881  19.760  1.00  0.00    -0.028 A 
HETATM   26  C10 UNL     1      22.809  38.042  19.021  1.00  0.00     0.096 A 
HETATM   27  N2  UNL     1      23.871  38.854  19.052  1.00  0.00    -0.365 N 
HETATM   28  C11 UNL     1      24.847  38.290  19.784  1.00  0.00     0.042 A 
ATOM     29  H2  UNL     1      23.931  39.761  18.590  1.00  0.00     0.165 HD
HETATM   30  C12 UNL     1      26.097  38.787  20.067  1.00  0.00     0.030 A 
HETATM   31  C16 UNL     1      24.356  37.085  20.217  1.00  0.00    -0.002 A 
HETATM   32  C13 UNL     1      26.909  37.977  20.857  1.00  0.00     0.002 A 
HETATM   33  C14 UNL     1      26.466  36.766  21.315  1.00  0.00     0.001 A 
HETATM   34  C15 UNL     1      25.197  36.314  21.001  1.00  0.00     0.014 A 
ENDBRANCH  24  25
ENDBRANCH   6  24
BRANCH   9  35
HETATM   35  O2  UNL     1      23.539  32.940  17.803  1.00  0.00    -0.345 OA
ATOM     36  H2  UNL     1      23.337  32.090  17.430  1.00  0.00     0.219 HD
ENDBRANCH   9  35
BRANCH   1  37
HETATM   37  C4  UNL     1      17.253  36.597  17.168  1.00  0.00     0.038 C 
BRANCH  37  38
HETATM   38  C2  UNL     1      17.576  37.948  17.655  1.00  0.00    -0.020 C 
HETATM   39  C1  UNL     1      16.488  38.948  17.279  1.00  0.00     0.009 C 
HETATM   40  C3  UNL     1      18.944  38.473  17.420  1.00  0.00     0.009 C 
ENDBRANCH  37  38
ENDBRANCH   1  37
BRANCH  10  41
HETATM   41  C19 UNL     1      23.233  35.738  15.554  1.00  0.00    -0.057 C 
HETATM   42  C20 UNL     1      24.296  36.606  16.184  1.00  0.00     0.045 C 
HETATM   43  C21 UNL     1      21.933  36.402  15.509  1.00  0.00     0.045 C 
ENDBRANCH  10  41
BRANCH  13  44
HETATM   44  O3  UNL     1      21.395  33.143  13.395  1.00  0.00    -0.345 OA
ATOM     45  H3  UNL     1      20.896  33.881  13.726  1.00  0.00     0.219 HD
ENDBRANCH  13  44
BRANCH  19  46
HETATM   46  C32 UNL     1      18.052  32.415  14.371  1.00  0.00     0.038 C 
BRANCH  46  47
HETATM   47  C33 UNL     1      18.016  30.917  14.194  1.00  0.00    -0.020 C 
HETATM   48  C34 UNL     1      16.606  30.379  14.122  1.00  0.00     0.009 C 
HETATM   49  C35 UNL     1      18.672  30.586  12.871  1.00  0.00     0.009 C 
ENDBRANCH  46  47
ENDBRANCH  19  46
BRANCH  14  50
HETATM   50  C24 UNL     1      22.711  30.124  14.477  1.00  0.00     0.062 C 
BRANCH  50  51
HETATM   51  C25 UNL     1      23.241  29.825  13.133  1.00  0.00     0.008 C 
BRANCH  51  52
HETATM   52  C26 UNL     1      22.096  29.659  12.153  1.00  0.00     0.020 C 
BRANCH  52  53
HETATM   53  C27 UNL     1      21.765  28.214  11.857  1.00  0.00     0.120 C 
BRANCH  53  54
HETATM   54  N5  UNL     1      22.975  27.448  12.159  1.00  0.00    -0.388 N 
HETATM   55  C28 UNL     1      23.368  26.472  11.417  1.00  0.00     0.185 C 
HETATM   56  N6  UNL     1      24.545  25.769  11.757  1.00  0.00    -0.097 NA
ATOM     57  H5  UNL     1      23.524  27.695  12.982  1.00  0.00     0.159 HD
ENDBRANCH  53  54
ENDBRANCH  52  53
ENDBRANCH  51  52
ENDBRANCH  50  51
ENDBRANCH  14  50
TORSDOF 14
ENDMDL
MODEL 2
REMARK VINA RESULT: -7.801899173      5.166     12.690
REMARK  14 active torsions:
REMARK  status: ('A' for Active; 'I' for Inactive)
REMARK    1  A    between atoms: C2_2  and  C4_4 
REMARK    2  A    between atoms: C4_4  and  C5_5 
REMARK    3  A    between atoms: C7_10  and  C8_11 
REMARK    4  A    between atoms: C8_11  and  C9_12 
REMARK    5  A    between atoms: C17_24  and  O2_25 
REMARK    6  A    between atoms: C18_27  and  C19_28 
REMARK    7  A    between atoms: C22_33  and  O3_34 
REMARK    8  A    between atoms: C23_36  and  C24_37 
REMARK    9  A    between atoms: C24_37  and  C25_38 
REMARK   10  A    between atoms: C25_38  and  C26_39 
REMARK   11  A    between atoms: C26_39  and  C27_40 
REMARK   12  A    between atoms: C27_40  and  N5_41 
REMARK   13  A    between atoms: C31_49  and  C32_50 
REMARK   14  A    between atoms: C32_50  and  C33_51 
ROOT
HETATM    1  C5  UNL     1      20.343  25.726   9.682  1.00  0.00     0.177 C 
HETATM    2  N1  UNL     1      19.847  24.504  10.284  1.00  0.00    -0.346 N 
ATOM      3  H1  UNL     1      20.065  23.638   9.790  1.00  0.00     0.163 HD
HETATM    4  C6  UNL     1      19.114  24.375  11.451  1.00  0.00     0.241 C 
HETATM    5  O1  UNL     1      19.505  23.490  12.292  1.00  0.00    -0.271 OA
HETATM    6  C7  UNL     1      17.893  25.167  11.854  1.00  0.00     0.180 C 
HETATM    7  N3  UNL     1      18.307  26.140  12.830  1.00  0.00    -0.356 N 
ATOM      8  H3  UNL     1      19.257  25.972  13.165  1.00  0.00     0.162 HD
HETATM    9  C17 UNL     1      17.731  27.245  13.423  1.00  0.00     0.164 C 
HETATM   10  C18 UNL     1      17.182  28.514  13.007  1.00  0.00     0.086 C 
HETATM   11  N4  UNL     1      17.960  29.711  13.251  1.00  0.00    -0.332 N 
ATOM     12  H4  UNL     1      17.354  30.476  13.547  1.00  0.00     0.168 HD
HETATM   13  C22 UNL     1      19.269  30.128  13.205  1.00  0.00     0.164 C 
HETATM   14  C23 UNL     1      20.466  30.095  14.036  1.00  0.00     0.065 C 
HETATM   15  N7  UNL     1      21.380  29.012  14.004  1.00  0.00    -0.320 N 
HETATM   16  C29 UNL     1      22.243  28.911  15.211  1.00  0.00     0.159 C 
HETATM   17  C30 UNL     1      21.640  28.036  13.051  1.00  0.00     0.246 C 
HETATM   18  O4  UNL     1      21.951  26.889  13.564  1.00  0.00    -0.271 OA
HETATM   19  C31 UNL     1      21.614  28.124  11.555  1.00  0.00     0.177 C 
HETATM   20  N8  UNL     1      22.208  26.869  11.071  1.00  0.00    -0.346 N 
ATOM     21  H8  UNL     1      23.123  26.651  11.467  1.00  0.00     0.163 HD
HETATM   22  C36 UNL     1      21.740  25.950  10.183  1.00  0.00     0.241 C 
HETATM   23  O5  UNL     1      22.599  25.133   9.677  1.00  0.00    -0.271 OA
ENDROOT
BRANCH   6  24
HETATM   24  C8  UNL     1      16.930  24.143  12.442  1.00  0.00     0.075 C 
BRANCH  24  25
HETATM   25  C9  UNL     1      16.127  23.437  11.420  1.00  0.00    -0.028 A 
HETATM   26  C10 UNL     1      15.328  22.303  11.618  1.00  0.00     0.096 A 
HETATM   27  N2  UNL     1      14.736  21.953  10.472  1.00  0.00    -0.365 N 
HETATM   28  C11 UNL     1      15.099  22.805   9.498  1.00  0.00     0.042 A 
ATOM     29  H2  UNL     1      14.105  21.160  10.355  1.00  0.00     0.165 HD
HETATM   30  C12 UNL     1      14.719  22.803   8.177  1.00  0.00     0.030 A 
HETATM   31  C16 UNL     1      15.949  23.711  10.078  1.00  0.00    -0.002 A 
HETATM   32  C13 UNL     1      15.260  23.815   7.387  1.00  0.00     0.002 A 
HETATM   33  C14 UNL     1      16.112  24.745   7.917  1.00  0.00     0.001 A 
HETATM   34  C15 UNL     1      16.461  24.701   9.256  1.00  0.00     0.014 A 
ENDBRANCH  24  25
ENDBRANCH   6  24
BRANCH   9  35
HETATM   35  O2  UNL     1      17.667  27.102  14.743  1.00  0.00    -0.345 OA
ATOM     36  H2  UNL     1      17.480  27.930  15.169  1.00  0.00     0.219 HD
ENDBRANCH   9  35
BRANCH   1  37
HETATM   37  C4  UNL     1      20.495  25.511   8.204  1.00  0.00     0.038 C 
BRANCH  37  38
HETATM   38  C2  UNL     1      19.532  26.175   7.309  1.00  0.00    -0.020 C 
HETATM   39  C1  UNL     1      20.155  26.482   5.953  1.00  0.00     0.009 C 
HETATM   40  C3  UNL     1      18.738  27.308   7.846  1.00  0.00     0.009 C 
ENDBRANCH  37  38
ENDBRANCH   1  37
BRANCH  10  41
HETATM   41  C19 UNL     1      16.376  28.616  11.739  1.00  0.00    -0.057 C 
HETATM   42  C20 UNL     1      17.202  28.608  10.474  1.00  0.00     0.045 C 
HETATM   43  C21 UNL     1      15.294  29.595  11.685  1.00  0.00     0.045 C 
ENDBRANCH  10  41
BRANCH  13  44
HETATM   44  O3  UNL     1      19.551  30.756  12.066  1.00  0.00    -0.345 OA
ATOM     45  H3  UNL     1      19.562  31.700  12.174  1.00  0.00     0.219 HD
ENDBRANCH  13  44
BRANCH  19  46
HETATM   46  C32 UNL     1      22.578  29.190  11.044  1.00  0.00     0.038 C 
BRANCH  46  47
HETATM   47  C33 UNL     1      24.003  28.695  11.041  1.00  0.00    -0.020 C 
HETATM   48  C34 UNL     1      24.770  29.151   9.823  1.00  0.00     0.009 C 
HETATM   49  C35 UNL     1      24.708  29.288  12.242  1.00  0.00     0.009 C 
ENDBRANCH  46  47
ENDBRANCH  19  46
BRANCH  14  50
HETATM   50  C24 UNL     1      20.254  30.634  15.458  1.00  0.00     0.062 C 
BRANCH  50  51
HETATM   51  C25 UNL     1      19.839  32.046  15.564  1.00  0.00     0.008 C 
BRANCH  51  52
HETATM   52  C26 UNL     1      18.449  32.130  16.160  1.00  0.00     0.020 C 
BRANCH  52  53
HETATM   53  C27 UNL     1      17.576  33.175  15.505  1.00  0.00     0.120 C 
BRANCH  53  54
HETATM   54  N5  UNL     1      16.657  33.648  16.541  1.00  0.00    -0.388 N 
HETATM   55  C28 UNL     1      17.051  34.392  17.516  1.00  0.00     0.185 C 
HETATM   56  N6  UNL     1      16.117  34.819  18.487  1.00  0.00    -0.097 NA
ATOM     57  H5  UNL     1      15.675  33.379  16.490  1.00  0.00     0.159 HD
ENDBRANCH  53  54
ENDBRANCH  52  53
ENDBRANCH  51  52
ENDBRANCH  50  51
ENDBRANCH  14  50
TORSDOF 14
ENDMDL
MODEL 3
REMARK VINA RESULT: -7.734090175      3.119      7.903
REMARK  14 active torsions:
REMARK  status: ('A' for Active; 'I' for Inactive)
REMARK    1  A    between atoms: C2_2  and  C4_4 
REMARK    2  A    between atoms: C4_4  and  C5_5 
REMARK    3  A    between atoms: C7_10  and  C8_11 
REMARK    4  A    between atoms: C8_11  and  C9_12 
REMARK    5  A    between atoms: C17_24  and  O2_25 
REMARK    6  A    between atoms: C18_27  and  C19_28 
REMARK    7  A    between atoms: C22_33  and  O3_34 
REMARK    8  A    between atoms: C23_36  and  C24_37 
REMARK    9  A    between atoms: C24_37  and  C25_38 
REMARK   10  A    between atoms: C25_38  and  C26_39 
REMARK   11  A    between atoms: C26_39  and  C27_40 
REMARK   12  A    between atoms: C27_40  and  N5_41 
REMARK   13  A    between atoms: C31_49  and  C32_50 
REMARK   14  A    between atoms: C32_50  and  C33_51 
ROOT
HETATM    1  C5  UNL     1      19.404  34.566  16.288  1.00  0.00     0.177 C 
HETATM    2  N1  UNL     1      18.246  34.825  17.120  1.00  0.00    -0.346 N 
ATOM      3  H1  UNL     1      17.476  34.161  17.039  1.00  0.00     0.163 HD
HETATM    4  C6  UNL     1      18.063  35.869  18.010  1.00  0.00     0.241 C 
HETATM    5  O1  UNL     1      17.633  35.570  19.180  1.00  0.00    -0.271 OA
HETATM    6  C7  UNL     1      18.317  37.337  17.760  1.00  0.00     0.180 C 
HETATM    7  N3  UNL     1      19.554  37.681  18.407  1.00  0.00    -0.356 N 
ATOM      8  H3  UNL     1      19.887  36.940  19.025  1.00  0.00     0.162 HD
HETATM    9  C17 UNL     1      20.401  38.772  18.394  1.00  0.00     0.164 C 
HETATM   10  C18 UNL     1      21.189  39.499  17.427  1.00  0.00     0.086 C 
HETATM   11  N4  UNL     1      22.626  39.318  17.439  1.00  0.00    -0.332 N 
ATOM     12  H4  UNL     1      23.098  40.206  17.270  1.00  0.00     0.168 HD
HETATM   13  C22 UNL     1      23.547  38.311  17.608  1.00  0.00     0.164 C 
HETATM   14  C23 UNL     1      24.210  37.597  18.692  1.00  0.00     0.065 C 
HETATM   15  N7  UNL     1      23.647  36.442  19.292  1.00  0.00    -0.320 N 
HETATM   16  C29 UNL     1      24.186  36.138  20.645  1.00  0.00     0.159 C 
HETATM   17  C30 UNL     1      22.702  35.525  18.851  1.00  0.00     0.246 C 
HETATM   18  O4  UNL     1      21.939  35.082  19.798  1.00  0.00    -0.271 OA
HETATM   19  C31 UNL     1      22.452  34.992  17.472  1.00  0.00     0.177 C 
HETATM   20  N8  UNL     1      21.505  33.880  17.641  1.00  0.00    -0.346 N 
ATOM     21  H8  UNL     1      21.792  33.176  18.321  1.00  0.00     0.163 HD
HETATM   22  C36 UNL     1      20.309  33.634  17.039  1.00  0.00     0.241 C 
HETATM   23  O5  UNL     1      19.856  32.429  17.106  1.00  0.00    -0.271 OA
ENDROOT
BRANCH   6  24
HETATM   24  C8  UNL     1      17.127  38.058  18.383  1.00  0.00     0.075 C 
BRANCH  24  25
HETATM   25  C9  UNL     1      17.066  39.495  18.039  1.00  0.00    -0.028 A 
HETATM   26  C10 UNL     1      16.768  40.045  16.786  1.00  0.00     0.096 A 
HETATM   27  N2  UNL     1      16.788  41.380  16.853  1.00  0.00    -0.365 N 
HETATM   28  C11 UNL     1      17.087  41.763  18.106  1.00  0.00     0.042 A 
ATOM     29  H2  UNL     1      16.604  42.010  16.073  1.00  0.00     0.165 HD
HETATM   30  C12 UNL     1      17.208  43.040  18.602  1.00  0.00     0.030 A 
HETATM   31  C16 UNL     1      17.257  40.611  18.830  1.00  0.00    -0.002 A 
HETATM   32  C13 UNL     1      17.533  43.139  19.953  1.00  0.00     0.002 A 
HETATM   33  C14 UNL     1      17.712  42.020  20.719  1.00  0.00     0.001 A 
HETATM   34  C15 UNL     1      17.577  40.758  20.169  1.00  0.00     0.014 A 
ENDBRANCH  24  25
ENDBRANCH   6  24
BRANCH   9  35
HETATM   35  O2  UNL     1      20.527  39.295  19.609  1.00  0.00    -0.345 OA
ATOM     36  H2  UNL     1      21.326  39.804  19.682  1.00  0.00     0.219 HD
ENDBRANCH   9  35
BRANCH   1  37
HETATM   37  C4  UNL     1      18.969  33.786  15.080  1.00  0.00     0.038 C 
BRANCH  37  38
HETATM   38  C2  UNL     1      17.754  32.962  15.195  1.00  0.00    -0.020 C 
HETATM   39  C1  UNL     1      17.848  31.711  14.329  1.00  0.00     0.009 C 
HETATM   40  C3  UNL     1      16.435  33.634  15.091  1.00  0.00     0.009 C 
ENDBRANCH  37  38
ENDBRANCH   1  37
BRANCH  10  41
HETATM   41  C19 UNL     1      20.663  39.730  16.035  1.00  0.00    -0.057 C 
HETATM   42  C20 UNL     1      21.610  39.314  14.934  1.00  0.00     0.045 C 
HETATM   43  C21 UNL     1      20.006  41.002  15.746  1.00  0.00     0.045 C 
ENDBRANCH  10  41
BRANCH  13  44
HETATM   44  O3  UNL     1      23.979  37.831  16.445  1.00  0.00    -0.345 OA
ATOM     45  H3  UNL     1      24.495  38.469  15.967  1.00  0.00     0.219 HD
ENDBRANCH  13  44
BRANCH  19  46
HETATM   46  C32 UNL     1      23.695  34.314  16.905  1.00  0.00     0.038 C 
BRANCH  46  47
HETATM   47  C33 UNL     1      23.573  34.085  15.419  1.00  0.00    -0.020 C 
HETATM   48  C34 UNL     1      24.669  34.770  14.637  1.00  0.00     0.009 C 
HETATM   49  C35 UNL     1      23.722  32.601  15.160  1.00  0.00     0.009 C 
ENDBRANCH  46  47
ENDBRANCH  19  46
BRANCH  14  50
HETATM   50  C24 UNL     1      24.892  38.511  19.719  1.00  0.00     0.062 C 
BRANCH  50  51
HETATM   51  C25 UNL     1      25.948  39.400  19.199  1.00  0.00     0.008 C 
BRANCH  51  52
HETATM   52  C26 UNL     1      27.295  38.974  19.749  1.00  0.00     0.020 C 
BRANCH  52  53
HETATM   53  C27 UNL     1      28.458  39.709  19.123  1.00  0.00     0.120 C 
BRANCH  53  54
HETATM   54  N5  UNL     1      29.557  38.745  19.050  1.00  0.00    -0.388 N 
HETATM   55  C28 UNL     1      29.586  37.685  19.781  1.00  0.00     0.185 C 
HETATM   56  N6  UNL     1      30.672  36.789  19.666  1.00  0.00    -0.097 NA
ATOM     57  H5  UNL     1      30.324  38.917  18.400  1.00  0.00     0.159 HD
ENDBRANCH  53  54
ENDBRANCH  52  53
ENDBRANCH  51  52
ENDBRANCH  50  51
ENDBRANCH  14  50
TORSDOF 14
ENDMDL
MODEL 4
REMARK VINA RESULT: -7.631948961      5.073     12.453
REMARK  14 active torsions:
REMARK  status: ('A' for Active; 'I' for Inactive)
REMARK    1  A    between atoms: C2_2  and  C4_4 
REMARK    2  A    between atoms: C4_4  and  C5_5 
REMARK    3  A    between atoms: C7_10  and  C8_11 
REMARK    4  A    between atoms: C8_11  and  C9_12 
REMARK    5  A    between atoms: C17_24  and  O2_25 
REMARK    6  A    between atoms: C18_27  and  C19_28 
REMARK    7  A    between atoms: C22_33  and  O3_34 
REMARK    8  A    between atoms: C23_36  and  C24_37 
REMARK    9  A    between atoms: C24_37  and  C25_38 
REMARK   10  A    between atoms: C25_38  and  C26_39 
REMARK   11  A    between atoms: C26_39  and  C27_40 
REMARK   12  A    between atoms: C27_40  and  N5_41 
REMARK   13  A    between atoms: C31_49  and  C32_50 
REMARK   14  A    between atoms: C32_50  and  C33_51 
ROOT
HETATM    1  C5  UNL     1      20.374  25.754   9.669  1.00  0.00     0.177 C 
HETATM    2  N1  UNL     1      19.883  24.528  10.268  1.00  0.00    -0.346 N 
ATOM      3  H1  UNL     1      20.098  23.666   9.767  1.00  0.00     0.163 HD
HETATM    4  C6  UNL     1      19.157  24.392  11.438  1.00  0.00     0.241 C 
HETATM    5  O1  UNL     1      19.554  23.503  12.272  1.00  0.00    -0.271 OA
HETATM    6  C7  UNL     1      17.938  25.181  11.853  1.00  0.00     0.180 C 
HETATM    7  N3  UNL     1      18.358  26.149  12.831  1.00  0.00    -0.356 N 
ATOM      8  H3  UNL     1      19.309  25.980  13.159  1.00  0.00     0.162 HD
HETATM    9  C17 UNL     1      17.784  27.251  13.434  1.00  0.00     0.164 C 
HETATM   10  C18 UNL     1      17.232  28.521  13.029  1.00  0.00     0.086 C 
HETATM   11  N4  UNL     1      18.010  29.717  13.274  1.00  0.00    -0.332 N 
ATOM     12  H4  UNL     1      17.405  30.480  13.578  1.00  0.00     0.168 HD
HETATM   13  C22 UNL     1      19.319  30.136  13.222  1.00  0.00     0.164 C 
HETATM   14  C23 UNL     1      20.520  30.099  14.047  1.00  0.00     0.065 C 
HETATM   15  N7  UNL     1      21.435  29.017  14.003  1.00  0.00    -0.320 N 
HETATM   16  C29 UNL     1      22.305  28.910  15.204  1.00  0.00     0.159 C 
HETATM   17  C30 UNL     1      21.690  28.047  13.043  1.00  0.00     0.246 C 
HETATM   18  O4  UNL     1      22.005  26.897  13.548  1.00  0.00    -0.271 OA
HETATM   19  C31 UNL     1      21.655  28.143  11.547  1.00  0.00     0.177 C 
HETATM   20  N8  UNL     1      22.247  26.891  11.053  1.00  0.00    -0.346 N 
ATOM     21  H8  UNL     1      23.164  26.672  11.442  1.00  0.00     0.163 HD
HETATM   22  C36 UNL     1      21.774  25.977  10.163  1.00  0.00     0.241 C 
HETATM   23  O5  UNL     1      22.631  25.163   9.647  1.00  0.00    -0.271 OA
ENDROOT
BRANCH   6  24
HETATM   24  C8  UNL     1      16.979  24.153  12.441  1.00  0.00     0.075 C 
BRANCH  24  25
HETATM   25  C9  UNL     1      16.163  23.460  11.421  1.00  0.00    -0.028 A 
HETATM   26  C10 UNL     1      15.352  22.335  11.619  1.00  0.00     0.096 A 
HETATM   27  N2  UNL     1      14.749  21.996  10.475  1.00  0.00    -0.365 N 
HETATM   28  C11 UNL     1      15.117  22.847   9.502  1.00  0.00     0.042 A 
ATOM     29  H2  UNL     1      14.108  21.211  10.359  1.00  0.00     0.165 HD
HETATM   30  C12 UNL     1      14.730  22.854   8.183  1.00  0.00     0.030 A 
HETATM   31  C16 UNL     1      15.981  23.742  10.081  1.00  0.00    -0.002 A 
HETATM   32  C13 UNL     1      15.278  23.864   7.394  1.00  0.00     0.002 A 
HETATM   33  C14 UNL     1      16.143  24.781   7.923  1.00  0.00     0.001 A 
HETATM   34  C15 UNL     1      16.500  24.728   9.260  1.00  0.00     0.014 A 
ENDBRANCH  24  25
ENDBRANCH   6  24
BRANCH   9  35
HETATM   35  O2  UNL     1      17.728  27.100  14.754  1.00  0.00    -0.345 OA
ATOM     36  H2  UNL     1      17.386  27.881  15.173  1.00  0.00     0.219 HD
ENDBRANCH   9  35
BRANCH   1  37
HETATM   37  C4  UNL     1      20.518  25.547   8.189  1.00  0.00     0.038 C 
BRANCH  37  38
HETATM   38  C2  UNL     1      19.529  26.188   7.306  1.00  0.00    -0.020 C 
HETATM   39  C1  UNL     1      20.127  26.503   5.939  1.00  0.00     0.009 C 
HETATM   40  C3  UNL     1      18.720  27.307   7.850  1.00  0.00     0.009 C 
ENDBRANCH  37  38
ENDBRANCH   1  37
BRANCH  10  41
HETATM   41  C19 UNL     1      16.418  28.629  11.766  1.00  0.00    -0.057 C 
HETATM   42  C20 UNL     1      17.235  28.620  10.496  1.00  0.00     0.045 C 
HETATM   43  C21 UNL     1      15.340  29.614  11.720  1.00  0.00     0.045 C 
ENDBRANCH  10  41
BRANCH  13  44
HETATM   44  O3  UNL     1      19.593  30.770  12.085  1.00  0.00    -0.345 OA
ATOM     45  H3  UNL     1      19.247  31.655  12.080  1.00  0.00     0.219 HD
ENDBRANCH  13  44
BRANCH  19  46
HETATM   46  C32 UNL     1      22.615  29.213  11.037  1.00  0.00     0.038 C 
BRANCH  46  47
HETATM   47  C33 UNL     1      24.030  28.695  10.953  1.00  0.00    -0.020 C 
HETATM   48  C34 UNL     1      24.764  29.215   9.739  1.00  0.00     0.009 C 
HETATM   49  C35 UNL     1      24.785  29.198  12.163  1.00  0.00     0.009 C 
ENDBRANCH  46  47
ENDBRANCH  19  46
BRANCH  14  50
HETATM   50  C24 UNL     1      20.317  30.630  15.472  1.00  0.00     0.062 C 
BRANCH  50  51
HETATM   51  C25 UNL     1      20.154  32.090  15.606  1.00  0.00     0.008 C 
BRANCH  51  52
HETATM   52  C26 UNL     1      21.451  32.788  15.249  1.00  0.00     0.020 C 
BRANCH  52  53
HETATM   53  C27 UNL     1      22.593  32.444  16.177  1.00  0.00     0.120 C 
BRANCH  53  54
HETATM   54  N5  UNL     1      23.614  33.471  15.964  1.00  0.00    -0.388 N 
HETATM   55  C28 UNL     1      24.295  33.540  14.873  1.00  0.00     0.185 C 
HETATM   56  N6  UNL     1      25.268  34.554  14.723  1.00  0.00    -0.097 NA
ATOM     57  H5  UNL     1      23.793  34.151  16.702  1.00  0.00     0.159 HD
ENDBRANCH  53  54
ENDBRANCH  52  53
ENDBRANCH  51  52
ENDBRANCH  50  51
ENDBRANCH  14  50
TORSDOF 14
ENDMDL
MODEL 5
REMARK VINA RESULT: -7.551061093      4.602     12.501
REMARK  14 active torsions:
REMARK  status: ('A' for Active; 'I' for Inactive)
REMARK    1  A    between atoms: C2_2  and  C4_4 
REMARK    2  A    between atoms: C4_4  and  C5_5 
REMARK    3  A    between atoms: C7_10  and  C8_11 
REMARK    4  A    between atoms: C8_11  and  C9_12 
REMARK    5  A    between atoms: C17_24  and  O2_25 
REMARK    6  A    between atoms: C18_27  and  C19_28 
REMARK    7  A    between atoms: C22_33  and  O3_34 
REMARK    8  A    between atoms: C23_36  and  C24_37 
REMARK    9  A    between atoms: C24_37  and  C25_38 
REMARK   10  A    between atoms: C25_38  and  C26_39 
REMARK   11  A    between atoms: C26_39  and  C27_40 
REMARK   12  A    between atoms: C27_40  and  N5_41 
REMARK   13  A    between atoms: C31_49  and  C32_50 
REMARK   14  A    between atoms: C32_50  and  C33_51 
ROOT
HETATM    1  C5  UNL     1      22.134  26.547  10.885  1.00  0.00     0.177 C 
HETATM    2  N1  UNL     1      21.764  25.220  11.335  1.00  0.00    -0.346 N 
ATOM      3  H1  UNL     1      22.393  24.462  11.069  1.00  0.00     0.163 HD
HETATM    4  C6  UNL     1      20.657  24.861  12.084  1.00  0.00     0.241 C 
HETATM    5  O1  UNL     1      20.857  24.097  13.094  1.00  0.00    -0.271 OA
HETATM    6  C7  UNL     1      19.223  25.272  11.848  1.00  0.00     0.180 C 
HETATM    7  N3  UNL     1      18.899  26.295  12.807  1.00  0.00    -0.356 N 
ATOM      8  H3  UNL     1      19.614  26.388  13.529  1.00  0.00     0.162 HD
HETATM    9  C17 UNL     1      17.856  27.181  12.986  1.00  0.00     0.164 C 
HETATM   10  C18 UNL     1      17.233  28.257  12.253  1.00  0.00     0.086 C 
HETATM   11  N4  UNL     1      17.484  29.617  12.686  1.00  0.00    -0.332 N 
ATOM     12  H4  UNL     1      16.633  30.175  12.618  1.00  0.00     0.168 HD
HETATM   13  C22 UNL     1      18.522  30.382  13.161  1.00  0.00     0.164 C 
HETATM   14  C23 UNL     1      19.197  30.660  14.422  1.00  0.00     0.065 C 
HETATM   15  N7  UNL     1      20.282  29.876  14.890  1.00  0.00    -0.320 N 
HETATM   16  C29 UNL     1      20.523  29.986  16.353  1.00  0.00     0.159 C 
HETATM   17  C30 UNL     1      21.176  29.036  14.240  1.00  0.00     0.246 C 
HETATM   18  O4  UNL     1      21.519  28.008  14.947  1.00  0.00    -0.271 OA
HETATM   19  C31 UNL     1      21.784  29.154  12.874  1.00  0.00     0.177 C 
HETATM   20  N8  UNL     1      22.835  28.126  12.817  1.00  0.00    -0.346 N 
ATOM     21  H8  UNL     1      23.506  28.161  13.583  1.00  0.00     0.163 HD
HETATM   22  C36 UNL     1      23.059  27.138  11.909  1.00  0.00     0.241 C 
HETATM   23  O5  UNL     1      24.233  26.605  11.900  1.00  0.00    -0.271 OA
ENDROOT
BRANCH   6  24
HETATM   24  C8  UNL     1      18.405  24.005  12.067  1.00  0.00     0.075 C 
BRANCH  24  25
HETATM   25  C9  UNL     1      17.389  23.773  11.017  1.00  0.00    -0.028 A 
HETATM   26  C10 UNL     1      17.482  24.134   9.667  1.00  0.00     0.096 A 
HETATM   27  N2  UNL     1      16.383  23.749   9.011  1.00  0.00    -0.365 N 
HETATM   28  C11 UNL     1      15.541  23.139   9.863  1.00  0.00     0.042 A 
ATOM     29  H2  UNL     1      16.210  23.897   8.017  1.00  0.00     0.165 HD
HETATM   30  C12 UNL     1      14.306  22.596   9.600  1.00  0.00     0.030 A 
HETATM   31  C16 UNL     1      16.156  23.153  11.088  1.00  0.00    -0.002 A 
HETATM   32  C13 UNL     1      13.649  22.024  10.687  1.00  0.00     0.002 A 
HETATM   33  C14 UNL     1      14.220  22.012  11.930  1.00  0.00     0.001 A 
HETATM   34  C15 UNL     1      15.468  22.572  12.139  1.00  0.00     0.014 A 
ENDBRANCH  24  25
ENDBRANCH   6  24
BRANCH   9  35
HETATM   35  O2  UNL     1      17.261  26.990  14.160  1.00  0.00    -0.345 OA
ATOM     36  H2  UNL     1      16.322  26.892  14.056  1.00  0.00     0.219 HD
ENDBRANCH   9  35
BRANCH   1  37
HETATM   37  C4  UNL     1      22.967  26.422   9.641  1.00  0.00     0.038 C 
BRANCH  37  38
HETATM   38  C2  UNL     1      22.662  25.318   8.717  1.00  0.00    -0.020 C 
HETATM   39  C1  UNL     1      23.764  25.141   7.679  1.00  0.00     0.009 C 
HETATM   40  C3  UNL     1      21.302  25.249   8.127  1.00  0.00     0.009 C 
ENDBRANCH  37  38
ENDBRANCH   1  37
BRANCH  10  41
HETATM   41  C19 UNL     1      17.067  28.165  10.759  1.00  0.00    -0.057 C 
HETATM   42  C20 UNL     1      16.020  27.174  10.308  1.00  0.00     0.045 C 
HETATM   43  C21 UNL     1      18.269  28.112   9.931  1.00  0.00     0.045 C 
ENDBRANCH  10  41
BRANCH  13  44
HETATM   44  O3  UNL     1      19.098  31.094  12.195  1.00  0.00    -0.345 OA
ATOM     45  H3  UNL     1      18.947  30.715  11.337  1.00  0.00     0.219 HD
ENDBRANCH  13  44
BRANCH  19  46
HETATM   46  C32 UNL     1      22.559  30.459  12.722  1.00  0.00     0.038 C 
BRANCH  46  47
HETATM   47  C33 UNL     1      22.699  31.179  14.040  1.00  0.00    -0.020 C 
HETATM   48  C34 UNL     1      24.142  31.386  14.434  1.00  0.00     0.009 C 
HETATM   49  C35 UNL     1      22.092  32.557  13.887  1.00  0.00     0.009 C 
ENDBRANCH  46  47
ENDBRANCH  19  46
BRANCH  14  50
HETATM   50  C24 UNL     1      18.254  31.082  15.557  1.00  0.00     0.062 C 
BRANCH  50  51
HETATM   51  C25 UNL     1      17.693  32.443  15.467  1.00  0.00     0.008 C 
BRANCH  51  52
HETATM   52  C26 UNL     1      18.804  33.442  15.211  1.00  0.00     0.020 C 
BRANCH  52  53
HETATM   53  C27 UNL     1      19.179  34.248  16.433  1.00  0.00     0.120 C 
BRANCH  53  54
HETATM   54  N5  UNL     1      18.054  34.129  17.361  1.00  0.00    -0.388 N 
HETATM   55  C28 UNL     1      17.304  35.133  17.657  1.00  0.00     0.185 C 
HETATM   56  N6  UNL     1      16.230  34.958  18.559  1.00  0.00    -0.097 NA
ATOM     57  H5  UNL     1      17.858  33.224  17.787  1.00  0.00     0.159 HD
ENDBRANCH  53  54
ENDBRANCH  52  53
ENDBRANCH  51  52
ENDBRANCH  50  51
ENDBRANCH  14  50
TORSDOF 14
ENDMDL
