MODEL 1
REMARK VINA RESULT: -6.217960629      0.000      0.000
REMARK  14 active torsions:
REMARK  status: ('A' for Active; 'I' for Inactive)
REMARK    1  A    between atoms: C2_2  and  C4_4 
REMARK    2  A    between atoms: C4_4  and  C5_5 
REMARK    3  A    between atoms: C7_10  and  C8_11 
REMARK    4  A    between atoms: C8_11  and  C9_12 
REMARK    5  A    between atoms: C13_19  and  C14_20 
REMARK    6  A    between atoms: C14_20  and  C15_21 
REMARK    7  A    between atoms: N4_28  and  C19_29 
REMARK    8  A    between atoms: C19_29  and  C20_30 
REMARK    9  A    between atoms: C20_30  and  C21_31 
REMARK   10  A    between atoms: C23_36  and  C24_37 
REMARK   11  A    between atoms: C24_37  and  C25_38 
REMARK   12  A    between atoms: C29_45  and  C30_46 
REMARK   13  A    between atoms: C30_46  and  C31_47 
REMARK   14  A    between atoms: C34_52  and  O7_53 
ROOT
HETATM    1  C5  UNL     1      21.692  41.076  16.778  1.00  0.00     0.159 C 
HETATM    2  N1  UNL     1      21.919  42.337  17.449  1.00  0.00    -0.347 N 
ATOM      3  H1  UNL     1      22.876  42.691  17.453  1.00  0.00     0.163 HD
HETATM    4  C6  UNL     1      20.945  43.125  18.098  1.00  0.00     0.241 C 
HETATM    5  O1  UNL     1      21.278  43.884  19.040  1.00  0.00    -0.271 OA
HETATM    6  C7  UNL     1      19.473  43.123  17.729  1.00  0.00     0.177 C 
HETATM    7  N2  UNL     1      18.760  43.524  18.924  1.00  0.00    -0.346 N 
ATOM      8  H2  UNL     1      18.735  44.525  19.114  1.00  0.00     0.163 HD
HETATM    9  C12 UNL     1      18.105  42.711  19.847  1.00  0.00     0.241 C 
HETATM   10  O2  UNL     1      16.908  42.916  20.161  1.00  0.00    -0.271 OA
HETATM   11  C13 UNL     1      18.715  41.522  20.573  1.00  0.00     0.178 C 
HETATM   12  N3  UNL     1      17.770  40.438  20.620  1.00  0.00    -0.329 N 
ATOM     13  H3  UNL     1      17.797  39.859  21.459  1.00  0.00     0.165 HD
HETATM   14  C18 UNL     1      16.811  40.078  19.654  1.00  0.00     0.325 C 
HETATM   15  O3  UNL     1      15.581  40.029  20.062  1.00  0.00    -0.247 OA
HETATM   16  N4  UNL     1      16.997  39.753  18.285  1.00  0.00    -0.268 N 
HETATM   17  C22 UNL     1      17.967  38.807  17.827  1.00  0.00     0.250 C 
HETATM   18  O5  UNL     1      18.486  39.059  16.708  1.00  0.00    -0.271 OA
HETATM   19  C23 UNL     1      18.393  37.601  18.540  1.00  0.00     0.178 C 
HETATM   20  N6  UNL     1      19.739  37.725  19.008  1.00  0.00    -0.343 N 
ATOM     21  H6  UNL     1      19.799  37.419  19.980  1.00  0.00     0.163 HD
HETATM   22  C28 UNL     1      20.967  38.122  18.570  1.00  0.00     0.264 C 
HETATM   23  O6  UNL     1      21.493  39.124  19.210  1.00  0.00    -0.266 OA
HETATM   24  C29 UNL     1      21.910  37.690  17.506  1.00  0.00     0.079 C 
HETATM   25  N7  UNL     1      22.828  38.745  17.132  1.00  0.00    -0.338 N 
ATOM     26  H7  UNL     1      23.702  38.413  16.724  1.00  0.00     0.167 HD
HETATM   27  C34 UNL     1      22.734  40.120  17.228  1.00  0.00     0.139 C 
ENDROOT
BRANCH  16  28
HETATM   28  C19 UNL     1      16.202  40.448  17.303  1.00  0.00     0.146 C 
BRANCH  28  29
HETATM   29  C20 UNL     1      16.459  41.882  17.098  1.00  0.00     0.120 C 
BRANCH  29  30
HETATM   30  C21 UNL     1      15.450  42.880  17.347  1.00  0.00     0.232 C 
HETATM   31  N5  UNL     1      14.246  42.591  18.074  1.00  0.00    -0.062 NA
HETATM   32  O4  UNL     1      15.547  44.058  16.957  1.00  0.00    -0.277 OA
ENDBRANCH  29  30
ENDBRANCH  28  29
ENDBRANCH  16  28
BRANCH  19  33
HETATM   33  C24 UNL     1      18.064  36.297  17.872  1.00  0.00     0.038 C 
BRANCH  33  34
HETATM   34  C25 UNL     1      16.584  36.131  17.726  1.00  0.00    -0.020 C 
HETATM   35  C26 UNL     1      16.059  36.375  16.349  1.00  0.00     0.009 C 
HETATM   36  C27 UNL     1      16.189  34.722  18.166  1.00  0.00     0.009 C 
ENDBRANCH  33  34
ENDBRANCH  19  33
BRANCH  11  37
HETATM   37  C14 UNL     1      19.108  42.068  21.894  1.00  0.00     0.038 C 
BRANCH  37  38
HETATM   38  C15 UNL     1      18.337  41.758  23.105  1.00  0.00    -0.020 C 
HETATM   39  C16 UNL     1      17.468  42.888  23.612  1.00  0.00     0.009 C 
HETATM   40  C17 UNL     1      19.003  41.059  24.230  1.00  0.00     0.009 C 
ENDBRANCH  37  38
ENDBRANCH  11  37
BRANCH  24  41
HETATM   41  C30 UNL     1      21.386  36.856  16.439  1.00  0.00     0.067 C 
BRANCH  41  42
HETATM   42  C31 UNL     1      21.847  35.434  16.379  1.00  0.00    -0.017 C 
HETATM   43  C32 UNL     1      21.987  34.663  17.622  1.00  0.00     0.010 C 
HETATM   44  C33 UNL     1      23.233  35.440  15.676  1.00  0.00     0.010 C 
ENDBRANCH  41  42
ENDBRANCH  24  41
BRANCH   6  45
HETATM   45  C8  UNL     1      19.281  44.182  16.672  1.00  0.00     0.038 C 
BRANCH  45  46
HETATM   46  C9  UNL     1      18.758  45.495  17.092  1.00  0.00    -0.020 C 
HETATM   47  C10 UNL     1      19.755  46.560  17.420  1.00  0.00     0.009 C 
HETATM   48  C11 UNL     1      17.944  46.038  15.901  1.00  0.00     0.009 C 
ENDBRANCH  45  46
ENDBRANCH   6  45
BRANCH  27  49
HETATM   49  O7  UNL     1      23.748  40.691  17.821  1.00  0.00    -0.348 OA
ATOM     50  H7  UNL     1      24.430  40.082  18.078  1.00  0.00     0.219 HD
ENDBRANCH  27  49
BRANCH   1  51
HETATM   51  C4  UNL     1      21.605  41.232  15.321  1.00  0.00     0.037 C 
BRANCH  51  52
HETATM   52  C2  UNL     1      22.670  40.793  14.416  1.00  0.00    -0.020 C 
HETATM   53  C1  UNL     1      23.428  41.916  13.787  1.00  0.00     0.009 C 
HETATM   54  C3  UNL     1      22.069  39.963  13.252  1.00  0.00     0.009 C 
ENDBRANCH  51  52
ENDBRANCH   1  51
TORSDOF 14
ENDMDL
MODEL 2
REMARK VINA RESULT: -6.149285649      2.073      7.109
REMARK  14 active torsions:
REMARK  status: ('A' for Active; 'I' for Inactive)
REMARK    1  A    between atoms: C2_2  and  C4_4 
REMARK    2  A    between atoms: C4_4  and  C5_5 
REMARK    3  A    between atoms: C7_10  and  C8_11 
REMARK    4  A    between atoms: C8_11  and  C9_12 
REMARK    5  A    between atoms: C13_19  and  C14_20 
REMARK    6  A    between atoms: C14_20  and  C15_21 
REMARK    7  A    between atoms: N4_28  and  C19_29 
REMARK    8  A    between atoms: C19_29  and  C20_30 
REMARK    9  A    between atoms: C20_30  and  C21_31 
REMARK   10  A    between atoms: C23_36  and  C24_37 
REMARK   11  A    between atoms: C24_37  and  C25_38 
REMARK   12  A    between atoms: C29_45  and  C30_46 
REMARK   13  A    between atoms: C30_46  and  C31_47 
REMARK   14  A    between atoms: C34_52  and  O7_53 
ROOT
HETATM    1  C5  UNL     1      18.426  40.864  19.289  1.00  0.00     0.159 C 
HETATM    2  N1  UNL     1      18.737  42.230  18.930  1.00  0.00    -0.347 N 
ATOM      3  H1  UNL     1      17.952  42.877  18.855  1.00  0.00     0.163 HD
HETATM    4  C6  UNL     1      20.022  42.754  18.672  1.00  0.00     0.241 C 
HETATM    5  O1  UNL     1      20.155  43.742  17.910  1.00  0.00    -0.271 OA
HETATM    6  C7  UNL     1      21.299  42.193  19.269  1.00  0.00     0.177 C 
HETATM    7  N2  UNL     1      22.360  42.548  18.350  1.00  0.00    -0.346 N 
ATOM      8  H2  UNL     1      22.716  43.500  18.426  1.00  0.00     0.163 HD
HETATM    9  C12 UNL     1      22.955  41.750  17.375  1.00  0.00     0.241 C 
HETATM   10  O2  UNL     1      24.199  41.599  17.327  1.00  0.00    -0.271 OA
HETATM   11  C13 UNL     1      22.221  40.990  16.281  1.00  0.00     0.178 C 
HETATM   12  N3  UNL     1      22.798  39.681  16.120  1.00  0.00    -0.329 N 
ATOM     13  H3  UNL     1      22.806  39.311  15.170  1.00  0.00     0.165 HD
HETATM   14  C18 UNL     1      23.354  38.849  17.111  1.00  0.00     0.325 C 
HETATM   15  O3  UNL     1      24.578  38.469  16.915  1.00  0.00    -0.247 OA
HETATM   16  N4  UNL     1      22.762  38.356  18.303  1.00  0.00    -0.268 N 
HETATM   17  C22 UNL     1      21.482  37.719  18.338  1.00  0.00     0.250 C 
HETATM   18  O5  UNL     1      20.805  37.917  19.382  1.00  0.00    -0.271 OA
HETATM   19  C23 UNL     1      20.910  36.880  17.284  1.00  0.00     0.178 C 
HETATM   20  N6  UNL     1      19.808  37.531  16.643  1.00  0.00    -0.343 N 
ATOM     21  H6  UNL     1      19.896  37.449  15.630  1.00  0.00     0.163 HD
HETATM   22  C28 UNL     1      18.679  38.226  16.957  1.00  0.00     0.264 C 
HETATM   23  O6  UNL     1      18.630  39.446  16.511  1.00  0.00    -0.266 OA
HETATM   24  C29 UNL     1      17.426  37.943  17.704  1.00  0.00     0.079 C 
HETATM   25  N7  UNL     1      16.787  39.155  18.174  1.00  0.00    -0.338 N 
ATOM     26  H7  UNL     1      15.784  39.064  18.333  1.00  0.00     0.167 HD
HETATM   27  C34 UNL     1      17.292  40.412  18.445  1.00  0.00     0.139 C 
ENDROOT
BRANCH  16  28
HETATM   28  C19 UNL     1      23.465  38.550  19.546  1.00  0.00     0.146 C 
BRANCH  28  29
HETATM   29  C20 UNL     1      24.509  37.579  19.907  1.00  0.00     0.120 C 
BRANCH  29  30
HETATM   30  C21 UNL     1      24.210  36.382  20.652  1.00  0.00     0.232 C 
HETATM   31  N5  UNL     1      25.204  35.686  21.419  1.00  0.00    -0.062 NA
HETATM   32  O4  UNL     1      23.077  35.869  20.690  1.00  0.00    -0.277 OA
ENDBRANCH  29  30
ENDBRANCH  28  29
ENDBRANCH  16  28
BRANCH  19  33
HETATM   33  C24 UNL     1      20.682  35.441  17.646  1.00  0.00     0.038 C 
BRANCH  33  34
HETATM   34  C25 UNL     1      21.610  34.547  16.887  1.00  0.00    -0.020 C 
HETATM   35  C26 UNL     1      22.909  34.268  17.569  1.00  0.00     0.009 C 
HETATM   36  C27 UNL     1      20.908  33.220  16.597  1.00  0.00     0.009 C 
ENDBRANCH  33  34
ENDBRANCH  19  33
BRANCH  11  37
HETATM   37  C14 UNL     1      22.328  41.872  15.094  1.00  0.00     0.038 C 
BRANCH  37  38
HETATM   38  C15 UNL     1      22.791  41.352  13.800  1.00  0.00    -0.020 C 
HETATM   39  C16 UNL     1      23.312  42.403  12.844  1.00  0.00     0.009 C 
HETATM   40  C17 UNL     1      21.968  40.349  13.084  1.00  0.00     0.009 C 
ENDBRANCH  37  38
ENDBRANCH  11  37
BRANCH  24  41
HETATM   41  C30 UNL     1      17.418  36.799  18.599  1.00  0.00     0.067 C 
BRANCH  41  42
HETATM   42  C31 UNL     1      16.716  35.561  18.137  1.00  0.00    -0.017 C 
HETATM   43  C32 UNL     1      17.503  34.413  17.667  1.00  0.00     0.010 C 
HETATM   44  C33 UNL     1      15.773  35.985  16.976  1.00  0.00     0.010 C 
ENDBRANCH  41  42
ENDBRANCH  24  41
BRANCH   6  45
HETATM   45  C8  UNL     1      21.529  42.910  20.576  1.00  0.00     0.038 C 
BRANCH  45  46
HETATM   46  C9  UNL     1      22.443  42.292  21.555  1.00  0.00    -0.020 C 
HETATM   47  C10 UNL     1      23.860  42.769  21.571  1.00  0.00     0.009 C 
HETATM   48  C11 UNL     1      21.875  42.627  22.948  1.00  0.00     0.009 C 
ENDBRANCH  45  46
ENDBRANCH   6  45
BRANCH  27  49
HETATM   49  O7  UNL     1      16.657  41.388  17.854  1.00  0.00    -0.348 OA
ATOM     50  H7  UNL     1      15.730  41.220  17.731  1.00  0.00     0.219 HD
ENDBRANCH  27  49
BRANCH   1  51
HETATM   51  C4  UNL     1      18.204  40.708  20.731  1.00  0.00     0.037 C 
BRANCH  51  52
HETATM   52  C2  UNL     1      17.870  41.836  21.604  1.00  0.00    -0.020 C 
HETATM   53  C1  UNL     1      18.307  41.654  23.021  1.00  0.00     0.009 C 
HETATM   54  C3  UNL     1      16.333  42.040  21.641  1.00  0.00     0.009 C 
ENDBRANCH  51  52
ENDBRANCH   1  51
TORSDOF 14
ENDMDL
MODEL 3
REMARK VINA RESULT: -6.066122648      2.256      7.129
REMARK  14 active torsions:
REMARK  status: ('A' for Active; 'I' for Inactive)
REMARK    1  A    between atoms: C2_2  and  C4_4 
REMARK    2  A    between atoms: C4_4  and  C5_5 
REMARK    3  A    between atoms: C7_10  and  C8_11 
REMARK    4  A    between atoms: C8_11  and  C9_12 
REMARK    5  A    between atoms: C13_19  and  C14_20 
REMARK    6  A    between atoms: C14_20  and  C15_21 
REMARK    7  A    between atoms: N4_28  and  C19_29 
REMARK    8  A    between atoms: C19_29  and  C20_30 
REMARK    9  A    between atoms: C20_30  and  C21_31 
REMARK   10  A    between atoms: C23_36  and  C24_37 
REMARK   11  A    between atoms: C24_37  and  C25_38 
REMARK   12  A    between atoms: C29_45  and  C30_46 
REMARK   13  A    between atoms: C30_46  and  C31_47 
REMARK   14  A    between atoms: C34_52  and  O7_53 
ROOT
HETATM    1  C5  UNL     1      19.777  41.960  18.689  1.00  0.00     0.159 C 
HETATM    2  N1  UNL     1      20.927  42.534  18.027  1.00  0.00    -0.347 N 
ATOM      3  H1  UNL     1      20.872  43.523  17.782  1.00  0.00     0.163 HD
HETATM    4  C6  UNL     1      22.119  41.859  17.688  1.00  0.00     0.241 C 
HETATM    5  O1  UNL     1      22.811  42.256  16.719  1.00  0.00    -0.271 OA
HETATM    6  C7  UNL     1      22.645  40.647  18.433  1.00  0.00     0.177 C 
HETATM    7  N2  UNL     1      23.459  39.916  17.484  1.00  0.00    -0.346 N 
ATOM      8  H2  UNL     1      24.406  40.268  17.344  1.00  0.00     0.163 HD
HETATM    9  C12 UNL     1      23.111  38.791  16.740  1.00  0.00     0.241 C 
HETATM   10  O2  UNL     1      23.814  37.752  16.761  1.00  0.00    -0.271 OA
HETATM   11  C13 UNL     1      21.894  38.666  15.837  1.00  0.00     0.178 C 
HETATM   12  N3  UNL     1      21.289  37.372  16.003  1.00  0.00    -0.329 N 
ATOM     13  H3  UNL     1      20.871  36.964  15.166  1.00  0.00     0.165 HD
HETATM   14  C18 UNL     1      21.203  36.597  17.175  1.00  0.00     0.325 C 
HETATM   15  O3  UNL     1      21.701  35.401  17.106  1.00  0.00    -0.247 OA
HETATM   16  N4  UNL     1      20.641  36.935  18.434  1.00  0.00    -0.268 N 
HETATM   17  C22 UNL     1      19.334  37.496  18.584  1.00  0.00     0.250 C 
HETATM   18  O5  UNL     1      19.199  38.312  19.534  1.00  0.00    -0.271 OA
HETATM   19  C23 UNL     1      18.172  37.207  17.742  1.00  0.00     0.178 C 
HETATM   20  N6  UNL     1      17.821  38.337  16.938  1.00  0.00    -0.343 N 
ATOM     21  H6  UNL     1      17.657  38.042  15.975  1.00  0.00     0.163 HD
HETATM   22  C28 UNL     1      17.635  39.682  17.049  1.00  0.00     0.264 C 
HETATM   23  O6  UNL     1      18.427  40.419  16.328  1.00  0.00    -0.266 OA
HETATM   24  C29 UNL     1      16.720  40.572  17.809  1.00  0.00     0.079 C 
HETATM   25  N7  UNL     1      17.262  41.906  17.964  1.00  0.00    -0.338 N 
ATOM     26  H7  UNL     1      16.558  42.629  18.114  1.00  0.00     0.167 HD
HETATM   27  C34 UNL     1      18.561  42.376  17.946  1.00  0.00     0.139 C 
ENDROOT
BRANCH  16  28
HETATM   28  C19 UNL     1      21.446  36.747  19.615  1.00  0.00     0.146 C 
BRANCH  28  29
HETATM   29  C20 UNL     1      22.764  36.113  19.457  1.00  0.00     0.120 C 
BRANCH  29  30
HETATM   30  C21 UNL     1      23.940  36.629  20.110  1.00  0.00     0.232 C 
HETATM   31  N5  UNL     1      24.768  35.818  20.956  1.00  0.00    -0.062 NA
HETATM   32  O4  UNL     1      24.325  37.807  19.989  1.00  0.00    -0.277 OA
ENDBRANCH  29  30
ENDBRANCH  28  29
ENDBRANCH  16  28
BRANCH  19  33
HETATM   33  C24 UNL     1      17.024  36.524  18.426  1.00  0.00     0.038 C 
BRANCH  33  34
HETATM   34  C25 UNL     1      16.628  35.281  17.693  1.00  0.00    -0.020 C 
HETATM   35  C26 UNL     1      15.671  35.497  16.567  1.00  0.00     0.009 C 
HETATM   36  C27 UNL     1      17.881  34.593  17.155  1.00  0.00     0.009 C 
ENDBRANCH  33  34
ENDBRANCH  19  33
BRANCH  11  37
HETATM   37  C14 UNL     1      22.422  38.941  14.479  1.00  0.00     0.038 C 
BRANCH  37  38
HETATM   38  C15 UNL     1      22.048  40.161  13.750  1.00  0.00    -0.020 C 
HETATM   39  C16 UNL     1      21.673  39.944  12.301  1.00  0.00     0.009 C 
HETATM   40  C17 UNL     1      22.874  41.382  13.905  1.00  0.00     0.009 C 
ENDBRANCH  37  38
ENDBRANCH  11  37
BRANCH  24  41
HETATM   41  C30 UNL     1      16.017  40.005  18.947  1.00  0.00     0.067 C 
BRANCH  41  42
HETATM   42  C31 UNL     1      15.894  40.848  20.177  1.00  0.00    -0.017 C 
HETATM   43  C32 UNL     1      16.783  40.598  21.320  1.00  0.00     0.010 C 
HETATM   44  C33 UNL     1      14.432  40.696  20.682  1.00  0.00     0.010 C 
ENDBRANCH  41  42
ENDBRANCH  24  41
BRANCH   6  45
HETATM   45  C8  UNL     1      23.532  41.159  19.540  1.00  0.00     0.038 C 
BRANCH  45  46
HETATM   46  C9  UNL     1      24.981  41.251  19.282  1.00  0.00    -0.020 C 
HETATM   47  C10 UNL     1      25.527  42.587  18.890  1.00  0.00     0.009 C 
HETATM   48  C11 UNL     1      25.681  40.887  20.605  1.00  0.00     0.009 C 
ENDBRANCH  45  46
ENDBRANCH   6  45
BRANCH  27  49
HETATM   49  O7  UNL     1      18.764  43.371  17.125  1.00  0.00    -0.348 OA
ATOM     50  H7  UNL     1      17.965  43.800  16.842  1.00  0.00     0.219 HD
ENDBRANCH  27  49
BRANCH   1  51
HETATM   51  C4  UNL     1      19.746  42.278  20.121  1.00  0.00     0.037 C 
BRANCH  51  52
HETATM   52  C2  UNL     1      20.187  43.571  20.651  1.00  0.00    -0.020 C 
HETATM   53  C1  UNL     1      21.371  43.480  21.557  1.00  0.00     0.009 C 
HETATM   54  C3  UNL     1      19.048  44.219  21.481  1.00  0.00     0.009 C 
ENDBRANCH  51  52
ENDBRANCH   1  51
TORSDOF 14
ENDMDL
MODEL 4
REMARK VINA RESULT: -5.938671275      2.856      6.960
REMARK  14 active torsions:
REMARK  status: ('A' for Active; 'I' for Inactive)
REMARK    1  A    between atoms: C2_2  and  C4_4 
REMARK    2  A    between atoms: C4_4  and  C5_5 
REMARK    3  A    between atoms: C7_10  and  C8_11 
REMARK    4  A    between atoms: C8_11  and  C9_12 
REMARK    5  A    between atoms: C13_19  and  C14_20 
REMARK    6  A    between atoms: C14_20  and  C15_21 
REMARK    7  A    between atoms: N4_28  and  C19_29 
REMARK    8  A    between atoms: C19_29  and  C20_30 
REMARK    9  A    between atoms: C20_30  and  C21_31 
REMARK   10  A    between atoms: C23_36  and  C24_37 
REMARK   11  A    between atoms: C24_37  and  C25_38 
REMARK   12  A    between atoms: C29_45  and  C30_46 
REMARK   13  A    between atoms: C30_46  and  C31_47 
REMARK   14  A    between atoms: C34_52  and  O7_53 
ROOT
HETATM    1  C5  UNL     1      20.863  38.486  17.529  1.00  0.00     0.159 C 
HETATM    2  N1  UNL     1      20.112  38.944  16.382  1.00  0.00    -0.347 N 
ATOM      3  H1  UNL     1      19.852  38.239  15.691  1.00  0.00     0.163 HD
HETATM    4  C6  UNL     1      19.704  40.270  16.125  1.00  0.00     0.241 C 
HETATM    5  O1  UNL     1      19.528  40.654  14.943  1.00  0.00    -0.271 OA
HETATM    6  C7  UNL     1      19.455  41.303  17.208  1.00  0.00     0.177 C 
HETATM    7  N2  UNL     1      19.666  42.594  16.586  1.00  0.00    -0.346 N 
ATOM      8  H2  UNL     1      18.890  42.955  16.032  1.00  0.00     0.163 HD
HETATM    9  C12 UNL     1      20.797  43.405  16.652  1.00  0.00     0.241 C 
HETATM   10  O2  UNL     1      20.719  44.604  17.009  1.00  0.00    -0.271 OA
HETATM   11  C13 UNL     1      22.217  42.976  16.314  1.00  0.00     0.178 C 
HETATM   12  N3  UNL     1      23.136  43.519  17.278  1.00  0.00    -0.329 N 
ATOM     13  H3  UNL     1      24.056  43.778  16.921  1.00  0.00     0.165 HD
HETATM   14  C18 UNL     1      22.926  43.737  18.653  1.00  0.00     0.325 C 
HETATM   15  O3  UNL     1      23.113  44.950  19.073  1.00  0.00    -0.247 OA
HETATM   16  N4  UNL     1      22.538  42.814  19.659  1.00  0.00    -0.268 N 
HETATM   17  C22 UNL     1      23.178  41.550  19.852  1.00  0.00     0.250 C 
HETATM   18  O5  UNL     1      22.429  40.616  20.244  1.00  0.00    -0.271 OA
HETATM   19  C23 UNL     1      24.597  41.262  19.633  1.00  0.00     0.178 C 
HETATM   20  N6  UNL     1      24.784  40.414  18.496  1.00  0.00    -0.343 N 
ATOM     21  H6  UNL     1      25.533  40.779  17.908  1.00  0.00     0.163 HD
HETATM   22  C28 UNL     1      24.279  39.273  17.949  1.00  0.00     0.264 C 
HETATM   23  O6  UNL     1      23.752  39.403  16.767  1.00  0.00    -0.266 OA
HETATM   24  C29 UNL     1      24.172  37.849  18.362  1.00  0.00     0.079 C 
HETATM   25  N7  UNL     1      23.114  37.156  17.656  1.00  0.00    -0.338 N 
ATOM     26  H7  UNL     1      23.240  36.146  17.601  1.00  0.00     0.167 HD
HETATM   27  C34 UNL     1      21.964  37.617  17.045  1.00  0.00     0.139 C 
ENDROOT
BRANCH  16  28
HETATM   28  C19 UNL     1      21.412  43.147  20.495  1.00  0.00     0.146 C 
BRANCH  28  29
HETATM   29  C20 UNL     1      21.666  43.415  21.919  1.00  0.00     0.120 C 
BRANCH  29  30
HETATM   30  C21 UNL     1      21.442  42.416  22.933  1.00  0.00     0.232 C 
HETATM   31  N5  UNL     1      20.125  42.015  23.340  1.00  0.00    -0.062 NA
HETATM   32  O4  UNL     1      22.366  41.828  23.525  1.00  0.00    -0.277 OA
ENDBRANCH  29  30
ENDBRANCH  28  29
ENDBRANCH  16  28
BRANCH  19  33
HETATM   33  C24 UNL     1      25.381  40.881  20.855  1.00  0.00     0.038 C 
BRANCH  33  34
HETATM   34  C25 UNL     1      26.729  40.352  20.479  1.00  0.00    -0.020 C 
HETATM   35  C26 UNL     1      27.811  41.381  20.423  1.00  0.00     0.009 C 
HETATM   36  C27 UNL     1      27.135  39.258  21.465  1.00  0.00     0.009 C 
ENDBRANCH  33  34
ENDBRANCH  19  33
BRANCH  11  37
HETATM   37  C14 UNL     1      22.415  43.449  14.923  1.00  0.00     0.038 C 
BRANCH  37  38
HETATM   38  C15 UNL     1      23.122  42.625  13.933  1.00  0.00    -0.020 C 
HETATM   39  C16 UNL     1      23.313  43.279  12.583  1.00  0.00     0.009 C 
HETATM   40  C17 UNL     1      22.751  41.198  13.781  1.00  0.00     0.009 C 
ENDBRANCH  37  38
ENDBRANCH  11  37
BRANCH  24  41
HETATM   41  C30 UNL     1      24.342  37.541  19.771  1.00  0.00     0.067 C 
BRANCH  41  42
HETATM   42  C31 UNL     1      24.235  36.108  20.187  1.00  0.00    -0.017 C 
HETATM   43  C32 UNL     1      22.928  35.560  20.573  1.00  0.00     0.010 C 
HETATM   44  C33 UNL     1      25.196  35.916  21.393  1.00  0.00     0.010 C 
ENDBRANCH  41  42
ENDBRANCH  24  41
BRANCH   6  45
HETATM   45  C8  UNL     1      18.004  41.187  17.604  1.00  0.00     0.038 C 
BRANCH  45  46
HETATM   46  C9  UNL     1      17.687  40.560  18.901  1.00  0.00    -0.020 C 
HETATM   47  C10 UNL     1      18.526  40.949  20.077  1.00  0.00     0.009 C 
HETATM   48  C11 UNL     1      16.251  40.995  19.252  1.00  0.00     0.009 C 
ENDBRANCH  45  46
ENDBRANCH   6  45
BRANCH  27  49
HETATM   49  O7  UNL     1      21.810  37.216  15.812  1.00  0.00    -0.348 OA
ATOM     50  H7  UNL     1      22.518  37.479  15.235  1.00  0.00     0.219 HD
ENDBRANCH  27  49
BRANCH   1  51
HETATM   51  C4  UNL     1      20.003  37.862  18.541  1.00  0.00     0.037 C 
BRANCH  51  52
HETATM   52  C2  UNL     1      19.108  36.743  18.233  1.00  0.00    -0.020 C 
HETATM   53  C1  UNL     1      17.681  36.995  18.595  1.00  0.00     0.009 C 
HETATM   54  C3  UNL     1      19.545  35.482  19.022  1.00  0.00     0.009 C 
ENDBRANCH  51  52
ENDBRANCH   1  51
TORSDOF 14
ENDMDL
MODEL 5
REMARK VINA RESULT: -5.938514993      1.259      1.512
REMARK  14 active torsions:
REMARK  status: ('A' for Active; 'I' for Inactive)
REMARK    1  A    between atoms: C2_2  and  C4_4 
REMARK    2  A    between atoms: C4_4  and  C5_5 
REMARK    3  A    between atoms: C7_10  and  C8_11 
REMARK    4  A    between atoms: C8_11  and  C9_12 
REMARK    5  A    between atoms: C13_19  and  C14_20 
REMARK    6  A    between atoms: C14_20  and  C15_21 
REMARK    7  A    between atoms: N4_28  and  C19_29 
REMARK    8  A    between atoms: C19_29  and  C20_30 
REMARK    9  A    between atoms: C20_30  and  C21_31 
REMARK   10  A    between atoms: C23_36  and  C24_37 
REMARK   11  A    between atoms: C24_37  and  C25_38 
REMARK   12  A    between atoms: C29_45  and  C30_46 
REMARK   13  A    between atoms: C30_46  and  C31_47 
REMARK   14  A    between atoms: C34_52  and  O7_53 
ROOT
HETATM    1  C5  UNL     1      22.169  39.998  18.023  1.00  0.00     0.159 C 
HETATM    2  N1  UNL     1      22.454  41.049  18.974  1.00  0.00    -0.347 N 
ATOM      3  H1  UNL     1      23.402  41.085  19.350  1.00  0.00     0.163 HD
HETATM    4  C6  UNL     1      21.548  42.030  19.432  1.00  0.00     0.241 C 
HETATM    5  O1  UNL     1      21.703  42.546  20.566  1.00  0.00    -0.271 OA
HETATM    6  C7  UNL     1      20.360  42.524  18.629  1.00  0.00     0.177 C 
HETATM    7  N2  UNL     1      19.393  43.000  19.597  1.00  0.00    -0.346 N 
ATOM      8  H2  UNL     1      19.558  43.935  19.970  1.00  0.00     0.163 HD
HETATM    9  C12 UNL     1      18.265  42.341  20.081  1.00  0.00     0.241 C 
HETATM   10  O2  UNL     1      17.131  42.875  20.040  1.00  0.00    -0.271 OA
HETATM   11  C13 UNL     1      18.247  40.953  20.702  1.00  0.00     0.178 C 
HETATM   12  N3  UNL     1      17.104  40.218  20.228  1.00  0.00    -0.329 N 
ATOM     13  H3  UNL     1      16.679  39.575  20.896  1.00  0.00     0.165 HD
HETATM   14  C18 UNL     1      16.500  40.276  18.958  1.00  0.00     0.325 C 
HETATM   15  O3  UNL     1      15.236  40.570  18.941  1.00  0.00    -0.247 OA
HETATM   16  N4  UNL     1      17.075  40.053  17.680  1.00  0.00    -0.268 N 
HETATM   17  C22 UNL     1      17.867  38.904  17.366  1.00  0.00     0.250 C 
HETATM   18  O5  UNL     1      18.800  39.097  16.542  1.00  0.00    -0.271 OA
HETATM   19  C23 UNL     1      17.685  37.559  17.913  1.00  0.00     0.178 C 
HETATM   20  N6  UNL     1      18.756  37.209  18.795  1.00  0.00    -0.343 N 
ATOM     21  H6  UNL     1      18.383  36.801  19.652  1.00  0.00     0.163 HD
HETATM   22  C28 UNL     1      20.117  37.248  18.853  1.00  0.00     0.264 C 
HETATM   23  O6  UNL     1      20.616  37.964  19.817  1.00  0.00    -0.266 OA
HETATM   24  C29 UNL     1      21.235  36.656  18.074  1.00  0.00     0.079 C 
HETATM   25  N7  UNL     1      22.464  37.406  18.230  1.00  0.00    -0.338 N 
ATOM     26  H7  UNL     1      23.310  36.862  18.057  1.00  0.00     0.167 HD
HETATM   27  C34 UNL     1      22.697  38.724  18.571  1.00  0.00     0.139 C 
ENDROOT
BRANCH  16  28
HETATM   28  C19 UNL     1      16.892  41.059  16.663  1.00  0.00     0.146 C 
BRANCH  28  29
HETATM   29  C20 UNL     1      17.203  42.454  17.010  1.00  0.00     0.120 C 
BRANCH  29  30
HETATM   30  C21 UNL     1      16.282  43.528  16.741  1.00  0.00     0.232 C 
HETATM   31  N5  UNL     1      15.078  43.717  17.500  1.00  0.00    -0.062 NA
HETATM   32  O4  UNL     1      16.460  44.369  15.840  1.00  0.00    -0.277 OA
ENDBRANCH  29  30
ENDBRANCH  28  29
ENDBRANCH  16  28
BRANCH  19  33
HETATM   33  C24 UNL     1      17.296  36.499  16.924  1.00  0.00     0.038 C 
BRANCH  33  34
HETATM   34  C25 UNL     1      17.105  35.180  17.603  1.00  0.00    -0.020 C 
HETATM   35  C26 UNL     1      15.692  34.697  17.649  1.00  0.00     0.009 C 
HETATM   36  C27 UNL     1      17.967  34.125  16.909  1.00  0.00     0.009 C 
ENDBRANCH  33  34
ENDBRANCH  19  33
BRANCH  11  37
HETATM   37  C14 UNL     1      18.265  41.210  22.162  1.00  0.00     0.038 C 
BRANCH  37  38
HETATM   38  C15 UNL     1      17.093  40.920  23.000  1.00  0.00    -0.020 C 
HETATM   39  C16 UNL     1      16.320  42.138  23.454  1.00  0.00     0.009 C 
HETATM   40  C17 UNL     1      17.213  39.931  24.097  1.00  0.00     0.009 C 
ENDBRANCH  37  38
ENDBRANCH  11  37
BRANCH  24  41
HETATM   41  C30 UNL     1      20.935  36.141  16.749  1.00  0.00     0.067 C 
BRANCH  41  42
HETATM   42  C31 UNL     1      21.629  34.888  16.318  1.00  0.00    -0.017 C 
HETATM   43  C32 UNL     1      22.013  33.888  17.323  1.00  0.00     0.010 C 
HETATM   44  C33 UNL     1      22.923  35.324  15.576  1.00  0.00     0.010 C 
ENDBRANCH  41  42
ENDBRANCH  24  41
BRANCH   6  45
HETATM   45  C8  UNL     1      20.838  43.693  17.805  1.00  0.00     0.038 C 
BRANCH  45  46
HETATM   46  C9  UNL     1      19.852  44.721  17.422  1.00  0.00    -0.020 C 
HETATM   47  C10 UNL     1      20.058  46.104  17.953  1.00  0.00     0.009 C 
HETATM   48  C11 UNL     1      19.933  44.847  15.888  1.00  0.00     0.009 C 
ENDBRANCH  45  46
ENDBRANCH   6  45
BRANCH  27  49
HETATM   49  O7  UNL     1      23.539  38.887  19.555  1.00  0.00    -0.348 OA
ATOM     50  H7  UNL     1      23.495  38.200  20.211  1.00  0.00     0.219 HD
ENDBRANCH  27  49
BRANCH   1  51
HETATM   51  C4  UNL     1      22.653  40.323  16.677  1.00  0.00     0.037 C 
BRANCH  51  52
HETATM   52  C2  UNL     1      21.749  40.652  15.572  1.00  0.00    -0.020 C 
HETATM   53  C1  UNL     1      21.703  39.613  14.499  1.00  0.00     0.009 C 
HETATM   54  C3  UNL     1      22.203  41.968  14.889  1.00  0.00     0.009 C 
ENDBRANCH  51  52
ENDBRANCH   1  51
TORSDOF 14
ENDMDL
