MODEL 1
REMARK VINA RESULT: -6.430230373      0.000      0.000
REMARK  14 active torsions:
REMARK  status: ('A' for Active; 'I' for Inactive)
REMARK    1  A    between atoms: C2_2  and  C4_4 
REMARK    2  A    between atoms: C4_4  and  C5_5 
REMARK    3  A    between atoms: C7_10  and  C8_11 
REMARK    4  A    between atoms: C8_11  and  C9_12 
REMARK       I    between atoms: C9_12  and  N2_14 
REMARK    5  A    between atoms: N2_14  and  C10_16 
REMARK    6  A    between atoms: C14_20  and  C15_21 
REMARK    7  A    between atoms: C15_21  and  C16_22 
REMARK    8  A    between atoms: C24_35  and  O3_36 
REMARK    9  A    between atoms: C25_38  and  C26_39 
REMARK   10  A    between atoms: C31_46  and  C32_47 
REMARK   11  A    between atoms: C32_47  and  C33_48 
REMARK   12  A    between atoms: C33_48  and  C34_49 
REMARK   13  A    between atoms: C34_49  and  C35_50 
REMARK   14  A    between atoms: C35_50  and  N7_51 
ROOT
HETATM    1  C5  UNL     1      18.979  42.042  18.777  1.00  0.00     0.177 C 
HETATM    2  N1  UNL     1      19.026  41.389  17.494  1.00  0.00    -0.347 N 
ATOM      3  H1  UNL     1      19.544  41.945  16.814  1.00  0.00     0.163 HD
HETATM    4  C6  UNL     1      18.565  40.227  16.936  1.00  0.00     0.226 C 
HETATM    5  O1  UNL     1      17.901  40.203  15.865  1.00  0.00    -0.273 OA
HETATM    6  C7  UNL     1      18.733  38.781  17.449  1.00  0.00     0.111 C 
HETATM    7  C13 UNL     1      19.696  38.617  18.487  1.00  0.00     0.013 C 
HETATM    8  C14 UNL     1      20.970  37.785  18.313  1.00  0.00     0.012 C 
HETATM    9  N5  UNL     1      22.116  38.419  18.850  1.00  0.00    -0.339 N 
ATOM     10  H5  UNL     1      22.557  37.785  19.517  1.00  0.00     0.168 HD
HETATM   11  C24 UNL     1      22.846  39.572  18.796  1.00  0.00     0.164 C 
HETATM   12  C25 UNL     1      23.542  40.381  17.804  1.00  0.00     0.068 C 
HETATM   13  N6  UNL     1      22.826  41.415  17.103  1.00  0.00    -0.320 N 
HETATM   14  C29 UNL     1      22.321  41.001  15.757  1.00  0.00     0.159 C 
HETATM   15  C30 UNL     1      22.536  42.739  17.460  1.00  0.00     0.246 C 
HETATM   16  O4  UNL     1      22.862  43.663  16.611  1.00  0.00    -0.271 OA
HETATM   17  C31 UNL     1      21.904  43.332  18.663  1.00  0.00     0.177 C 
HETATM   18  N8  UNL     1      20.620  43.949  18.286  1.00  0.00    -0.346 N 
ATOM     19  H8  UNL     1      20.690  44.810  17.743  1.00  0.00     0.163 HD
HETATM   20  C36 UNL     1      19.330  43.524  18.563  1.00  0.00     0.241 C 
HETATM   21  O5  UNL     1      18.371  44.288  18.659  1.00  0.00    -0.271 OA
ENDROOT
BRANCH   8  22
HETATM   22  C15 UNL     1      21.030  37.073  17.020  1.00  0.00     0.099 C 
BRANCH  22  23
HETATM   23  C16 UNL     1      21.072  35.615  16.987  1.00  0.00    -0.008 A 
HETATM   24  C17 UNL     1      20.063  34.798  17.584  1.00  0.00     0.098 A 
HETATM   25  N3  UNL     1      20.321  33.523  17.365  1.00  0.00    -0.363 N 
HETATM   26  C18 UNL     1      21.453  33.423  16.651  1.00  0.00     0.059 A 
ATOM     27  H3  UNL     1      19.752  32.740  17.686  1.00  0.00     0.165 HD
HETATM   28  C19 UNL     1      22.110  32.308  16.202  1.00  0.00     0.033 A 
HETATM   29  C23 UNL     1      21.931  34.721  16.410  1.00  0.00     0.069 A 
HETATM   30  C20 UNL     1      23.273  32.499  15.500  1.00  0.00     0.020 A 
HETATM   31  C21 UNL     1      23.722  33.775  15.280  1.00  0.00     0.091 A 
HETATM   32  N4  UNL     1      23.072  34.897  15.725  1.00  0.00    -0.359 N 
HETATM   33  C22 UNL     1      23.627  36.194  15.490  1.00  0.00     0.156 C 
ENDBRANCH  22  23
ENDBRANCH   8  22
BRANCH   6  34
HETATM   34  C8  UNL     1      17.356  38.331  17.673  1.00  0.00     0.120 C 
BRANCH  34  35
HETATM   35  C9  UNL     1      17.127  36.897  17.861  1.00  0.00     0.218 C 
HETATM   36  O2  UNL     1      17.172  36.392  19.000  1.00  0.00    -0.274 OA
HETATM   37  N2  UNL     1      16.843  36.055  16.730  1.00  0.00    -0.357 N 
ATOM     38  H2  UNL     1      16.819  36.488  15.807  1.00  0.00     0.162 HD
BRANCH  37  39
HETATM   39  C10 UNL     1      16.595  34.662  16.816  1.00  0.00     0.076 C 
HETATM   40  C11 UNL     1      15.125  34.320  16.833  1.00  0.00     0.032 C 
HETATM   41  C12 UNL     1      17.110  34.013  15.490  1.00  0.00     0.032 C 
ENDBRANCH  37  39
ENDBRANCH  34  35
ENDBRANCH   6  34
BRANCH  11  42
HETATM   42  O3  UNL     1      22.970  40.146  19.991  1.00  0.00    -0.345 OA
ATOM     43  H3  UNL     1      23.703  39.794  20.484  1.00  0.00     0.219 HD
ENDBRANCH  11  42
BRANCH  12  44
HETATM   44  C26 UNL     1      24.967  40.717  18.187  1.00  0.00     0.032 C 
HETATM   45  C27 UNL     1      25.805  41.469  17.271  1.00  0.00     0.016 C 
HETATM   46  C28 UNL     1      25.669  39.399  18.565  1.00  0.00     0.016 C 
ENDBRANCH  12  44
BRANCH   1  47
HETATM   47  C4  UNL     1      17.720  41.922  19.525  1.00  0.00     0.038 C 
BRANCH  47  48
HETATM   48  C2  UNL     1      17.712  40.870  20.603  1.00  0.00    -0.020 C 
HETATM   49  C1  UNL     1      16.366  40.173  20.713  1.00  0.00     0.009 C 
HETATM   50  C3  UNL     1      18.133  41.445  21.940  1.00  0.00     0.009 C 
ENDBRANCH  47  48
ENDBRANCH   1  47
BRANCH  17  51
HETATM   51  C32 UNL     1      22.763  44.557  19.065  1.00  0.00     0.035 C 
BRANCH  51  52
HETATM   52  C33 UNL     1      23.566  44.213  20.329  1.00  0.00     0.004 C 
BRANCH  52  53
HETATM   53  C34 UNL     1      25.013  43.993  20.045  1.00  0.00     0.027 C 
BRANCH  53  54
HETATM   54  C35 UNL     1      25.667  42.986  20.969  1.00  0.00     0.229 C 
BRANCH  54  55
HETATM   55  N7  UNL     1      24.588  42.166  21.520  1.00  0.00    -0.079 N 
ATOM     56  H73 UNL     1      23.894  42.707  22.037  1.00  0.00     0.274 HD
ATOM     57  H72 UNL     1      23.957  41.797  20.809  1.00  0.00     0.274 HD
ATOM     58  H71 UNL     1      25.034  41.439  22.081  1.00  0.00     0.274 HD
ENDBRANCH  54  55
ENDBRANCH  53  54
ENDBRANCH  52  53
ENDBRANCH  51  52
ENDBRANCH  17  51
TORSDOF 14
ENDMDL
MODEL 2
REMARK VINA RESULT: -6.385883338      1.213      1.364
REMARK  14 active torsions:
REMARK  status: ('A' for Active; 'I' for Inactive)
REMARK    1  A    between atoms: C2_2  and  C4_4 
REMARK    2  A    between atoms: C4_4  and  C5_5 
REMARK    3  A    between atoms: C7_10  and  C8_11 
REMARK    4  A    between atoms: C8_11  and  C9_12 
REMARK       I    between atoms: C9_12  and  N2_14 
REMARK    5  A    between atoms: N2_14  and  C10_16 
REMARK    6  A    between atoms: C14_20  and  C15_21 
REMARK    7  A    between atoms: C15_21  and  C16_22 
REMARK    8  A    between atoms: C24_35  and  O3_36 
REMARK    9  A    between atoms: C25_38  and  C26_39 
REMARK   10  A    between atoms: C31_46  and  C32_47 
REMARK   11  A    between atoms: C32_47  and  C33_48 
REMARK   12  A    between atoms: C33_48  and  C34_49 
REMARK   13  A    between atoms: C34_49  and  C35_50 
REMARK   14  A    between atoms: C35_50  and  N7_51 
ROOT
HETATM    1  C5  UNL     1      18.197  41.208  19.298  1.00  0.00     0.177 C 
HETATM    2  N1  UNL     1      18.112  40.558  18.015  1.00  0.00    -0.347 N 
ATOM      3  H1  UNL     1      18.402  41.184  17.263  1.00  0.00     0.163 HD
HETATM    4  C6  UNL     1      17.750  39.331  17.528  1.00  0.00     0.226 C 
HETATM    5  O1  UNL     1      16.914  39.189  16.595  1.00  0.00    -0.273 OA
HETATM    6  C7  UNL     1      18.239  37.936  17.972  1.00  0.00     0.111 C 
HETATM    7  C13 UNL     1      19.389  37.941  18.815  1.00  0.00     0.013 C 
HETATM    8  C14 UNL     1      20.727  37.324  18.395  1.00  0.00     0.012 C 
HETATM    9  N5  UNL     1      21.835  38.140  18.726  1.00  0.00    -0.339 N 
ATOM     10  H5  UNL     1      22.487  37.593  19.289  1.00  0.00     0.168 HD
HETATM   11  C24 UNL     1      22.347  39.396  18.563  1.00  0.00     0.164 C 
HETATM   12  C25 UNL     1      22.711  40.296  17.477  1.00  0.00     0.068 C 
HETATM   13  N6  UNL     1      21.723  41.194  16.939  1.00  0.00    -0.320 N 
HETATM   14  C29 UNL     1      21.053  40.690  15.699  1.00  0.00     0.159 C 
HETATM   15  C30 UNL     1      21.294  42.457  17.369  1.00  0.00     0.246 C 
HETATM   16  O4  UNL     1      21.306  43.413  16.493  1.00  0.00    -0.271 OA
HETATM   17  C31 UNL     1      20.805  42.953  18.679  1.00  0.00     0.177 C 
HETATM   18  N8  UNL     1      19.391  43.349  18.553  1.00  0.00    -0.346 N 
ATOM     19  H8  UNL     1      19.222  44.205  18.025  1.00  0.00     0.163 HD
HETATM   20  C36 UNL     1      18.260  42.724  19.053  1.00  0.00     0.241 C 
HETATM   21  O5  UNL     1      17.224  43.325  19.337  1.00  0.00    -0.271 OA
ENDROOT
BRANCH   8  22
HETATM   22  C15 UNL     1      20.663  36.618  17.098  1.00  0.00     0.099 C 
BRANCH  22  23
HETATM   23  C16 UNL     1      21.363  35.351  16.918  1.00  0.00    -0.008 A 
HETATM   24  C17 UNL     1      20.893  34.121  17.473  1.00  0.00     0.098 A 
HETATM   25  N3  UNL     1      21.685  33.128  17.117  1.00  0.00    -0.363 N 
HETATM   26  C18 UNL     1      22.674  33.612  16.350  1.00  0.00     0.059 A 
ATOM     27  H3  UNL     1      21.565  32.151  17.381  1.00  0.00     0.165 HD
HETATM   28  C19 UNL     1      23.727  32.962  15.764  1.00  0.00     0.033 A 
HETATM   29  C23 UNL     1      22.485  34.998  16.219  1.00  0.00     0.069 A 
HETATM   30  C20 UNL     1      24.612  33.716  15.037  1.00  0.00     0.020 A 
HETATM   31  C21 UNL     1      24.409  35.067  14.926  1.00  0.00     0.091 A 
HETATM   32  N4  UNL     1      23.357  35.728  15.507  1.00  0.00    -0.359 N 
HETATM   33  C22 UNL     1      23.238  37.148  15.380  1.00  0.00     0.156 C 
ENDBRANCH  22  23
ENDBRANCH   8  22
BRANCH   6  34
HETATM   34  C8  UNL     1      17.017  37.272  18.435  1.00  0.00     0.120 C 
BRANCH  34  35
HETATM   35  C9  UNL     1      16.827  35.865  18.079  1.00  0.00     0.218 C 
HETATM   36  O2  UNL     1      16.221  35.094  18.848  1.00  0.00    -0.274 OA
HETATM   37  N2  UNL     1      17.336  35.357  16.834  1.00  0.00    -0.357 N 
ATOM     38  H2  UNL     1      17.836  36.004  16.223  1.00  0.00     0.162 HD
BRANCH  37  39
HETATM   39  C10 UNL     1      17.189  34.016  16.400  1.00  0.00     0.076 C 
HETATM   40  C11 UNL     1      15.832  33.730  15.804  1.00  0.00     0.032 C 
HETATM   41  C12 UNL     1      18.170  33.802  15.201  1.00  0.00     0.032 C 
ENDBRANCH  37  39
ENDBRANCH  34  35
ENDBRANCH   6  34
BRANCH  11  42
HETATM   42  O3  UNL     1      22.594  39.994  19.726  1.00  0.00    -0.345 OA
ATOM     43  H3  UNL     1      23.449  40.409  19.743  1.00  0.00     0.219 HD
ENDBRANCH  11  42
BRANCH  12  44
HETATM   44  C26 UNL     1      24.109  40.862  17.601  1.00  0.00     0.032 C 
HETATM   45  C27 UNL     1      24.647  41.701  16.546  1.00  0.00     0.016 C 
HETATM   46  C28 UNL     1      25.066  39.683  17.860  1.00  0.00     0.016 C 
ENDBRANCH  12  44
BRANCH   1  47
HETATM   47  C4  UNL     1      17.131  40.893  20.260  1.00  0.00     0.038 C 
BRANCH  47  48
HETATM   48  C2  UNL     1      17.592  40.665  21.675  1.00  0.00    -0.020 C 
HETATM   49  C1  UNL     1      16.429  40.579  22.649  1.00  0.00     0.009 C 
HETATM   50  C3  UNL     1      18.585  41.723  22.112  1.00  0.00     0.009 C 
ENDBRANCH  47  48
ENDBRANCH   1  47
BRANCH  17  51
HETATM   51  C32 UNL     1      21.515  44.304  18.942  1.00  0.00     0.035 C 
BRANCH  51  52
HETATM   52  C33 UNL     1      22.466  44.146  20.137  1.00  0.00     0.004 C 
BRANCH  52  53
HETATM   53  C34 UNL     1      21.801  43.529  21.320  1.00  0.00     0.027 C 
BRANCH  53  54
HETATM   54  C35 UNL     1      22.698  42.587  22.098  1.00  0.00     0.229 C 
BRANCH  54  55
HETATM   55  N7  UNL     1      23.777  42.196  21.191  1.00  0.00    -0.079 N 
ATOM     56  H73 UNL     1      23.812  42.758  20.340  1.00  0.00     0.274 HD
ATOM     57  H72 UNL     1      24.705  42.437  21.540  1.00  0.00     0.274 HD
ATOM     58  H71 UNL     1      23.659  41.199  21.012  1.00  0.00     0.274 HD
ENDBRANCH  54  55
ENDBRANCH  53  54
ENDBRANCH  52  53
ENDBRANCH  51  52
ENDBRANCH  17  51
TORSDOF 14
ENDMDL
MODEL 3
REMARK VINA RESULT: -6.180105335      9.532     15.156
REMARK  14 active torsions:
REMARK  status: ('A' for Active; 'I' for Inactive)
REMARK    1  A    between atoms: C2_2  and  C4_4 
REMARK    2  A    between atoms: C4_4  and  C5_5 
REMARK    3  A    between atoms: C7_10  and  C8_11 
REMARK    4  A    between atoms: C8_11  and  C9_12 
REMARK       I    between atoms: C9_12  and  N2_14 
REMARK    5  A    between atoms: N2_14  and  C10_16 
REMARK    6  A    between atoms: C14_20  and  C15_21 
REMARK    7  A    between atoms: C15_21  and  C16_22 
REMARK    8  A    between atoms: C24_35  and  O3_36 
REMARK    9  A    between atoms: C25_38  and  C26_39 
REMARK   10  A    between atoms: C31_46  and  C32_47 
REMARK   11  A    between atoms: C32_47  and  C33_48 
REMARK   12  A    between atoms: C33_48  and  C34_49 
REMARK   13  A    between atoms: C34_49  and  C35_50 
REMARK   14  A    between atoms: C35_50  and  N7_51 
ROOT
HETATM    1  C5  UNL     1      22.033  28.718  11.584  1.00  0.00     0.177 C 
HETATM    2  N1  UNL     1      21.579  27.464  12.131  1.00  0.00    -0.347 N 
ATOM      3  H1  UNL     1      21.256  27.574  13.092  1.00  0.00     0.163 HD
HETATM    4  C6  UNL     1      21.463  26.165  11.714  1.00  0.00     0.226 C 
HETATM    5  O1  UNL     1      21.932  25.196  12.369  1.00  0.00    -0.273 OA
HETATM    6  C7  UNL     1      20.783  25.621  10.439  1.00  0.00     0.111 C 
HETATM    7  C13 UNL     1      19.963  26.558   9.746  1.00  0.00     0.013 C 
HETATM    8  C14 UNL     1      18.450  26.378   9.587  1.00  0.00     0.012 C 
HETATM    9  N5  UNL     1      17.729  27.574   9.812  1.00  0.00    -0.339 N 
ATOM     10  H5  UNL     1      17.149  27.765   8.995  1.00  0.00     0.168 HD
HETATM   11  C24 UNL     1      17.528  28.566  10.730  1.00  0.00     0.164 C 
HETATM   12  C25 UNL     1      17.110  28.702  12.119  1.00  0.00     0.068 C 
HETATM   13  N6  UNL     1      18.097  28.649  13.165  1.00  0.00    -0.320 N 
HETATM   14  C29 UNL     1      18.233  27.303  13.806  1.00  0.00     0.159 C 
HETATM   15  C30 UNL     1      18.937  29.639  13.691  1.00  0.00     0.246 C 
HETATM   16  O4  UNL     1      18.918  29.806  14.977  1.00  0.00    -0.271 OA
HETATM   17  C31 UNL     1      19.890  30.581  13.054  1.00  0.00     0.177 C 
HETATM   18  N8  UNL     1      21.260  30.254  13.484  1.00  0.00    -0.346 N 
ATOM     19  H8  UNL     1      21.483  30.486  14.452  1.00  0.00     0.163 HD
HETATM   20  C36 UNL     1      22.290  29.676  12.759  1.00  0.00     0.241 C 
HETATM   21  O5  UNL     1      23.481  29.879  12.993  1.00  0.00    -0.271 OA
ENDROOT
BRANCH   8  22
HETATM   22  C15 UNL     1      17.959  25.084  10.105  1.00  0.00     0.099 C 
BRANCH  22  23
HETATM   23  C16 UNL     1      16.776  24.461   9.521  1.00  0.00    -0.008 A 
HETATM   24  C17 UNL     1      16.317  24.759   8.201  1.00  0.00     0.098 A 
HETATM   25  N3  UNL     1      15.262  24.023   7.909  1.00  0.00    -0.363 N 
HETATM   26  C18 UNL     1      14.973  23.238   8.958  1.00  0.00     0.059 A 
ATOM     27  H3  UNL     1      14.749  24.047   7.028  1.00  0.00     0.165 HD
HETATM   28  C19 UNL     1      13.966  22.324   9.118  1.00  0.00     0.033 A 
HETATM   29  C23 UNL     1      15.910  23.503   9.971  1.00  0.00     0.069 A 
HETATM   30  C20 UNL     1      13.894  21.665  10.319  1.00  0.00     0.020 A 
HETATM   31  C21 UNL     1      14.818  21.942  11.293  1.00  0.00     0.091 A 
HETATM   32  N4  UNL     1      15.830  22.855  11.143  1.00  0.00    -0.359 N 
HETATM   33  C22 UNL     1      16.730  23.119  12.223  1.00  0.00     0.156 C 
ENDBRANCH  22  23
ENDBRANCH   8  22
BRANCH   6  34
HETATM   34  C8  UNL     1      21.876  24.959   9.721  1.00  0.00     0.120 C 
BRANCH  34  35
HETATM   35  C9  UNL     1      21.630  24.536   8.341  1.00  0.00     0.218 C 
HETATM   36  O2  UNL     1      20.770  23.670   8.088  1.00  0.00    -0.274 OA
HETATM   37  N2  UNL     1      22.378  25.119   7.260  1.00  0.00    -0.357 N 
ATOM     38  H2  UNL     1      23.082  25.820   7.490  1.00  0.00     0.162 HD
BRANCH  37  39
HETATM   39  C10 UNL     1      22.199  24.783   5.894  1.00  0.00     0.076 C 
HETATM   40  C11 UNL     1      21.100  25.573   5.227  1.00  0.00     0.032 C 
HETATM   41  C12 UNL     1      23.489  25.228   5.131  1.00  0.00     0.032 C 
ENDBRANCH  37  39
ENDBRANCH  34  35
ENDBRANCH   6  34
BRANCH  11  42
HETATM   42  O3  UNL     1      17.785  29.773  10.231  1.00  0.00    -0.345 OA
ATOM     43  H3  UNL     1      17.234  30.445  10.616  1.00  0.00     0.219 HD
ENDBRANCH  11  42
BRANCH  12  44
HETATM   44  C26 UNL     1      15.997  29.708  12.321  1.00  0.00     0.032 C 
HETATM   45  C27 UNL     1      15.902  30.441  13.570  1.00  0.00     0.016 C 
HETATM   46  C28 UNL     1      14.664  28.988  12.043  1.00  0.00     0.016 C 
ENDBRANCH  12  44
BRANCH   1  47
HETATM   47  C4  UNL     1      23.213  28.659  10.710  1.00  0.00     0.038 C 
BRANCH  47  48
HETATM   48  C2  UNL     1      24.058  27.421  10.855  1.00  0.00    -0.020 C 
HETATM   49  C1  UNL     1      25.111  27.570  11.940  1.00  0.00     0.009 C 
HETATM   50  C3  UNL     1      24.693  27.026   9.536  1.00  0.00     0.009 C 
ENDBRANCH  47  48
ENDBRANCH   1  47
BRANCH  17  51
HETATM   51  C32 UNL     1      19.652  31.968  13.703  1.00  0.00     0.035 C 
BRANCH  51  52
HETATM   52  C33 UNL     1      20.981  32.490  14.270  1.00  0.00     0.004 C 
BRANCH  52  53
HETATM   53  C34 UNL     1      20.880  32.869  15.708  1.00  0.00     0.027 C 
BRANCH  53  54
HETATM   54  C35 UNL     1      21.739  32.019  16.622  1.00  0.00     0.229 C 
BRANCH  54  55
HETATM   55  N7  UNL     1      20.923  30.867  17.007  1.00  0.00    -0.079 N 
ATOM     56  H73 UNL     1      20.346  31.038  17.831  1.00  0.00     0.274 HD
ATOM     57  H72 UNL     1      20.161  30.676  16.356  1.00  0.00     0.274 HD
ATOM     58  H71 UNL     1      21.565  30.082  17.119  1.00  0.00     0.274 HD
ENDBRANCH  54  55
ENDBRANCH  53  54
ENDBRANCH  52  53
ENDBRANCH  51  52
ENDBRANCH  17  51
TORSDOF 14
ENDMDL
MODEL 4
REMARK VINA RESULT: -6.169721363      2.425      6.367
REMARK  14 active torsions:
REMARK  status: ('A' for Active; 'I' for Inactive)
REMARK    1  A    between atoms: C2_2  and  C4_4 
REMARK    2  A    between atoms: C4_4  and  C5_5 
REMARK    3  A    between atoms: C7_10  and  C8_11 
REMARK    4  A    between atoms: C8_11  and  C9_12 
REMARK       I    between atoms: C9_12  and  N2_14 
REMARK    5  A    between atoms: N2_14  and  C10_16 
REMARK    6  A    between atoms: C14_20  and  C15_21 
REMARK    7  A    between atoms: C15_21  and  C16_22 
REMARK    8  A    between atoms: C24_35  and  O3_36 
REMARK    9  A    between atoms: C25_38  and  C26_39 
REMARK   10  A    between atoms: C31_46  and  C32_47 
REMARK   11  A    between atoms: C32_47  and  C33_48 
REMARK   12  A    between atoms: C33_48  and  C34_49 
REMARK   13  A    between atoms: C34_49  and  C35_50 
REMARK   14  A    between atoms: C35_50  and  N7_51 
ROOT
HETATM    1  C5  UNL     1      21.044  43.033  17.689  1.00  0.00     0.177 C 
HETATM    2  N1  UNL     1      21.118  42.044  18.735  1.00  0.00    -0.347 N 
ATOM      3  H1  UNL     1      20.633  42.359  19.576  1.00  0.00     0.163 HD
HETATM    4  C6  UNL     1      21.659  40.799  18.910  1.00  0.00     0.226 C 
HETATM    5  O1  UNL     1      22.403  40.512  19.886  1.00  0.00    -0.273 OA
HETATM    6  C7  UNL     1      21.502  39.548  18.020  1.00  0.00     0.111 C 
HETATM    7  C13 UNL     1      20.469  39.630  17.041  1.00  0.00     0.013 C 
HETATM    8  C14 UNL     1      19.241  38.714  17.052  1.00  0.00     0.012 C 
HETATM    9  N5  UNL     1      18.036  39.409  16.791  1.00  0.00    -0.339 N 
ATOM     10  H5  UNL     1      17.568  38.965  16.001  1.00  0.00     0.168 HD
HETATM   11  C24 UNL     1      17.274  40.460  17.216  1.00  0.00     0.164 C 
HETATM   12  C25 UNL     1      16.628  40.919  18.439  1.00  0.00     0.068 C 
HETATM   13  N6  UNL     1      17.359  41.753  19.356  1.00  0.00    -0.320 N 
HETATM   14  C29 UNL     1      17.979  41.006  20.496  1.00  0.00     0.159 C 
HETATM   15  C30 UNL     1      17.576  43.137  19.372  1.00  0.00     0.246 C 
HETATM   16  O4  UNL     1      17.284  43.767  20.467  1.00  0.00    -0.271 OA
HETATM   17  C31 UNL     1      18.094  44.078  18.349  1.00  0.00     0.177 C 
HETATM   18  N8  UNL     1      19.381  44.632  18.804  1.00  0.00    -0.346 N 
ATOM     19  H8  UNL     1      19.323  45.302  19.571  1.00  0.00     0.163 HD
HETATM   20  C36 UNL     1      20.660  44.373  18.336  1.00  0.00     0.241 C 
HETATM   21  O5  UNL     1      21.582  45.185  18.400  1.00  0.00    -0.271 OA
ENDROOT
BRANCH   8  22
HETATM   22  C15 UNL     1      19.305  37.666  18.092  1.00  0.00     0.099 C 
BRANCH  22  23
HETATM   23  C16 UNL     1      18.593  36.405  17.907  1.00  0.00    -0.008 A 
HETATM   24  C17 UNL     1      17.266  36.188  18.391  1.00  0.00     0.098 A 
HETATM   25  N3  UNL     1      16.848  34.986  18.046  1.00  0.00    -0.363 N 
HETATM   26  C18 UNL     1      17.817  34.367  17.354  1.00  0.00     0.059 A 
ATOM     27  H3  UNL     1      15.935  34.590  18.269  1.00  0.00     0.165 HD
HETATM   28  C19 UNL     1      17.839  33.112  16.806  1.00  0.00     0.033 A 
HETATM   29  C23 UNL     1      18.911  35.243  17.262  1.00  0.00     0.069 A 
HETATM   30  C20 UNL     1      18.984  32.724  16.157  1.00  0.00     0.020 A 
HETATM   31  C21 UNL     1      20.040  33.595  16.083  1.00  0.00     0.091 A 
HETATM   32  N4  UNL     1      20.028  34.853  16.627  1.00  0.00    -0.359 N 
HETATM   33  C22 UNL     1      21.187  35.687  16.543  1.00  0.00     0.156 C 
ENDBRANCH  22  23
ENDBRANCH   8  22
BRANCH   6  34
HETATM   34  C8  UNL     1      22.873  39.255  17.590  1.00  0.00     0.120 C 
BRANCH  34  35
HETATM   35  C9  UNL     1      23.446  37.962  17.969  1.00  0.00     0.218 C 
HETATM   36  O2  UNL     1      24.231  37.368  17.203  1.00  0.00    -0.274 OA
HETATM   37  N2  UNL     1      23.113  37.365  19.234  1.00  0.00    -0.357 N 
ATOM     38  H2  UNL     1      22.463  37.864  19.842  1.00  0.00     0.162 HD
BRANCH  37  39
HETATM   39  C10 UNL     1      23.629  36.125  19.691  1.00  0.00     0.076 C 
HETATM   40  C11 UNL     1      24.631  36.275  20.810  1.00  0.00     0.032 C 
HETATM   41  C12 UNL     1      22.449  35.344  20.355  1.00  0.00     0.032 C 
ENDBRANCH  37  39
ENDBRANCH  34  35
ENDBRANCH   6  34
BRANCH  11  42
HETATM   42  O3  UNL     1      17.040  41.338  16.243  1.00  0.00    -0.345 OA
ATOM     43  H3  UNL     1      16.408  42.000  16.500  1.00  0.00     0.219 HD
ENDBRANCH  11  42
BRANCH  12  44
HETATM   44  C26 UNL     1      15.167  41.271  18.257  1.00  0.00     0.032 C 
HETATM   45  C27 UNL     1      14.785  42.635  17.947  1.00  0.00     0.016 C 
HETATM   46  C28 UNL     1      14.416  40.797  19.516  1.00  0.00     0.016 C 
ENDBRANCH  12  44
BRANCH   1  47
HETATM   47  C4  UNL     1      22.246  43.195  16.860  1.00  0.00     0.038 C 
BRANCH  47  48
HETATM   48  C2  UNL     1      22.038  42.993  15.382  1.00  0.00    -0.020 C 
HETATM   49  C1  UNL     1      22.777  41.771  14.861  1.00  0.00     0.009 C 
HETATM   50  C3  UNL     1      22.420  44.231  14.594  1.00  0.00     0.009 C 
ENDBRANCH  47  48
ENDBRANCH   1  47
BRANCH  17  51
HETATM   51  C32 UNL     1      17.165  45.317  18.366  1.00  0.00     0.035 C 
BRANCH  51  52
HETATM   52  C33 UNL     1      17.084  45.902  16.948  1.00  0.00     0.004 C 
BRANCH  52  53
HETATM   53  C34 UNL     1      16.986  44.848  15.898  1.00  0.00     0.027 C 
BRANCH  53  54
HETATM   54  C35 UNL     1      16.052  45.208  14.761  1.00  0.00     0.229 C 
BRANCH  54  55
HETATM   55  N7  UNL     1      14.698  45.194  15.314  1.00  0.00    -0.079 N 
ATOM     56  H73 UNL     1      14.601  45.757  16.159  1.00  0.00     0.274 HD
ATOM     57  H72 UNL     1      14.023  45.704  14.743  1.00  0.00     0.274 HD
ATOM     58  H71 UNL     1      14.451  44.214  15.452  1.00  0.00     0.274 HD
ENDBRANCH  54  55
ENDBRANCH  53  54
ENDBRANCH  52  53
ENDBRANCH  51  52
ENDBRANCH  17  51
TORSDOF 14
ENDMDL
MODEL 5
REMARK VINA RESULT: -6.143208958      2.783      8.011
REMARK  14 active torsions:
REMARK  status: ('A' for Active; 'I' for Inactive)
REMARK    1  A    between atoms: C2_2  and  C4_4 
REMARK    2  A    between atoms: C4_4  and  C5_5 
REMARK    3  A    between atoms: C7_10  and  C8_11 
REMARK    4  A    between atoms: C8_11  and  C9_12 
REMARK       I    between atoms: C9_12  and  N2_14 
REMARK    5  A    between atoms: N2_14  and  C10_16 
REMARK    6  A    between atoms: C14_20  and  C15_21 
REMARK    7  A    between atoms: C15_21  and  C16_22 
REMARK    8  A    between atoms: C24_35  and  O3_36 
REMARK    9  A    between atoms: C25_38  and  C26_39 
REMARK   10  A    between atoms: C31_46  and  C32_47 
REMARK   11  A    between atoms: C32_47  and  C33_48 
REMARK   12  A    between atoms: C33_48  and  C34_49 
REMARK   13  A    between atoms: C34_49  and  C35_50 
REMARK   14  A    between atoms: C35_50  and  N7_51 
ROOT
HETATM    1  C5  UNL     1      18.589  37.073  18.323  1.00  0.00     0.177 C 
HETATM    2  N1  UNL     1      18.590  38.281  19.109  1.00  0.00    -0.347 N 
ATOM      3  H1  UNL     1      19.429  38.348  19.685  1.00  0.00     0.163 HD
HETATM    4  C6  UNL     1      17.773  39.364  19.294  1.00  0.00     0.226 C 
HETATM    5  O1  UNL     1      17.401  39.748  20.436  1.00  0.00    -0.273 OA
HETATM    6  C7  UNL     1      17.159  40.300  18.231  1.00  0.00     0.111 C 
HETATM    7  C13 UNL     1      17.712  40.172  16.924  1.00  0.00     0.013 C 
HETATM    8  C14 UNL     1      18.475  41.306  16.231  1.00  0.00     0.012 C 
HETATM    9  N5  UNL     1      19.650  40.860  15.581  1.00  0.00    -0.339 N 
ATOM     10  H5  UNL     1      19.611  41.147  14.603  1.00  0.00     0.168 HD
HETATM   11  C24 UNL     1      20.818  40.183  15.792  1.00  0.00     0.164 C 
HETATM   12  C25 UNL     1      21.989  40.265  16.655  1.00  0.00     0.068 C 
HETATM   13  N6  UNL     1      21.978  39.594  17.928  1.00  0.00    -0.320 N 
HETATM   14  C29 UNL     1      21.621  40.480  19.081  1.00  0.00     0.159 C 
HETATM   15  C30 UNL     1      22.256  38.264  18.272  1.00  0.00     0.246 C 
HETATM   16  O4  UNL     1      23.129  38.069  19.211  1.00  0.00    -0.271 OA
HETATM   17  C31 UNL     1      21.736  36.972  17.763  1.00  0.00     0.177 C 
HETATM   18  N8  UNL     1      20.978  36.297  18.830  1.00  0.00    -0.346 N 
ATOM     19  H8  UNL     1      21.539  35.915  19.592  1.00  0.00     0.163 HD
HETATM   20  C36 UNL     1      19.610  36.107  18.946  1.00  0.00     0.241 C 
HETATM   21  O5  UNL     1      19.106  35.162  19.551  1.00  0.00    -0.271 OA
ENDROOT
BRANCH   8  22
HETATM   22  C15 UNL     1      18.462  42.570  16.997  1.00  0.00     0.099 C 
BRANCH  22  23
HETATM   23  C16 UNL     1      18.297  43.844  16.305  1.00  0.00    -0.008 A 
HETATM   24  C17 UNL     1      17.020  44.352  15.914  1.00  0.00     0.098 A 
HETATM   25  N3  UNL     1      17.154  45.539  15.354  1.00  0.00    -0.363 N 
HETATM   26  C18 UNL     1      18.454  45.870  15.340  1.00  0.00     0.059 A 
ATOM     27  H3  UNL     1      16.393  46.113  14.992  1.00  0.00     0.165 HD
HETATM   28  C19 UNL     1      19.067  46.994  14.852  1.00  0.00     0.033 A 
HETATM   29  C23 UNL     1      19.177  44.820  15.929  1.00  0.00     0.069 A 
HETATM   30  C20 UNL     1      20.433  47.065  14.954  1.00  0.00     0.020 A 
HETATM   31  C21 UNL     1      21.118  46.026  15.530  1.00  0.00     0.091 A 
HETATM   32  N4  UNL     1      20.514  44.898  16.021  1.00  0.00    -0.359 N 
HETATM   33  C22 UNL     1      21.303  43.838  16.571  1.00  0.00     0.156 C 
ENDBRANCH  22  23
ENDBRANCH   8  22
BRANCH   6  34
HETATM   34  C8  UNL     1      15.714  40.132  18.416  1.00  0.00     0.120 C 
BRANCH  34  35
HETATM   35  C9  UNL     1      14.955  41.271  18.934  1.00  0.00     0.218 C 
HETATM   36  O2  UNL     1      14.253  41.151  19.958  1.00  0.00    -0.274 OA
HETATM   37  N2  UNL     1      15.013  42.544  18.268  1.00  0.00    -0.357 N 
ATOM     38  H2  UNL     1      15.587  42.618  17.428  1.00  0.00     0.162 HD
BRANCH  37  39
HETATM   39  C10 UNL     1      14.324  43.704  18.704  1.00  0.00     0.076 C 
HETATM   40  C11 UNL     1      15.247  44.816  19.137  1.00  0.00     0.032 C 
HETATM   41  C12 UNL     1      13.584  44.302  17.463  1.00  0.00     0.032 C 
ENDBRANCH  37  39
ENDBRANCH  34  35
ENDBRANCH   6  34
BRANCH  11  42
HETATM   42  O3  UNL     1      20.947  39.137  14.980  1.00  0.00    -0.345 OA
ATOM     43  H3  UNL     1      20.258  39.101  14.326  1.00  0.00     0.219 HD
ENDBRANCH  11  42
BRANCH  12  44
HETATM   44  C26 UNL     1      23.301  40.220  15.903  1.00  0.00     0.032 C 
HETATM   45  C27 UNL     1      24.554  40.346  16.625  1.00  0.00     0.016 C 
HETATM   46  C28 UNL     1      23.236  41.283  14.791  1.00  0.00     0.016 C 
ENDBRANCH  12  44
BRANCH   1  47
HETATM   47  C4  UNL     1      17.291  36.404  18.158  1.00  0.00     0.038 C 
BRANCH  47  48
HETATM   48  C2  UNL     1      17.056  35.786  16.805  1.00  0.00    -0.020 C 
HETATM   49  C1  UNL     1      15.641  36.024  16.305  1.00  0.00     0.009 C 
HETATM   50  C3  UNL     1      17.385  34.306  16.807  1.00  0.00     0.009 C 
ENDBRANCH  47  48
ENDBRANCH   1  47
BRANCH  17  51
HETATM   51  C32 UNL     1      22.958  36.039  17.572  1.00  0.00     0.035 C 
BRANCH  51  52
HETATM   52  C33 UNL     1      22.497  34.579  17.690  1.00  0.00     0.004 C 
BRANCH  52  53
HETATM   53  C34 UNL     1      23.459  33.623  17.069  1.00  0.00     0.027 C 
BRANCH  53  54
HETATM   54  C35 UNL     1      22.792  32.437  16.403  1.00  0.00     0.229 C 
BRANCH  54  55
HETATM   55  N7  UNL     1      22.099  31.702  17.461  1.00  0.00    -0.079 N 
ATOM     56  H73 UNL     1      21.373  31.077  17.109  1.00  0.00     0.274 HD
ATOM     57  H72 UNL     1      22.678  30.987  17.903  1.00  0.00     0.274 HD
ATOM     58  H71 UNL     1      21.747  32.399  18.118  1.00  0.00     0.274 HD
ENDBRANCH  54  55
ENDBRANCH  53  54
ENDBRANCH  52  53
ENDBRANCH  51  52
ENDBRANCH  17  51
TORSDOF 14
ENDMDL
