MODEL 1
REMARK VINA RESULT: -10.280880431      0.000      0.000
REMARK  14 active torsions:
REMARK  status: ('A' for Active; 'I' for Inactive)
REMARK    1  A    between atoms: C2_2  and  C3_3 
REMARK    2  A    between atoms: C3_3  and  C4_4 
REMARK    3  A    between atoms: C10_16  and  C11_17 
REMARK    4  A    between atoms: C11_17  and  C12_18 
REMARK    5  A    between atoms: C17_24  and  C18_25 
REMARK    6  A    between atoms: C19_26  and  C20_27 
REMARK    7  A    between atoms: N4_32  and  C25_33 
REMARK    8  A    between atoms: C28_39  and  C29_40 
REMARK    9  A    between atoms: C29_40  and  C30_41 
REMARK   10  A    between atoms: C30_41  and  C31_42 
REMARK   11  A    between atoms: C31_42  and  C32_43 
REMARK   12  A    between atoms: C32_43  and  C33_44 
REMARK   13  A    between atoms: C33_44  and  N6_45 
REMARK   14  A    between atoms: C34_51  and  O3_52 
ROOT
HETATM    1  C4  UNL     1      19.661  34.626  17.748  1.00  0.00     0.176 C 
HETATM    2  N1  UNL     1      18.351  34.600  17.249  1.00  0.00    -0.346 N 
ATOM      3  H1  UNL     1      17.863  35.485  17.393  1.00  0.00     0.163 HD
HETATM    4  C5  UNL     1      17.527  33.622  16.580  1.00  0.00     0.246 C 
HETATM    5  O1  UNL     1      16.294  33.581  16.636  1.00  0.00    -0.271 OA
HETATM    6  C6  UNL     1      18.269  32.619  15.785  1.00  0.00     0.106 C 
HETATM    7  C7  UNL     1      18.827  33.420  14.695  1.00  0.00     0.048 C 
HETATM    8  C8  UNL     1      19.015  31.936  16.860  1.00  0.00     0.048 C 
HETATM    9  N2  UNL     1      17.615  31.546  15.106  1.00  0.00    -0.343 N 
ATOM     10  H2  UNL     1      16.599  31.514  15.019  1.00  0.00     0.163 HD
HETATM   11  C9  UNL     1      18.460  30.497  14.539  1.00  0.00     0.228 C 
HETATM   12  O2  UNL     1      17.917  29.336  14.743  1.00  0.00    -0.273 OA
HETATM   13  C10 UNL     1      19.696  30.530  13.846  1.00  0.00     0.129 C 
HETATM   14  C27 UNL     1      20.998  30.275  14.559  1.00  0.00     0.016 C 
HETATM   15  N5  UNL     1      21.152  29.229  15.268  1.00  0.00    -0.403 N 
ATOM     16  H51 UNL     1      22.033  29.057  15.750  1.00  0.00     0.155 HD
ATOM     17  H52 UNL     1      20.349  28.601  15.308  1.00  0.00     0.155 HD
HETATM   18  C28 UNL     1      22.188  31.208  14.499  1.00  0.00     0.129 C 
HETATM   19  N7  UNL     1      22.920  31.369  15.713  1.00  0.00    -0.363 N 
ATOM     20  H7  UNL     1      23.702  30.718  15.777  1.00  0.00     0.162 HD
HETATM   21  C34 UNL     1      22.836  32.195  16.833  1.00  0.00     0.135 C 
HETATM   22  C35 UNL     1      22.905  33.632  17.077  1.00  0.00     0.157 C 
HETATM   23  C36 UNL     1      24.354  34.156  16.840  1.00  0.00     0.041 C 
HETATM   24  N8  UNL     1      21.981  34.534  16.486  1.00  0.00    -0.343 N 
HETATM   25  C37 UNL     1      22.481  35.012  15.156  1.00  0.00     0.153 C 
HETATM   26  C38 UNL     1      20.773  35.084  16.882  1.00  0.00     0.243 C 
HETATM   27  O4  UNL     1      20.529  36.267  16.402  1.00  0.00    -0.271 OA
ENDROOT
BRANCH  13  28
HETATM   28  C11 UNL     1      19.812  29.690  12.560  1.00  0.00     0.059 C 
BRANCH  28  29
HETATM   29  C12 UNL     1      18.584  29.029  12.161  1.00  0.00    -0.045 A 
HETATM   30  C13 UNL     1      17.433  29.828  12.031  1.00  0.00     0.034 A 
HETATM   31  C14 UNL     1      16.206  29.266  11.786  1.00  0.00     0.046 A 
HETATM   32  N3  UNL     1      15.099  30.154  11.679  1.00  0.00    -0.102 NA
HETATM   33  C15 UNL     1      16.107  27.893  11.665  1.00  0.00     0.027 A 
HETATM   34  C16 UNL     1      17.226  27.090  11.784  1.00  0.00     0.014 A 
HETATM   35  C17 UNL     1      18.483  27.661  12.036  1.00  0.00    -0.030 A 
BRANCH  35  36
HETATM   36  C18 UNL     1      19.646  26.828  11.880  1.00  0.00     0.014 C 
HETATM   37  C19 UNL     1      20.209  26.283  10.874  1.00  0.00     0.030 C 
BRANCH  37  38
HETATM   38  C20 UNL     1      20.003  26.183   9.457  1.00  0.00     0.034 A 
HETATM   39  C21 UNL     1      18.938  26.779   8.817  1.00  0.00     0.029 A 
HETATM   40  C22 UNL     1      18.799  26.726   7.449  1.00  0.00     0.004 A 
HETATM   41  C23 UNL     1      19.718  26.074   6.678  1.00  0.00     0.017 A 
HETATM   42  C24 UNL     1      20.778  25.480   7.343  1.00  0.00     0.091 A 
HETATM   43  N4  UNL     1      20.918  25.530   8.666  1.00  0.00    -0.357 N 
BRANCH  43  44
HETATM   44  C25 UNL     1      22.058  24.894   9.272  1.00  0.00     0.124 C 
HETATM   45  C26 UNL     1      23.251  25.030   8.355  1.00  0.00     0.027 C 
ENDBRANCH  43  44
ENDBRANCH  37  38
ENDBRANCH  35  36
ENDBRANCH  28  29
ENDBRANCH  13  28
BRANCH  18  46
HETATM   46  C29 UNL     1      23.104  30.856  13.328  1.00  0.00     0.031 C 
BRANCH  46  47
HETATM   47  C30 UNL     1      23.343  29.408  13.149  1.00  0.00     0.002 C 
BRANCH  47  48
HETATM   48  C31 UNL     1      23.391  29.044  11.694  1.00  0.00     0.002 C 
BRANCH  48  49
HETATM   49  C32 UNL     1      24.781  28.614  11.322  1.00  0.00     0.027 C 
BRANCH  49  50
HETATM   50  C33 UNL     1      25.101  27.331  12.086  1.00  0.00     0.229 C 
BRANCH  50  51
HETATM   51  N6  UNL     1      24.757  26.174  11.310  1.00  0.00    -0.079 N 
ATOM     52  H63 UNL     1      24.137  26.411  10.535  1.00  0.00     0.274 HD
ATOM     53  H62 UNL     1      25.552  25.831  10.772  1.00  0.00     0.274 HD
ATOM     54  H61 UNL     1      24.359  25.445  11.902  1.00  0.00     0.274 HD
ENDBRANCH  50  51
ENDBRANCH  49  50
ENDBRANCH  48  49
ENDBRANCH  47  48
ENDBRANCH  46  47
ENDBRANCH  18  46
BRANCH  21  55
HETATM   55  O3  UNL     1      22.646  31.527  17.963  1.00  0.00    -0.348 OA
ATOM     56  H3  UNL     1      22.400  32.085  18.692  1.00  0.00     0.219 HD
ENDBRANCH  21  55
BRANCH   1  57
HETATM   57  C3  UNL     1      19.713  35.764  18.852  1.00  0.00     0.034 C 
BRANCH  57  58
HETATM   58  C2  UNL     1      20.841  35.480  19.782  1.00  0.00    -0.002 C 
HETATM   59  C1  UNL     1      21.925  36.529  19.712  1.00  0.00     0.005 C 
ENDBRANCH  57  58
ENDBRANCH   1  57
TORSDOF 14
ENDMDL
MODEL 2
REMARK VINA RESULT: -9.886873229      0.971      1.399
REMARK  14 active torsions:
REMARK  status: ('A' for Active; 'I' for Inactive)
REMARK    1  A    between atoms: C2_2  and  C3_3 
REMARK    2  A    between atoms: C3_3  and  C4_4 
REMARK    3  A    between atoms: C10_16  and  C11_17 
REMARK    4  A    between atoms: C11_17  and  C12_18 
REMARK    5  A    between atoms: C17_24  and  C18_25 
REMARK    6  A    between atoms: C19_26  and  C20_27 
REMARK    7  A    between atoms: N4_32  and  C25_33 
REMARK    8  A    between atoms: C28_39  and  C29_40 
REMARK    9  A    between atoms: C29_40  and  C30_41 
REMARK   10  A    between atoms: C30_41  and  C31_42 
REMARK   11  A    between atoms: C31_42  and  C32_43 
REMARK   12  A    between atoms: C32_43  and  C33_44 
REMARK   13  A    between atoms: C33_44  and  N6_45 
REMARK   14  A    between atoms: C34_51  and  O3_52 
ROOT
HETATM    1  C4  UNL     1      19.755  34.710  17.785  1.00  0.00     0.176 C 
HETATM    2  N1  UNL     1      18.442  34.711  17.295  1.00  0.00    -0.346 N 
ATOM      3  H1  UNL     1      17.975  35.607  17.435  1.00  0.00     0.163 HD
HETATM    4  C5  UNL     1      17.592  33.747  16.638  1.00  0.00     0.246 C 
HETATM    5  O1  UNL     1      16.358  33.735  16.701  1.00  0.00    -0.271 OA
HETATM    6  C6  UNL     1      18.305  32.721  15.847  1.00  0.00     0.106 C 
HETATM    7  C7  UNL     1      18.875  33.501  14.747  1.00  0.00     0.048 C 
HETATM    8  C8  UNL     1      19.042  32.029  16.922  1.00  0.00     0.048 C 
HETATM    9  N2  UNL     1      17.622  31.659  15.179  1.00  0.00    -0.343 N 
ATOM     10  H2  UNL     1      16.605  31.649  15.099  1.00  0.00     0.163 HD
HETATM   11  C9  UNL     1      18.439  30.586  14.616  1.00  0.00     0.228 C 
HETATM   12  O2  UNL     1      17.871  29.439  14.832  1.00  0.00    -0.273 OA
HETATM   13  C10 UNL     1      19.671  30.585  13.915  1.00  0.00     0.129 C 
HETATM   14  C27 UNL     1      20.971  30.306  14.622  1.00  0.00     0.016 C 
HETATM   15  N5  UNL     1      21.105  29.261  15.338  1.00  0.00    -0.403 N 
ATOM     16  H51 UNL     1      21.986  29.072  15.816  1.00  0.00     0.155 HD
ATOM     17  H52 UNL     1      20.289  28.652  15.388  1.00  0.00     0.155 HD
HETATM   18  C28 UNL     1      22.182  31.210  14.547  1.00  0.00     0.129 C 
HETATM   19  N7  UNL     1      22.925  31.364  15.755  1.00  0.00    -0.363 N 
ATOM     20  H7  UNL     1      23.692  30.694  15.820  1.00  0.00     0.162 HD
HETATM   21  C34 UNL     1      22.867  32.199  16.870  1.00  0.00     0.135 C 
HETATM   22  C35 UNL     1      22.971  33.636  17.103  1.00  0.00     0.157 C 
HETATM   23  C36 UNL     1      24.430  34.124  16.852  1.00  0.00     0.041 C 
HETATM   24  N8  UNL     1      22.065  34.555  16.510  1.00  0.00    -0.343 N 
HETATM   25  C37 UNL     1      22.567  35.011  15.174  1.00  0.00     0.153 C 
HETATM   26  C38 UNL     1      20.872  35.136  16.909  1.00  0.00     0.243 C 
HETATM   27  O4  UNL     1      20.653  36.321  16.422  1.00  0.00    -0.271 OA
ENDROOT
BRANCH  13  28
HETATM   28  C11 UNL     1      19.760  29.733  12.634  1.00  0.00     0.059 C 
BRANCH  28  29
HETATM   29  C12 UNL     1      18.523  29.070  12.267  1.00  0.00    -0.045 A 
HETATM   30  C13 UNL     1      17.387  29.880  12.081  1.00  0.00     0.034 A 
HETATM   31  C14 UNL     1      16.152  29.326  11.861  1.00  0.00     0.046 A 
HETATM   32  N3  UNL     1      15.061  30.225  11.692  1.00  0.00    -0.102 NA
HETATM   33  C15 UNL     1      16.030  27.950  11.821  1.00  0.00     0.027 A 
HETATM   34  C16 UNL     1      17.133  27.136  11.996  1.00  0.00     0.014 A 
HETATM   35  C17 UNL     1      18.398  27.700  12.222  1.00  0.00    -0.030 A 
BRANCH  35  36
HETATM   36  C18 UNL     1      19.547  26.839  12.126  1.00  0.00     0.014 C 
HETATM   37  C19 UNL     1      19.982  26.051  11.222  1.00  0.00     0.030 C 
BRANCH  37  38
HETATM   38  C20 UNL     1      19.591  25.602   9.916  1.00  0.00     0.034 A 
HETATM   39  C21 UNL     1      20.112  26.139   8.758  1.00  0.00     0.029 A 
HETATM   40  C22 UNL     1      19.772  25.645   7.520  1.00  0.00     0.004 A 
HETATM   41  C23 UNL     1      18.901  24.601   7.399  1.00  0.00     0.017 A 
HETATM   42  C24 UNL     1      18.388  24.079   8.575  1.00  0.00     0.091 A 
HETATM   43  N4  UNL     1      18.715  24.552   9.775  1.00  0.00    -0.357 N 
BRANCH  43  44
HETATM   44  C25 UNL     1      18.143  23.940  10.947  1.00  0.00     0.124 C 
HETATM   45  C26 UNL     1      16.676  23.676  10.705  1.00  0.00     0.027 C 
ENDBRANCH  43  44
ENDBRANCH  37  38
ENDBRANCH  35  36
ENDBRANCH  28  29
ENDBRANCH  13  28
BRANCH  18  46
HETATM   46  C29 UNL     1      23.083  30.828  13.374  1.00  0.00     0.031 C 
BRANCH  46  47
HETATM   47  C30 UNL     1      23.297  29.374  13.212  1.00  0.00     0.002 C 
BRANCH  47  48
HETATM   48  C31 UNL     1      23.468  29.011  11.767  1.00  0.00     0.002 C 
BRANCH  48  49
HETATM   49  C32 UNL     1      24.897  28.632  11.501  1.00  0.00     0.027 C 
BRANCH  49  50
HETATM   50  C33 UNL     1      24.957  27.119  11.303  1.00  0.00     0.229 C 
BRANCH  50  51
HETATM   51  N6  UNL     1      25.215  26.794   9.929  1.00  0.00    -0.079 N 
ATOM     52  H63 UNL     1      26.126  27.136   9.625  1.00  0.00     0.274 HD
ATOM     53  H62 UNL     1      25.374  25.795   9.802  1.00  0.00     0.274 HD
ATOM     54  H61 UNL     1      24.464  27.135   9.329  1.00  0.00     0.274 HD
ENDBRANCH  50  51
ENDBRANCH  49  50
ENDBRANCH  48  49
ENDBRANCH  47  48
ENDBRANCH  46  47
ENDBRANCH  18  46
BRANCH  21  55
HETATM   55  O3  UNL     1      22.669  31.545  18.006  1.00  0.00    -0.348 OA
ATOM     56  H3  UNL     1      21.956  31.900  18.524  1.00  0.00     0.219 HD
ENDBRANCH  21  55
BRANCH   1  57
HETATM   57  C3  UNL     1      19.840  35.855  18.880  1.00  0.00     0.034 C 
BRANCH  57  58
HETATM   58  C2  UNL     1      20.931  35.523  19.839  1.00  0.00    -0.002 C 
HETATM   59  C1  UNL     1      22.099  36.473  19.735  1.00  0.00     0.005 C 
ENDBRANCH  57  58
ENDBRANCH   1  57
TORSDOF 14
ENDMDL
MODEL 3
REMARK VINA RESULT: -9.822417338      2.559     10.451
REMARK  14 active torsions:
REMARK  status: ('A' for Active; 'I' for Inactive)
REMARK    1  A    between atoms: C2_2  and  C3_3 
REMARK    2  A    between atoms: C3_3  and  C4_4 
REMARK    3  A    between atoms: C10_16  and  C11_17 
REMARK    4  A    between atoms: C11_17  and  C12_18 
REMARK    5  A    between atoms: C17_24  and  C18_25 
REMARK    6  A    between atoms: C19_26  and  C20_27 
REMARK    7  A    between atoms: N4_32  and  C25_33 
REMARK    8  A    between atoms: C28_39  and  C29_40 
REMARK    9  A    between atoms: C29_40  and  C30_41 
REMARK   10  A    between atoms: C30_41  and  C31_42 
REMARK   11  A    between atoms: C31_42  and  C32_43 
REMARK   12  A    between atoms: C32_43  and  C33_44 
REMARK   13  A    between atoms: C33_44  and  N6_45 
REMARK   14  A    between atoms: C34_51  and  O3_52 
ROOT
HETATM    1  C4  UNL     1      21.160  26.845  12.109  1.00  0.00     0.176 C 
HETATM    2  N1  UNL     1      22.413  27.445  11.925  1.00  0.00    -0.346 N 
ATOM      3  H1  UNL     1      22.895  27.093  11.098  1.00  0.00     0.163 HD
HETATM    4  C5  UNL     1      23.184  28.443  12.627  1.00  0.00     0.246 C 
HETATM    5  O1  UNL     1      24.417  28.514  12.622  1.00  0.00    -0.271 OA
HETATM    6  C6  UNL     1      22.386  29.426  13.392  1.00  0.00     0.106 C 
HETATM    7  C7  UNL     1      21.706  30.179  12.337  1.00  0.00     0.048 C 
HETATM    8  C8  UNL     1      21.766  28.536  14.392  1.00  0.00     0.048 C 
HETATM    9  N2  UNL     1      22.990  30.446  14.189  1.00  0.00    -0.343 N 
ATOM     10  H2  UNL     1      23.993  30.630  14.145  1.00  0.00     0.163 HD
HETATM   11  C9  UNL     1      22.114  31.217  15.069  1.00  0.00     0.228 C 
HETATM   12  O2  UNL     1      22.697  31.412  16.212  1.00  0.00    -0.273 OA
HETATM   13  C10 UNL     1      20.814  31.755  14.896  1.00  0.00     0.129 C 
HETATM   14  C27 UNL     1      19.596  31.033  15.409  1.00  0.00     0.016 C 
HETATM   15  N5  UNL     1      19.534  30.651  16.622  1.00  0.00    -0.403 N 
ATOM     16  H51 UNL     1      18.710  30.163  16.969  1.00  0.00     0.155 HD
ATOM     17  H52 UNL     1      20.350  30.869  17.196  1.00  0.00     0.155 HD
HETATM   18  C28 UNL     1      18.387  30.710  14.558  1.00  0.00     0.129 C 
HETATM   19  N7  UNL     1      17.778  29.441  14.791  1.00  0.00    -0.363 N 
ATOM     20  H7  UNL     1      17.020  29.500  15.470  1.00  0.00     0.162 HD
HETATM   21  C34 UNL     1      17.958  28.141  14.322  1.00  0.00     0.135 C 
HETATM   22  C35 UNL     1      17.885  27.481  13.022  1.00  0.00     0.157 C 
HETATM   23  C36 UNL     1      16.409  27.423  12.523  1.00  0.00     0.041 C 
HETATM   24  N8  UNL     1      18.727  27.863  11.944  1.00  0.00    -0.343 N 
HETATM   25  C37 UNL     1      18.086  28.944  11.126  1.00  0.00     0.153 C 
HETATM   26  C38 UNL     1      19.957  27.434  11.474  1.00  0.00     0.243 C 
HETATM   27  O4  UNL     1      20.128  27.566  10.192  1.00  0.00    -0.271 OA
ENDROOT
BRANCH  13  28
HETATM   28  C11 UNL     1      20.586  33.215  15.333  1.00  0.00     0.059 C 
BRANCH  28  29
HETATM   29  C12 UNL     1      21.802  33.966  15.577  1.00  0.00    -0.045 A 
HETATM   30  C13 UNL     1      22.851  33.816  14.652  1.00  0.00     0.034 A 
HETATM   31  C14 UNL     1      24.079  34.385  14.875  1.00  0.00     0.046 A 
HETATM   32  N3  UNL     1      25.080  34.171  13.886  1.00  0.00    -0.102 NA
HETATM   33  C15 UNL     1      24.280  35.118  16.029  1.00  0.00     0.027 A 
HETATM   34  C16 UNL     1      23.262  35.283  16.949  1.00  0.00     0.014 A 
HETATM   35  C17 UNL     1      22.004  34.701  16.724  1.00  0.00    -0.030 A 
BRANCH  35  36
HETATM   36  C18 UNL     1      20.908  35.119  17.557  1.00  0.00     0.014 C 
HETATM   37  C19 UNL     1      20.274  36.218  17.689  1.00  0.00     0.030 C 
BRANCH  37  38
HETATM   38  C20 UNL     1      20.309  37.546  17.144  1.00  0.00     0.034 A 
HETATM   39  C21 UNL     1      21.337  37.993  16.343  1.00  0.00     0.029 A 
HETATM   40  C22 UNL     1      21.315  39.248  15.778  1.00  0.00     0.004 A 
HETATM   41  C23 UNL     1      20.266  40.094  15.997  1.00  0.00     0.017 A 
HETATM   42  C24 UNL     1      19.246  39.624  16.808  1.00  0.00     0.091 A 
HETATM   43  N4  UNL     1      19.262  38.412  17.355  1.00  0.00    -0.357 N 
BRANCH  43  44
HETATM   44  C25 UNL     1      18.152  38.001  18.175  1.00  0.00     0.124 C 
HETATM   45  C26 UNL     1      16.861  38.416  17.510  1.00  0.00     0.027 C 
ENDBRANCH  43  44
ENDBRANCH  37  38
ENDBRANCH  35  36
ENDBRANCH  28  29
ENDBRANCH  13  28
BRANCH  18  46
HETATM   46  C29 UNL     1      17.365  31.845  14.600  1.00  0.00     0.031 C 
BRANCH  46  47
HETATM   47  C30 UNL     1      17.183  32.458  15.933  1.00  0.00     0.002 C 
BRANCH  47  48
HETATM   48  C31 UNL     1      17.131  33.954  15.836  1.00  0.00     0.002 C 
BRANCH  48  49
HETATM   49  C32 UNL     1      17.109  34.554  17.213  1.00  0.00     0.027 C 
BRANCH  49  50
HETATM   50  C33 UNL     1      15.664  34.556  17.707  1.00  0.00     0.229 C 
BRANCH  50  51
HETATM   51  N6  UNL     1      14.864  35.470  16.943  1.00  0.00    -0.079 N 
ATOM     52  H63 UNL     1      15.283  35.670  16.035  1.00  0.00     0.274 HD
ATOM     53  H62 UNL     1      13.999  35.036  16.622  1.00  0.00     0.274 HD
ATOM     54  H61 UNL     1      14.685  36.323  17.472  1.00  0.00     0.274 HD
ENDBRANCH  50  51
ENDBRANCH  49  50
ENDBRANCH  48  49
ENDBRANCH  47  48
ENDBRANCH  46  47
ENDBRANCH  18  46
BRANCH  21  55
HETATM   55  O3  UNL     1      18.273  27.278  15.278  1.00  0.00    -0.348 OA
ATOM     56  H3  UNL     1      17.805  26.453  15.209  1.00  0.00     0.219 HD
ENDBRANCH  21  55
BRANCH   1  57
HETATM   57  C3  UNL     1      21.197  25.456  11.343  1.00  0.00     0.034 C 
BRANCH  57  58
HETATM   58  C2  UNL     1      22.510  25.322  10.653  1.00  0.00    -0.002 C 
HETATM   59  C1  UNL     1      22.362  24.973   9.191  1.00  0.00     0.005 C 
ENDBRANCH  57  58
ENDBRANCH   1  57
TORSDOF 14
ENDMDL
MODEL 4
REMARK VINA RESULT: -9.810137141      2.422     10.386
REMARK  14 active torsions:
REMARK  status: ('A' for Active; 'I' for Inactive)
REMARK    1  A    between atoms: C2_2  and  C3_3 
REMARK    2  A    between atoms: C3_3  and  C4_4 
REMARK    3  A    between atoms: C10_16  and  C11_17 
REMARK    4  A    between atoms: C11_17  and  C12_18 
REMARK    5  A    between atoms: C17_24  and  C18_25 
REMARK    6  A    between atoms: C19_26  and  C20_27 
REMARK    7  A    between atoms: N4_32  and  C25_33 
REMARK    8  A    between atoms: C28_39  and  C29_40 
REMARK    9  A    between atoms: C29_40  and  C30_41 
REMARK   10  A    between atoms: C30_41  and  C31_42 
REMARK   11  A    between atoms: C31_42  and  C32_43 
REMARK   12  A    between atoms: C32_43  and  C33_44 
REMARK   13  A    between atoms: C33_44  and  N6_45 
REMARK   14  A    between atoms: C34_51  and  O3_52 
ROOT
HETATM    1  C4  UNL     1      20.771  26.591  11.729  1.00  0.00     0.176 C 
HETATM    2  N1  UNL     1      22.018  27.124  11.374  1.00  0.00    -0.346 N 
ATOM      3  H1  UNL     1      22.386  26.713  10.516  1.00  0.00     0.163 HD
HETATM    4  C5  UNL     1      22.905  28.115  11.932  1.00  0.00     0.246 C 
HETATM    5  O1  UNL     1      24.131  28.128  11.783  1.00  0.00    -0.271 OA
HETATM    6  C6  UNL     1      22.242  29.169  12.733  1.00  0.00     0.106 C 
HETATM    7  C7  UNL     1      21.476  29.903  11.726  1.00  0.00     0.048 C 
HETATM    8  C8  UNL     1      21.706  28.354  13.840  1.00  0.00     0.048 C 
HETATM    9  N2  UNL     1      22.976  30.194  13.403  1.00  0.00    -0.343 N 
ATOM     10  H2  UNL     1      23.973  30.329  13.236  1.00  0.00     0.163 HD
HETATM   11  C9  UNL     1      22.240  31.044  14.337  1.00  0.00     0.228 C 
HETATM   12  O2  UNL     1      22.959  31.263  15.395  1.00  0.00    -0.273 OA
HETATM   13  C10 UNL     1      20.952  31.633  14.287  1.00  0.00     0.129 C 
HETATM   14  C27 UNL     1      19.773  30.993  14.971  1.00  0.00     0.016 C 
HETATM   15  N5  UNL     1      19.837  30.670  16.201  1.00  0.00    -0.403 N 
ATOM     16  H51 UNL     1      19.039  30.236  16.664  1.00  0.00     0.155 HD
ATOM     17  H52 UNL     1      20.721  30.875  16.666  1.00  0.00     0.155 HD
HETATM   18  C28 UNL     1      18.462  30.688  14.280  1.00  0.00     0.129 C 
HETATM   19  N7  UNL     1      17.831  29.461  14.644  1.00  0.00    -0.363 N 
ATOM     20  H7  UNL     1      17.161  29.586  15.402  1.00  0.00     0.162 HD
HETATM   21  C34 UNL     1      17.903  28.133  14.224  1.00  0.00     0.135 C 
HETATM   22  C35 UNL     1      17.652  27.420  12.976  1.00  0.00     0.157 C 
HETATM   23  C36 UNL     1      16.128  27.408  12.652  1.00  0.00     0.041 C 
HETATM   24  N8  UNL     1      18.378  27.712  11.791  1.00  0.00    -0.343 N 
HETATM   25  C37 UNL     1      17.692  28.784  10.998  1.00  0.00     0.153 C 
HETATM   26  C38 UNL     1      19.527  27.206  11.207  1.00  0.00     0.243 C 
HETATM   27  O4  UNL     1      19.554  27.272   9.909  1.00  0.00    -0.271 OA
ENDROOT
BRANCH  13  28
HETATM   28  C11 UNL     1      20.836  33.121  14.673  1.00  0.00     0.059 C 
BRANCH  28  29
HETATM   29  C12 UNL     1      21.951  33.629  15.448  1.00  0.00    -0.045 A 
HETATM   30  C13 UNL     1      23.156  33.872  14.764  1.00  0.00     0.034 A 
HETATM   31  C14 UNL     1      24.294  34.228  15.442  1.00  0.00     0.046 A 
HETATM   32  N3  UNL     1      25.467  34.446  14.664  1.00  0.00    -0.102 NA
HETATM   33  C15 UNL     1      24.248  34.349  16.817  1.00  0.00     0.027 A 
HETATM   34  C16 UNL     1      23.074  34.119  17.509  1.00  0.00     0.014 A 
HETATM   35  C17 UNL     1      21.907  33.754  16.819  1.00  0.00    -0.030 A 
BRANCH  35  36
HETATM   36  C18 UNL     1      20.660  33.793  17.535  1.00  0.00     0.014 C 
HETATM   37  C19 UNL     1      19.947  34.739  18.009  1.00  0.00     0.030 C 
BRANCH  37  38
HETATM   38  C20 UNL     1      19.997  36.171  18.107  1.00  0.00     0.034 A 
HETATM   39  C21 UNL     1      19.250  36.998  17.296  1.00  0.00     0.029 A 
HETATM   40  C22 UNL     1      19.265  38.364  17.454  1.00  0.00     0.004 A 
HETATM   41  C23 UNL     1      20.026  38.948  18.426  1.00  0.00     0.017 A 
HETATM   42  C24 UNL     1      20.770  38.097  19.227  1.00  0.00     0.091 A 
HETATM   43  N4  UNL     1      20.759  36.775  19.079  1.00  0.00    -0.357 N 
BRANCH  43  44
HETATM   44  C25 UNL     1      21.554  35.966  19.966  1.00  0.00     0.124 C 
HETATM   45  C26 UNL     1      22.974  36.481  19.971  1.00  0.00     0.027 C 
ENDBRANCH  43  44
ENDBRANCH  37  38
ENDBRANCH  35  36
ENDBRANCH  28  29
ENDBRANCH  13  28
BRANCH  18  46
HETATM   46  C29 UNL     1      17.498  31.870  14.381  1.00  0.00     0.031 C 
BRANCH  46  47
HETATM   47  C30 UNL     1      17.499  32.552  15.693  1.00  0.00     0.002 C 
BRANCH  47  48
HETATM   48  C31 UNL     1      17.370  34.037  15.529  1.00  0.00     0.002 C 
BRANCH  48  49
HETATM   49  C32 UNL     1      16.031  34.493  16.036  1.00  0.00     0.027 C 
BRANCH  49  50
HETATM   50  C33 UNL     1      15.985  34.246  17.542  1.00  0.00     0.229 C 
BRANCH  50  51
HETATM   51  N6  UNL     1      16.187  35.468  18.267  1.00  0.00    -0.079 N 
ATOM     52  H63 UNL     1      16.672  36.165  17.702  1.00  0.00     0.274 HD
ATOM     53  H62 UNL     1      15.310  35.968  18.412  1.00  0.00     0.274 HD
ATOM     54  H61 UNL     1      16.671  35.292  19.147  1.00  0.00     0.274 HD
ENDBRANCH  50  51
ENDBRANCH  49  50
ENDBRANCH  48  49
ENDBRANCH  47  48
ENDBRANCH  46  47
ENDBRANCH  18  46
BRANCH  21  55
HETATM   55  O3  UNL     1      18.291  27.301  15.180  1.00  0.00    -0.348 OA
ATOM     56  H3  UNL     1      18.316  26.393  14.901  1.00  0.00     0.219 HD
ENDBRANCH  21  55
BRANCH   1  57
HETATM   57  C3  UNL     1      20.661  25.169  11.035  1.00  0.00     0.034 C 
BRANCH  57  58
HETATM   58  C2  UNL     1      19.741  24.313  11.835  1.00  0.00    -0.002 C 
HETATM   59  C1  UNL     1      18.434  24.051  11.127  1.00  0.00     0.005 C 
ENDBRANCH  57  58
ENDBRANCH   1  57
TORSDOF 14
ENDMDL
MODEL 5
REMARK VINA RESULT: -9.449625907      3.495     11.417
REMARK  14 active torsions:
REMARK  status: ('A' for Active; 'I' for Inactive)
REMARK    1  A    between atoms: C2_2  and  C3_3 
REMARK    2  A    between atoms: C3_3  and  C4_4 
REMARK    3  A    between atoms: C10_16  and  C11_17 
REMARK    4  A    between atoms: C11_17  and  C12_18 
REMARK    5  A    between atoms: C17_24  and  C18_25 
REMARK    6  A    between atoms: C19_26  and  C20_27 
REMARK    7  A    between atoms: N4_32  and  C25_33 
REMARK    8  A    between atoms: C28_39  and  C29_40 
REMARK    9  A    between atoms: C29_40  and  C30_41 
REMARK   10  A    between atoms: C30_41  and  C31_42 
REMARK   11  A    between atoms: C31_42  and  C32_43 
REMARK   12  A    between atoms: C32_43  and  C33_44 
REMARK   13  A    between atoms: C33_44  and  N6_45 
REMARK   14  A    between atoms: C34_51  and  O3_52 
ROOT
HETATM    1  C4  UNL     1      22.722  31.061  14.374  1.00  0.00     0.176 C 
HETATM    2  N1  UNL     1      23.867  31.852  14.205  1.00  0.00    -0.346 N 
ATOM      3  H1  UNL     1      24.400  31.591  13.376  1.00  0.00     0.163 HD
HETATM    4  C5  UNL     1      24.472  32.947  14.924  1.00  0.00     0.246 C 
HETATM    5  O1  UNL     1      25.679  33.208  14.926  1.00  0.00    -0.271 OA
HETATM    6  C6  UNL     1      23.529  33.784  15.698  1.00  0.00     0.106 C 
HETATM    7  C7  UNL     1      22.743  34.436  14.650  1.00  0.00     0.048 C 
HETATM    8  C8  UNL     1      23.052  32.794  16.683  1.00  0.00     0.048 C 
HETATM    9  N2  UNL     1      23.965  34.874  16.511  1.00  0.00    -0.343 N 
ATOM     10  H2  UNL     1      24.927  35.211  16.475  1.00  0.00     0.163 HD
HETATM   11  C9  UNL     1      22.977  35.487  17.397  1.00  0.00     0.228 C 
HETATM   12  O2  UNL     1      23.520  35.754  18.545  1.00  0.00    -0.273 OA
HETATM   13  C10 UNL     1      21.610  35.819  17.225  1.00  0.00     0.129 C 
HETATM   14  C27 UNL     1      20.517  34.910  17.722  1.00  0.00     0.016 C 
HETATM   15  N5  UNL     1      20.512  34.506  18.930  1.00  0.00    -0.403 N 
ATOM     16  H51 UNL     1      19.772  33.891  19.266  1.00  0.00     0.155 HD
ATOM     17  H52 UNL     1      21.282  34.840  19.510  1.00  0.00     0.155 HD
HETATM   18  C28 UNL     1      19.376  34.416  16.861  1.00  0.00     0.129 C 
HETATM   19  N7  UNL     1      18.970  33.064  17.073  1.00  0.00    -0.363 N 
ATOM     20  H7  UNL     1      18.210  32.996  17.750  1.00  0.00     0.162 HD
HETATM   21  C34 UNL     1      19.351  31.814  16.588  1.00  0.00     0.135 C 
HETATM   22  C35 UNL     1      19.385  31.169  15.280  1.00  0.00     0.157 C 
HETATM   23  C36 UNL     1      17.938  30.890  14.772  1.00  0.00     0.041 C 
HETATM   24  N8  UNL     1      20.160  31.692  14.210  1.00  0.00    -0.343 N 
HETATM   25  C37 UNL     1      19.363  32.672  13.404  1.00  0.00     0.153 C 
HETATM   26  C38 UNL     1      21.443  31.466  13.741  1.00  0.00     0.243 C 
HETATM   27  O4  UNL     1      21.596  31.641  12.462  1.00  0.00    -0.271 OA
ENDROOT
BRANCH  13  28
HETATM   28  C11 UNL     1      21.157  37.220  17.680  1.00  0.00     0.059 C 
BRANCH  28  29
HETATM   29  C12 UNL     1      21.813  38.316  16.993  1.00  0.00    -0.045 A 
HETATM   30  C13 UNL     1      21.535  38.478  15.623  1.00  0.00     0.034 A 
HETATM   31  C14 UNL     1      22.209  39.405  14.870  1.00  0.00     0.046 A 
HETATM   32  N3  UNL     1      21.865  39.490  13.491  1.00  0.00    -0.102 NA
HETATM   33  C15 UNL     1      23.174  40.189  15.473  1.00  0.00     0.027 A 
HETATM   34  C16 UNL     1      23.460  40.049  16.818  1.00  0.00     0.014 A 
HETATM   35  C17 UNL     1      22.772  39.102  17.593  1.00  0.00    -0.030 A 
BRANCH  35  36
HETATM   36  C18 UNL     1      22.901  39.177  19.024  1.00  0.00     0.014 C 
HETATM   37  C19 UNL     1      23.898  39.163  19.819  1.00  0.00     0.030 C 
BRANCH  37  38
HETATM   38  C20 UNL     1      25.327  39.049  19.741  1.00  0.00     0.034 A 
HETATM   39  C21 UNL     1      26.108  39.952  19.052  1.00  0.00     0.029 A 
HETATM   40  C22 UNL     1      27.481  39.859  19.048  1.00  0.00     0.004 A 
HETATM   41  C23 UNL     1      28.116  38.863  19.731  1.00  0.00     0.017 A 
HETATM   42  C24 UNL     1      27.311  37.966  20.415  1.00  0.00     0.091 A 
HETATM   43  N4  UNL     1      25.983  38.052  20.422  1.00  0.00    -0.357 N 
BRANCH  43  44
HETATM   44  C25 UNL     1      25.225  37.083  21.171  1.00  0.00     0.124 C 
HETATM   45  C26 UNL     1      26.001  35.789  21.241  1.00  0.00     0.027 C 
ENDBRANCH  43  44
ENDBRANCH  37  38
ENDBRANCH  35  36
ENDBRANCH  28  29
ENDBRANCH  13  28
BRANCH  18  46
HETATM   46  C29 UNL     1      18.190  35.377  16.913  1.00  0.00     0.031 C 
BRANCH  46  47
HETATM   47  C30 UNL     1      17.381  35.288  18.148  1.00  0.00     0.002 C 
BRANCH  47  48
HETATM   48  C31 UNL     1      17.208  36.639  18.778  1.00  0.00     0.002 C 
BRANCH  48  49
HETATM   49  C32 UNL     1      17.407  37.712  17.745  1.00  0.00     0.027 C 
BRANCH  49  50
HETATM   50  C33 UNL     1      17.242  39.067  18.431  1.00  0.00     0.229 C 
BRANCH  50  51
HETATM   51  N6  UNL     1      16.672  38.911  19.738  1.00  0.00    -0.079 N 
ATOM     52  H63 UNL     1      17.237  39.370  20.453  1.00  0.00     0.274 HD
ATOM     53  H62 UNL     1      15.817  39.456  19.844  1.00  0.00     0.274 HD
ATOM     54  H61 UNL     1      16.521  37.926  19.953  1.00  0.00     0.274 HD
ENDBRANCH  50  51
ENDBRANCH  49  50
ENDBRANCH  48  49
ENDBRANCH  47  48
ENDBRANCH  46  47
ENDBRANCH  18  46
BRANCH  21  55
HETATM   55  O3  UNL     1      19.794  30.998  17.534  1.00  0.00    -0.348 OA
ATOM     56  H3  UNL     1      20.659  31.226  17.853  1.00  0.00     0.219 HD
ENDBRANCH  21  55
BRANCH   1  57
HETATM   57  C3  UNL     1      22.976  29.706  13.590  1.00  0.00     0.034 C 
BRANCH  57  58
HETATM   58  C2  UNL     1      22.019  28.677  14.086  1.00  0.00    -0.002 C 
HETATM   59  C1  UNL     1      21.400  27.876  12.966  1.00  0.00     0.005 C 
ENDBRANCH  57  58
ENDBRANCH   1  57
TORSDOF 14
ENDMDL
