MODEL 1
REMARK VINA RESULT: -4.744770670      0.000      0.000
REMARK  6 active torsions:
REMARK  status: ('A' for Active; 'I' for Inactive)
REMARK    1  A    between atoms: C2_2  and  C3_3 
REMARK    2  A    between atoms: N1_5  and  C5_6 
REMARK    3  A    between atoms: C5_6  and  C6_7 
REMARK    4  A    between atoms: C6_7  and  N2_8 
REMARK    5  A    between atoms: N2_8  and  C7_10 
REMARK    6  A    between atoms: C7_10  and  N3_12 
ROOT
HETATM    1  C5  UNL     1     -18.500   0.972 -20.335  1.00  0.00     0.292 C 
ENDROOT
BRANCH   1   2
HETATM    2  N1  UNL     1     -17.065   0.827 -20.390  1.00  0.00     0.094 N 
HETATM    3  C4  UNL     1     -16.642   0.304 -19.123  1.00  0.00     0.304 C 
HETATM    4  C3  UNL     1     -16.317  -1.126 -19.016  1.00  0.00     0.149 C 
HETATM    5  O1  UNL     1     -15.875  -1.728 -20.174  1.00  0.00    -0.382 OA
HETATM    6  C10 UNL     1     -16.560  -1.364 -21.296  1.00  0.00     0.198 C 
HETATM    7  C9  UNL     1     -16.610   0.105 -21.528  1.00  0.00     0.298 C 
BRANCH   4   8
HETATM    8  C2  UNL     1     -17.421  -1.960 -18.389  1.00  0.00     0.029 C 
HETATM    9  C1  UNL     1     -18.162  -1.152 -17.324  1.00  0.00     0.007 C 
ENDBRANCH   4   8
ENDBRANCH   1   2
BRANCH   1  10
HETATM   10  C6  UNL     1     -18.961   2.197 -19.620  1.00  0.00     0.152 C 
BRANCH  10  11
HETATM   11  N2  UNL     1     -19.805   1.828 -18.487  1.00  0.00    -0.366 N 
ATOM     12  H2  UNL     1     -20.635   1.261 -18.659  1.00  0.00     0.161 HD
BRANCH  11  13
HETATM   13  C7  UNL     1     -19.522   2.221 -17.173  1.00  0.00     0.167 C 
HETATM   14  S1  UNL     1     -20.779   2.264 -16.098  1.00  0.00    -0.041 SA
BRANCH  13  15
HETATM   15  N3  UNL     1     -18.225   2.581 -16.788  1.00  0.00    -0.372 N 
HETATM   16  C8  UNL     1     -17.710   2.130 -15.483  1.00  0.00     0.148 C 
ATOM     17  H3  UNL     1     -17.643   3.148 -17.405  1.00  0.00     0.161 HD
ENDBRANCH  13  15
ENDBRANCH  11  13
ENDBRANCH  10  11
ENDBRANCH   1  10
TORSDOF 6
ENDMDL
MODEL 2
REMARK VINA RESULT: -4.621374611      2.979      5.029
REMARK  6 active torsions:
REMARK  status: ('A' for Active; 'I' for Inactive)
REMARK    1  A    between atoms: C2_2  and  C3_3 
REMARK    2  A    between atoms: N1_5  and  C5_6 
REMARK    3  A    between atoms: C5_6  and  C6_7 
REMARK    4  A    between atoms: C6_7  and  N2_8 
REMARK    5  A    between atoms: N2_8  and  C7_10 
REMARK    6  A    between atoms: C7_10  and  N3_12 
ROOT
HETATM    1  C5  UNL     1     -18.895   2.068 -18.026  1.00  0.00     0.292 C 
ENDROOT
BRANCH   1   2
HETATM    2  N1  UNL     1     -18.682   2.006 -16.600  1.00  0.00     0.094 N 
HETATM    3  C4  UNL     1     -19.932   2.319 -15.969  1.00  0.00     0.304 C 
HETATM    4  C3  UNL     1     -20.749   1.224 -15.427  1.00  0.00     0.149 C 
HETATM    5  O1  UNL     1     -20.057   0.101 -15.028  1.00  0.00    -0.382 OA
HETATM    6  C10 UNL     1     -19.058  -0.277 -15.878  1.00  0.00     0.198 C 
HETATM    7  C9  UNL     1     -18.070   0.796 -16.169  1.00  0.00     0.298 C 
BRANCH   4   8
HETATM    8  C2  UNL     1     -21.910   0.825 -16.320  1.00  0.00     0.029 C 
HETATM    9  C1  UNL     1     -22.464   2.045 -17.054  1.00  0.00     0.007 C 
ENDBRANCH   4   8
ENDBRANCH   1   2
BRANCH   1  10
HETATM   10  C6  UNL     1     -17.662   2.353 -18.815  1.00  0.00     0.152 C 
BRANCH  10  11
HETATM   11  N2  UNL     1     -17.696   1.624 -20.080  1.00  0.00    -0.366 N 
ATOM     12  H2  UNL     1     -17.949   2.130 -20.929  1.00  0.00     0.161 HD
BRANCH  11  13
HETATM   13  C7  UNL     1     -17.398   0.259 -20.176  1.00  0.00     0.167 C 
HETATM   14  S1  UNL     1     -17.951  -0.555 -21.506  1.00  0.00    -0.041 SA
BRANCH  13  15
HETATM   15  N3  UNL     1     -16.673  -0.395 -19.173  1.00  0.00    -0.372 N 
HETATM   16  C8  UNL     1     -17.082  -1.748 -18.756  1.00  0.00     0.148 C 
ATOM     17  H3  UNL     1     -15.871   0.059 -18.736  1.00  0.00     0.161 HD
ENDBRANCH  13  15
ENDBRANCH  11  13
ENDBRANCH  10  11
ENDBRANCH   1  10
TORSDOF 6
ENDMDL
MODEL 3
REMARK VINA RESULT: -4.596151138      1.279      1.673
REMARK  6 active torsions:
REMARK  status: ('A' for Active; 'I' for Inactive)
REMARK    1  A    between atoms: C2_2  and  C3_3 
REMARK    2  A    between atoms: N1_5  and  C5_6 
REMARK    3  A    between atoms: C5_6  and  C6_7 
REMARK    4  A    between atoms: C6_7  and  N2_8 
REMARK    5  A    between atoms: N2_8  and  C7_10 
REMARK    6  A    between atoms: C7_10  and  N3_12 
ROOT
HETATM    1  C5  UNL     1     -18.550   1.186 -20.176  1.00  0.00     0.292 C 
ENDROOT
BRANCH   1   2
HETATM    2  N1  UNL     1     -17.145   0.899 -20.343  1.00  0.00     0.094 N 
HETATM    3  C4  UNL     1     -16.677   0.335 -19.110  1.00  0.00     0.304 C 
HETATM    4  C3  UNL     1     -16.488  -1.121 -19.020  1.00  0.00     0.149 C 
HETATM    5  O1  UNL     1     -16.201  -1.761 -20.206  1.00  0.00    -0.382 OA
HETATM    6  C10 UNL     1     -16.934  -1.329 -21.272  1.00  0.00     0.198 C 
HETATM    7  C9  UNL     1     -16.855   0.138 -21.509  1.00  0.00     0.298 C 
BRANCH   4   8
HETATM    8  C2  UNL     1     -17.616  -1.842 -18.304  1.00  0.00     0.029 C 
HETATM    9  C1  UNL     1     -18.195  -0.962 -17.196  1.00  0.00     0.007 C 
ENDBRANCH   4   8
ENDBRANCH   1   2
BRANCH   1  10
HETATM   10  C6  UNL     1     -18.860   2.050 -19.000  1.00  0.00     0.152 C 
BRANCH  10  11
HETATM   11  N2  UNL     1     -20.272   1.930 -18.647  1.00  0.00    -0.366 N 
ATOM     12  H2  UNL     1     -20.965   1.940 -19.395  1.00  0.00     0.161 HD
BRANCH  11  13
HETATM   13  C7  UNL     1     -20.713   1.802 -17.325  1.00  0.00     0.167 C 
HETATM   14  S1  UNL     1     -19.723   2.372 -16.127  1.00  0.00    -0.041 SA
BRANCH  13  15
HETATM   15  N3  UNL     1     -21.940   1.197 -17.027  1.00  0.00    -0.372 N 
HETATM   16  C8  UNL     1     -22.249   0.847 -15.629  1.00  0.00     0.148 C 
ATOM     17  H3  UNL     1     -22.612   1.001 -17.769  1.00  0.00     0.161 HD
ENDBRANCH  13  15
ENDBRANCH  11  13
ENDBRANCH  10  11
ENDBRANCH   1  10
TORSDOF 6
ENDMDL
MODEL 4
REMARK VINA RESULT: -4.535693789      3.075      5.470
REMARK  6 active torsions:
REMARK  status: ('A' for Active; 'I' for Inactive)
REMARK    1  A    between atoms: C2_2  and  C3_3 
REMARK    2  A    between atoms: N1_5  and  C5_6 
REMARK    3  A    between atoms: C5_6  and  C6_7 
REMARK    4  A    between atoms: C6_7  and  N2_8 
REMARK    5  A    between atoms: N2_8  and  C7_10 
REMARK    6  A    between atoms: C7_10  and  N3_12 
ROOT
HETATM    1  C5  UNL     1     -18.672   0.067 -16.818  1.00  0.00     0.292 C 
ENDROOT
BRANCH   1   2
HETATM    2  N1  UNL     1     -17.900   1.215 -16.406  1.00  0.00     0.094 N 
HETATM    3  C4  UNL     1     -18.728   2.372 -16.587  1.00  0.00     0.304 C 
HETATM    4  C3  UNL     1     -19.380   2.971 -15.413  1.00  0.00     0.149 C 
HETATM    5  O1  UNL     1     -18.732   2.788 -14.210  1.00  0.00    -0.382 OA
HETATM    6  C10 UNL     1     -18.228   1.534 -14.026  1.00  0.00     0.198 C 
HETATM    7  C9  UNL     1     -17.321   1.077 -15.113  1.00  0.00     0.298 C 
BRANCH   4   8
HETATM    8  C2  UNL     1     -20.846   2.602 -15.271  1.00  0.00     0.029 C 
HETATM    9  C1  UNL     1     -21.481   2.396 -16.645  1.00  0.00     0.007 C 
ENDBRANCH   4   8
ENDBRANCH   1   2
BRANCH   1  10
HETATM   10  C6  UNL     1     -17.931  -0.882 -17.698  1.00  0.00     0.152 C 
BRANCH  10  11
HETATM   11  N2  UNL     1     -17.026  -0.147 -18.577  1.00  0.00    -0.366 N 
ATOM     12  H2  UNL     1     -16.111   0.127 -18.218  1.00  0.00     0.161 HD
BRANCH  11  13
HETATM   13  C7  UNL     1     -17.361   0.197 -19.892  1.00  0.00     0.167 C 
HETATM   14  S1  UNL     1     -17.167  -0.959 -21.061  1.00  0.00    -0.041 SA
BRANCH  13  15
HETATM   15  N3  UNL     1     -17.825   1.479 -20.209  1.00  0.00    -0.372 N 
HETATM   16  C8  UNL     1     -19.272   1.754 -20.155  1.00  0.00     0.148 C 
ATOM     17  H3  UNL     1     -17.170   2.215 -20.474  1.00  0.00     0.161 HD
ENDBRANCH  13  15
ENDBRANCH  11  13
ENDBRANCH  10  11
ENDBRANCH   1  10
TORSDOF 6
ENDMDL
MODEL 5
REMARK VINA RESULT: -4.523441275      1.498      2.879
REMARK  6 active torsions:
REMARK  status: ('A' for Active; 'I' for Inactive)
REMARK    1  A    between atoms: C2_2  and  C3_3 
REMARK    2  A    between atoms: N1_5  and  C5_6 
REMARK    3  A    between atoms: C5_6  and  C6_7 
REMARK    4  A    between atoms: C6_7  and  N2_8 
REMARK    5  A    between atoms: N2_8  and  C7_10 
REMARK    6  A    between atoms: C7_10  and  N3_12 
ROOT
HETATM    1  C5  UNL     1     -17.230   1.155 -18.045  1.00  0.00     0.292 C 
ENDROOT
BRANCH   1   2
HETATM    2  N1  UNL     1     -18.013   0.047 -18.537  1.00  0.00     0.094 N 
HETATM    3  C4  UNL     1     -18.240   0.275 -19.934  1.00  0.00     0.304 C 
HETATM    4  C3  UNL     1     -17.432  -0.463 -20.917  1.00  0.00     0.149 C 
HETATM    5  O1  UNL     1     -16.960  -1.690 -20.503  1.00  0.00    -0.382 OA
HETATM    6  C10 UNL     1     -16.490  -1.710 -19.222  1.00  0.00     0.198 C 
HETATM    7  C9  UNL     1     -17.466  -1.225 -18.209  1.00  0.00     0.298 C 
BRANCH   4   8
HETATM    8  C2  UNL     1     -16.299   0.352 -21.514  1.00  0.00     0.029 C 
HETATM    9  C1  UNL     1     -16.594   1.847 -21.394  1.00  0.00     0.007 C 
ENDBRANCH   4   8
ENDBRANCH   1   2
BRANCH   1  10
HETATM   10  C6  UNL     1     -17.962   2.454 -18.018  1.00  0.00     0.152 C 
BRANCH  10  11
HETATM   11  N2  UNL     1     -18.235   2.848 -16.639  1.00  0.00    -0.366 N 
ATOM     12  H2  UNL     1     -17.517   3.359 -16.125  1.00  0.00     0.161 HD
BRANCH  11  13
HETATM   13  C7  UNL     1     -19.441   2.552 -15.992  1.00  0.00     0.167 C 
HETATM   14  S1  UNL     1     -19.668   3.170 -14.474  1.00  0.00    -0.041 SA
BRANCH  13  15
HETATM   15  N3  UNL     1     -20.410   1.746 -16.600  1.00  0.00    -0.372 N 
HETATM   16  C8  UNL     1     -21.808   2.212 -16.647  1.00  0.00     0.148 C 
ATOM     17  H3  UNL     1     -20.152   0.847 -17.008  1.00  0.00     0.161 HD
ENDBRANCH  13  15
ENDBRANCH  11  13
ENDBRANCH  10  11
ENDBRANCH   1  10
TORSDOF 6
ENDMDL
