MODEL 1
REMARK VINA RESULT: -5.483315602      0.000      0.000
REMARK  5 active torsions:
REMARK  status: ('A' for Active; 'I' for Inactive)
REMARK    1  A    between atoms: N1_1  and  C1_5 
REMARK    2  A    between atoms: C1_5  and  C2_6 
REMARK    3  A    between atoms: C1_5  and  C11_17 
REMARK    4  A    between atoms: C2_6  and  N2_7 
REMARK    5  A    between atoms: C5_10  and  N3_11 
ROOT
HETATM    1  C2  UNL     1     -17.608  -1.523 -18.285  1.00  0.00     0.103 C 
ENDROOT
BRANCH   1   2
HETATM    2  C1  UNL     1     -16.608  -0.962 -19.247  1.00  0.00     0.254 C 
BRANCH   2   3
HETATM    3  N1  UNL     1     -15.408  -1.708 -19.422  1.00  0.00    -0.068 N 
ATOM      4  H13 UNL     1     -14.669  -1.310 -18.843  1.00  0.00     0.275 HD
ATOM      5  H12 UNL     1     -15.508  -2.626 -18.991  1.00  0.00     0.275 HD
ATOM      6  H11 UNL     1     -15.073  -1.814 -20.380  1.00  0.00     0.275 HD
ENDBRANCH   2   3
BRANCH   2   7
HETATM    7  C11 UNL     1     -17.250  -0.608 -20.585  1.00  0.00     0.246 A 
HETATM    8  C12 UNL     1     -17.398   0.847 -20.834  1.00  0.00     0.268 A 
HETATM    9  N4  UNL     1     -16.408   0.048 -21.547  1.00  0.00    -0.065 N 
ATOM     10  H42 UNL     1     -15.399   0.118 -21.674  1.00  0.00     0.277 HD
ATOM     11  H41 UNL     1     -16.201  -0.110 -22.532  1.00  0.00     0.277 HD
ENDBRANCH   2   7
ENDBRANCH   1   2
BRANCH   1  12
HETATM   12  N2  UNL     1     -18.040  -0.652 -17.297  1.00  0.00    -0.350 N 
HETATM   13  C3  UNL     1     -18.836  -0.974 -16.229  1.00  0.00     0.070 C 
HETATM   14  C4  UNL     1     -18.851   0.243 -15.317  1.00  0.00     0.086 C 
HETATM   15  C5  UNL     1     -18.228   1.340 -16.071  1.00  0.00     0.266 C 
HETATM   16  C10 UNL     1     -17.596   0.676 -17.270  1.00  0.00     0.104 C 
BRANCH  15  17
HETATM   17  N3  UNL     1     -19.090   2.380 -16.561  1.00  0.00     0.098 N 
HETATM   18  C6  UNL     1     -20.095   2.594 -15.516  1.00  0.00     0.273 C 
HETATM   19  C7  UNL     1     -21.431   2.614 -16.164  1.00  0.00     0.032 C 
HETATM   20  C8  UNL     1     -21.248   1.887 -17.454  1.00  0.00     0.032 C 
HETATM   21  C9  UNL     1     -19.781   2.104 -17.769  1.00  0.00     0.273 C 
ENDBRANCH  15  17
ENDBRANCH   1  12
TORSDOF 5
ENDMDL
MODEL 2
REMARK VINA RESULT: -5.480100950      2.058      6.001
REMARK  5 active torsions:
REMARK  status: ('A' for Active; 'I' for Inactive)
REMARK    1  A    between atoms: N1_1  and  C1_5 
REMARK    2  A    between atoms: C1_5  and  C2_6 
REMARK    3  A    between atoms: C1_5  and  C11_17 
REMARK    4  A    between atoms: C2_6  and  N2_7 
REMARK    5  A    between atoms: C5_10  and  N3_11 
ROOT
HETATM    1  C2  UNL     1     -20.119   0.529 -15.722  1.00  0.00     0.103 C 
ENDROOT
BRANCH   1   2
HETATM    2  C1  UNL     1     -21.417   1.272 -15.764  1.00  0.00     0.254 C 
BRANCH   2   3
HETATM    3  N1  UNL     1     -22.349   0.868 -16.761  1.00  0.00    -0.068 N 
ATOM      4  H13 UNL     1     -21.849   0.570 -17.598  1.00  0.00     0.275 HD
ATOM      5  H12 UNL     1     -22.789  -0.010 -16.485  1.00  0.00     0.275 HD
ATOM      6  H11 UNL     1     -23.068   1.546 -17.015  1.00  0.00     0.275 HD
ENDBRANCH   2   3
BRANCH   2   7
HETATM    7  C11 UNL     1     -22.067   1.350 -14.386  1.00  0.00     0.246 A 
HETATM    8  C12 UNL     1     -21.959   2.673 -13.725  1.00  0.00     0.268 A 
HETATM    9  N4  UNL     1     -23.224   2.193 -14.269  1.00  0.00    -0.065 N 
ATOM     10  H42 UNL     1     -23.897   2.569 -14.936  1.00  0.00     0.277 HD
ATOM     11  H41 UNL     1     -24.159   2.065 -13.883  1.00  0.00     0.277 HD
ENDBRANCH   2   7
ENDBRANCH   1   2
BRANCH   1  12
HETATM   12  N2  UNL     1     -19.213   0.852 -16.719  1.00  0.00    -0.350 N 
HETATM   13  C3  UNL     1     -18.963   2.109 -17.207  1.00  0.00     0.070 C 
HETATM   14  C4  UNL     1     -17.750   1.987 -18.116  1.00  0.00     0.086 C 
HETATM   15  C5  UNL     1     -17.506   0.550 -18.302  1.00  0.00     0.266 C 
HETATM   16  C10 UNL     1     -18.376  -0.126 -17.270  1.00  0.00     0.104 C 
BRANCH  15  17
HETATM   17  N3  UNL     1     -17.835  -0.017 -19.580  1.00  0.00     0.098 N 
HETATM   18  C6  UNL     1     -16.956  -1.178 -19.743  1.00  0.00     0.273 C 
HETATM   19  C7  UNL     1     -16.350  -1.106 -21.097  1.00  0.00     0.032 C 
HETATM   20  C8  UNL     1     -16.445   0.330 -21.489  1.00  0.00     0.032 C 
HETATM   21  C9  UNL     1     -17.647   0.824 -20.706  1.00  0.00     0.273 C 
ENDBRANCH  15  17
ENDBRANCH   1  12
TORSDOF 5
ENDMDL
MODEL 3
REMARK VINA RESULT: -5.422931444      1.707      2.787
REMARK  5 active torsions:
REMARK  status: ('A' for Active; 'I' for Inactive)
REMARK    1  A    between atoms: N1_1  and  C1_5 
REMARK    2  A    between atoms: C1_5  and  C2_6 
REMARK    3  A    between atoms: C1_5  and  C11_17 
REMARK    4  A    between atoms: C2_6  and  N2_7 
REMARK    5  A    between atoms: C5_10  and  N3_11 
ROOT
HETATM    1  C2  UNL     1     -18.134   1.408 -20.359  1.00  0.00     0.103 C 
ENDROOT
BRANCH   1   2
HETATM    2  C1  UNL     1     -17.897  -0.034 -20.684  1.00  0.00     0.254 C 
BRANCH   2   3
HETATM    3  N1  UNL     1     -18.485  -0.519 -21.887  1.00  0.00    -0.068 N 
ATOM      4  H13 UNL     1     -19.457  -0.774 -21.715  1.00  0.00     0.275 HD
ATOM      5  H12 UNL     1     -18.608   0.251 -22.544  1.00  0.00     0.275 HD
ATOM      6  H11 UNL     1     -18.004  -1.291 -22.350  1.00  0.00     0.275 HD
ENDBRANCH   2   3
BRANCH   2   7
HETATM    7  C11 UNL     1     -16.417  -0.396 -20.596  1.00  0.00     0.246 A 
HETATM    8  C12 UNL     1     -16.092  -1.427 -19.581  1.00  0.00     0.268 A 
HETATM    9  N4  UNL     1     -16.057  -1.724 -21.008  1.00  0.00    -0.065 N 
ATOM     10  H42 UNL     1     -16.499  -2.429 -21.597  1.00  0.00     0.277 HD
ATOM     11  H41 UNL     1     -15.348  -2.104 -21.635  1.00  0.00     0.277 HD
ENDBRANCH   2   7
ENDBRANCH   1   2
BRANCH   1  12
HETATM   12  N2  UNL     1     -18.494   1.673 -19.048  1.00  0.00    -0.350 N 
HETATM   13  C3  UNL     1     -17.640   1.991 -18.025  1.00  0.00     0.070 C 
HETATM   14  C4  UNL     1     -18.509   2.407 -16.848  1.00  0.00     0.086 C 
HETATM   15  C5  UNL     1     -19.891   2.053 -17.201  1.00  0.00     0.266 C 
HETATM   16  C10 UNL     1     -19.842   1.726 -18.673  1.00  0.00     0.104 C 
BRANCH  15  17
HETATM   17  N3  UNL     1     -20.478   0.926 -16.529  1.00  0.00     0.098 N 
HETATM   18  C6  UNL     1     -21.925   1.053 -16.722  1.00  0.00     0.273 C 
HETATM   19  C7  UNL     1     -22.581   0.858 -15.404  1.00  0.00     0.032 C 
HETATM   20  C8  UNL     1     -21.522   1.158 -14.396  1.00  0.00     0.032 C 
HETATM   21  C9  UNL     1     -20.238   0.834 -15.134  1.00  0.00     0.273 C 
ENDBRANCH  15  17
ENDBRANCH   1  12
TORSDOF 5
ENDMDL
MODEL 4
REMARK VINA RESULT: -5.388863860      1.994      5.442
REMARK  5 active torsions:
REMARK  status: ('A' for Active; 'I' for Inactive)
REMARK    1  A    between atoms: N1_1  and  C1_5 
REMARK    2  A    between atoms: C1_5  and  C2_6 
REMARK    3  A    between atoms: C1_5  and  C11_17 
REMARK    4  A    between atoms: C2_6  and  N2_7 
REMARK    5  A    between atoms: C5_10  and  N3_11 
ROOT
HETATM    1  C2  UNL     1     -18.609   0.708 -15.006  1.00  0.00     0.103 C 
ENDROOT
BRANCH   1   2
HETATM    2  C1  UNL     1     -19.706  -0.307 -14.927  1.00  0.00     0.254 C 
BRANCH   2   3
HETATM    3  N1  UNL     1     -19.395  -1.529 -14.266  1.00  0.00    -0.068 N 
ATOM      4  H13 UNL     1     -18.488  -1.871 -14.584  1.00  0.00     0.275 HD
ATOM      5  H12 UNL     1     -19.190  -1.345 -13.283  1.00  0.00     0.275 HD
ATOM      6  H11 UNL     1     -20.087  -2.275 -14.337  1.00  0.00     0.275 HD
ENDBRANCH   2   3
BRANCH   2   7
HETATM    7  C11 UNL     1     -21.002   0.302 -14.401  1.00  0.00     0.246 A 
HETATM    8  C12 UNL     1     -22.028   0.564 -15.440  1.00  0.00     0.268 A 
HETATM    9  N4  UNL     1     -22.176  -0.522 -14.479  1.00  0.00    -0.065 N 
ATOM     10  H42 UNL     1     -22.333  -1.526 -14.562  1.00  0.00     0.277 HD
ATOM     11  H41 UNL     1     -22.902  -0.786 -13.813  1.00  0.00     0.277 HD
ENDBRANCH   2   7
ENDBRANCH   1   2
BRANCH   1  12
HETATM   12  N2  UNL     1     -18.340   1.200 -16.273  1.00  0.00    -0.350 N 
HETATM   13  C3  UNL     1     -18.846   2.352 -16.816  1.00  0.00     0.070 C 
HETATM   14  C4  UNL     1     -18.098   2.581 -18.121  1.00  0.00     0.086 C 
HETATM   15  C5  UNL     1     -17.335   1.353 -18.388  1.00  0.00     0.266 C 
HETATM   16  C10 UNL     1     -17.409   0.564 -17.104  1.00  0.00     0.104 C 
BRANCH  15  17
HETATM   17  N3  UNL     1     -17.804   0.500 -19.445  1.00  0.00     0.098 N 
HETATM   18  C6  UNL     1     -16.999  -0.722 -19.362  1.00  0.00     0.273 C 
HETATM   19  C7  UNL     1     -16.513  -1.043 -20.727  1.00  0.00     0.032 C 
HETATM   20  C8  UNL     1     -16.574   0.246 -21.475  1.00  0.00     0.032 C 
HETATM   21  C9  UNL     1     -17.676   1.007 -20.763  1.00  0.00     0.273 C 
ENDBRANCH  15  17
ENDBRANCH   1  12
TORSDOF 5
ENDMDL
MODEL 5
REMARK VINA RESULT: -5.341957475      1.249      1.741
REMARK  5 active torsions:
REMARK  status: ('A' for Active; 'I' for Inactive)
REMARK    1  A    between atoms: N1_1  and  C1_5 
REMARK    2  A    between atoms: C1_5  and  C2_6 
REMARK    3  A    between atoms: C1_5  and  C11_17 
REMARK    4  A    between atoms: C2_6  and  N2_7 
REMARK    5  A    between atoms: C5_10  and  N3_11 
ROOT
HETATM    1  C2  UNL     1     -17.640  -0.952 -18.059  1.00  0.00     0.103 C 
ENDROOT
BRANCH   1   2
HETATM    2  C1  UNL     1     -16.678  -0.709 -19.180  1.00  0.00     0.254 C 
BRANCH   2   3
HETATM    3  N1  UNL     1     -15.742  -1.748 -19.449  1.00  0.00    -0.068 N 
ATOM      4  H13 UNL     1     -15.184  -1.932 -18.616  1.00  0.00     0.275 HD
ATOM      5  H12 UNL     1     -16.233  -2.637 -19.545  1.00  0.00     0.275 HD
ATOM      6  H11 UNL     1     -15.125  -1.609 -20.250  1.00  0.00     0.275 HD
ENDBRANCH   2   3
BRANCH   2   7
HETATM    7  C11 UNL     1     -17.393  -0.255 -20.448  1.00  0.00     0.246 A 
HETATM    8  C12 UNL     1     -17.273   1.195 -20.740  1.00  0.00     0.268 A 
HETATM    9  N4  UNL     1     -16.559   0.196 -21.528  1.00  0.00    -0.065 N 
ATOM     10  H42 UNL     1     -15.580   0.056 -21.774  1.00  0.00     0.277 HD
ATOM     11  H41 UNL     1     -16.510  -0.018 -22.523  1.00  0.00     0.277 HD
ENDBRANCH   2   7
ENDBRANCH   1   2
BRANCH   1  12
HETATM   12  N2  UNL     1     -17.956   0.159 -17.292  1.00  0.00    -0.350 N 
HETATM   13  C3  UNL     1     -17.073   0.920 -16.572  1.00  0.00     0.070 C 
HETATM   14  C4  UNL     1     -17.845   2.138 -16.088  1.00  0.00     0.086 C 
HETATM   15  C5  UNL     1     -19.264   1.872 -16.366  1.00  0.00     0.266 C 
HETATM   16  C10 UNL     1     -19.262   0.663 -17.268  1.00  0.00     0.104 C 
BRANCH  15  17
HETATM   17  N3  UNL     1     -20.112   1.572 -15.246  1.00  0.00     0.098 N 
HETATM   18  C6  UNL     1     -21.024   0.520 -15.704  1.00  0.00     0.273 C 
HETATM   19  C7  UNL     1     -22.403   0.909 -15.314  1.00  0.00     0.032 C 
HETATM   20  C8  UNL     1     -22.352   2.388 -15.131  1.00  0.00     0.032 C 
HETATM   21  C9  UNL     1     -20.905   2.642 -14.756  1.00  0.00     0.273 C 
ENDBRANCH  15  17
ENDBRANCH   1  12
TORSDOF 5
ENDMDL
