MODEL 1
REMARK VINA RESULT: -6.055669022      0.000      0.000
REMARK  5 active torsions:
REMARK  status: ('A' for Active; 'I' for Inactive)
REMARK    1  A    between atoms: O1_1  and  C1_3 
REMARK    2  A    between atoms: C1_3  and  C2_4 
REMARK    3  A    between atoms: C2_4  and  N1_5 
REMARK    4  A    between atoms: C2_4  and  C10_15 
REMARK    5  A    between atoms: N1_5  and  C3_7 
ROOT
HETATM    1  N1  UNL     1     -17.086   0.130 -17.878  1.00  0.00    -0.408 N 
ATOM      2  H1  UNL     1     -16.081   0.295 -17.907  1.00  0.00     0.154 HD
ENDROOT
BRANCH   1   3
HETATM    3  C2  UNL     1     -17.633  -0.713 -18.841  1.00  0.00     0.104 C 
BRANCH   3   4
HETATM    4  C1  UNL     1     -16.741  -1.978 -18.824  1.00  0.00     0.189 C 
BRANCH   4   5
HETATM    5  O1  UNL     1     -17.372  -2.983 -18.068  1.00  0.00    -0.399 OA
ATOM      6  H1  UNL     1     -17.111  -2.902 -17.158  1.00  0.00     0.209 HD
ENDBRANCH   4   5
ENDBRANCH   3   4
BRANCH   3   7
HETATM    7  C10 UNL     1     -17.635  -0.272 -20.258  1.00  0.00     0.010 C 
HETATM    8  C11 UNL     1     -17.302   1.135 -20.592  1.00  0.00     0.007 C 
HETATM    9  C12 UNL     1     -16.485   0.625 -21.767  1.00  0.00     0.001 C 
HETATM   10  C13 UNL     1     -16.391  -0.700 -21.008  1.00  0.00     0.007 C 
ENDBRANCH   3   7
ENDBRANCH   1   3
BRANCH   1  11
HETATM   11  C3  UNL     1     -17.811   0.759 -16.885  1.00  0.00     0.111 C 
HETATM   12  C4  UNL     1     -18.986  -0.149 -16.505  1.00  0.00     0.297 C 
HETATM   13  N2  UNL     1     -20.151   0.677 -16.470  1.00  0.00     0.090 N 
HETATM   14  C5  UNL     1     -20.247   1.267 -15.165  1.00  0.00     0.272 C 
HETATM   15  C9  UNL     1     -19.917   1.708 -17.474  1.00  0.00     0.279 C 
HETATM   16  C6  UNL     1     -19.054   2.057 -14.749  1.00  0.00     0.031 C 
HETATM   17  C7  UNL     1     -18.510   2.878 -15.887  1.00  0.00     0.010 C 
HETATM   18  C8  UNL     1     -18.462   2.054 -17.160  1.00  0.00     0.038 C 
ENDBRANCH   1  11
TORSDOF 5
ENDMDL
MODEL 2
REMARK VINA RESULT: -5.932892448      0.911      1.353
REMARK  5 active torsions:
REMARK  status: ('A' for Active; 'I' for Inactive)
REMARK    1  A    between atoms: O1_1  and  C1_3 
REMARK    2  A    between atoms: C1_3  and  C2_4 
REMARK    3  A    between atoms: C2_4  and  N1_5 
REMARK    4  A    between atoms: C2_4  and  C10_15 
REMARK    5  A    between atoms: N1_5  and  C3_7 
ROOT
HETATM    1  N1  UNL     1     -17.117   0.196 -17.899  1.00  0.00    -0.408 N 
ATOM      2  H1  UNL     1     -16.101   0.218 -17.813  1.00  0.00     0.154 HD
ENDROOT
BRANCH   1   3
HETATM    3  C2  UNL     1     -17.668  -0.667 -18.841  1.00  0.00     0.104 C 
BRANCH   3   4
HETATM    4  C1  UNL     1     -16.790  -1.941 -18.787  1.00  0.00     0.189 C 
BRANCH   4   5
HETATM    5  O1  UNL     1     -17.446  -2.927 -18.027  1.00  0.00    -0.399 OA
ATOM      6  H1  UNL     1     -16.815  -3.364 -17.468  1.00  0.00     0.209 HD
ENDBRANCH   4   5
ENDBRANCH   3   4
BRANCH   3   7
HETATM    7  C10 UNL     1     -17.659  -0.264 -20.270  1.00  0.00     0.010 C 
HETATM    8  C11 UNL     1     -17.217   1.101 -20.648  1.00  0.00     0.007 C 
HETATM    9  C12 UNL     1     -16.467   0.494 -21.820  1.00  0.00     0.001 C 
HETATM   10  C13 UNL     1     -16.469  -0.813 -21.027  1.00  0.00     0.007 C 
ENDBRANCH   3   7
ENDBRANCH   1   3
BRANCH   1  11
HETATM   11  C3  UNL     1     -17.849   1.023 -17.071  1.00  0.00     0.111 C 
HETATM   12  C4  UNL     1     -17.235   0.958 -15.668  1.00  0.00     0.297 C 
HETATM   13  N2  UNL     1     -18.317   0.775 -14.753  1.00  0.00     0.090 N 
HETATM   14  C5  UNL     1     -18.842   2.067 -14.411  1.00  0.00     0.272 C 
HETATM   15  C9  UNL     1     -19.313   0.005 -15.488  1.00  0.00     0.279 C 
HETATM   16  C6  UNL     1     -19.294   2.883 -15.572  1.00  0.00     0.031 C 
HETATM   17  C7  UNL     1     -20.018   2.043 -16.590  1.00  0.00     0.010 C 
HETATM   18  C8  UNL     1     -19.276   0.741 -16.828  1.00  0.00     0.038 C 
ENDBRANCH   1  11
TORSDOF 5
ENDMDL
MODEL 3
REMARK VINA RESULT: -5.849104160      1.978      2.760
REMARK  5 active torsions:
REMARK  status: ('A' for Active; 'I' for Inactive)
REMARK    1  A    between atoms: O1_1  and  C1_3 
REMARK    2  A    between atoms: C1_3  and  C2_4 
REMARK    3  A    between atoms: C2_4  and  N1_5 
REMARK    4  A    between atoms: C2_4  and  C10_15 
REMARK    5  A    between atoms: N1_5  and  C3_7 
ROOT
HETATM    1  N1  UNL     1     -18.032   1.341 -18.344  1.00  0.00    -0.408 N 
ATOM      2  H1  UNL     1     -17.238   0.871 -17.910  1.00  0.00     0.154 HD
ENDROOT
BRANCH   1   3
HETATM    3  C2  UNL     1     -17.994   1.540 -19.721  1.00  0.00     0.104 C 
BRANCH   3   4
HETATM    4  C1  UNL     1     -19.404   2.058 -20.095  1.00  0.00     0.189 C 
BRANCH   4   5
HETATM    5  O1  UNL     1     -19.956   1.230 -21.090  1.00  0.00    -0.399 OA
ATOM      6  H1  UNL     1     -20.190   1.759 -21.843  1.00  0.00     0.209 HD
ENDBRANCH   4   5
ENDBRANCH   3   4
BRANCH   3   7
HETATM    7  C10 UNL     1     -17.776   0.369 -20.607  1.00  0.00     0.010 C 
HETATM    8  C11 UNL     1     -16.559   0.302 -21.453  1.00  0.00     0.007 C 
HETATM    9  C12 UNL     1     -16.439  -1.170 -21.100  1.00  0.00     0.001 C 
HETATM   10  C13 UNL     1     -17.271  -0.847 -19.858  1.00  0.00     0.007 C 
ENDBRANCH   3   7
ENDBRANCH   1   3
BRANCH   1  11
HETATM   11  C3  UNL     1     -19.071   1.734 -17.524  1.00  0.00     0.111 C 
HETATM   12  C4  UNL     1     -18.500   2.660 -16.444  1.00  0.00     0.297 C 
HETATM   13  N2  UNL     1     -19.031   2.211 -15.195  1.00  0.00     0.090 N 
HETATM   14  C5  UNL     1     -20.305   2.841 -14.994  1.00  0.00     0.272 C 
HETATM   15  C9  UNL     1     -19.199   0.771 -15.348  1.00  0.00     0.279 C 
HETATM   16  C6  UNL     1     -21.297   2.602 -16.080  1.00  0.00     0.031 C 
HETATM   17  C7  UNL     1     -21.251   1.179 -16.568  1.00  0.00     0.010 C 
HETATM   18  C8  UNL     1     -19.814   0.725 -16.746  1.00  0.00     0.038 C 
ENDBRANCH   1  11
TORSDOF 5
ENDMDL
MODEL 4
REMARK VINA RESULT: -5.740012037      2.132      2.921
REMARK  5 active torsions:
REMARK  status: ('A' for Active; 'I' for Inactive)
REMARK    1  A    between atoms: O1_1  and  C1_3 
REMARK    2  A    between atoms: C1_3  and  C2_4 
REMARK    3  A    between atoms: C2_4  and  N1_5 
REMARK    4  A    between atoms: C2_4  and  C10_15 
REMARK    5  A    between atoms: N1_5  and  C3_7 
ROOT
HETATM    1  N1  UNL     1     -17.537   1.912 -18.967  1.00  0.00    -0.408 N 
ATOM      2  H1  UNL     1     -16.688   2.441 -18.770  1.00  0.00     0.154 HD
ENDROOT
BRANCH   1   3
HETATM    3  C2  UNL     1     -17.879   1.709 -20.300  1.00  0.00     0.104 C 
BRANCH   3   4
HETATM    4  C1  UNL     1     -19.367   1.280 -20.276  1.00  0.00     0.189 C 
BRANCH   4   5
HETATM    5  O1  UNL     1     -20.175   2.387 -20.596  1.00  0.00    -0.399 OA
ATOM      6  H1  UNL     1     -20.472   2.801 -19.794  1.00  0.00     0.209 HD
ENDBRANCH   4   5
ENDBRANCH   3   4
BRANCH   3   7
HETATM    7  C10 UNL     1     -17.190   0.634 -21.059  1.00  0.00     0.010 C 
HETATM    8  C11 UNL     1     -16.429  -0.409 -20.330  1.00  0.00     0.007 C 
HETATM    9  C12 UNL     1     -17.002  -1.443 -21.284  1.00  0.00     0.001 C 
HETATM   10  C13 UNL     1     -18.136  -0.447 -21.535  1.00  0.00     0.007 C 
ENDBRANCH   3   7
ENDBRANCH   1   3
BRANCH   1  11
HETATM   11  C3  UNL     1     -18.268   1.447 -17.891  1.00  0.00     0.111 C 
HETATM   12  C4  UNL     1     -18.458   2.607 -16.908  1.00  0.00     0.297 C 
HETATM   13  N2  UNL     1     -18.140   2.103 -15.609  1.00  0.00     0.090 N 
HETATM   14  C5  UNL     1     -19.321   1.503 -15.056  1.00  0.00     0.272 C 
HETATM   15  C9  UNL     1     -17.117   1.088 -15.834  1.00  0.00     0.279 C 
HETATM   16  C6  UNL     1     -19.917   0.420 -15.887  1.00  0.00     0.031 C 
HETATM   17  C7  UNL     1     -18.857  -0.465 -16.486  1.00  0.00     0.010 C 
HETATM   18  C8  UNL     1     -17.720   0.372 -17.043  1.00  0.00     0.038 C 
ENDBRANCH   1  11
TORSDOF 5
ENDMDL
MODEL 5
REMARK VINA RESULT: -5.562770354      2.076      2.709
REMARK  5 active torsions:
REMARK  status: ('A' for Active; 'I' for Inactive)
REMARK    1  A    between atoms: O1_1  and  C1_3 
REMARK    2  A    between atoms: C1_3  and  C2_4 
REMARK    3  A    between atoms: C2_4  and  N1_5 
REMARK    4  A    between atoms: C2_4  and  C10_15 
REMARK    5  A    between atoms: N1_5  and  C3_7 
ROOT
HETATM    1  N1  UNL     1     -18.269   0.443 -17.328  1.00  0.00    -0.408 N 
ATOM      2  H1  UNL     1     -18.027  -0.451 -16.903  1.00  0.00     0.154 HD
ENDROOT
BRANCH   1   3
HETATM    3  C2  UNL     1     -17.576   0.826 -18.472  1.00  0.00     0.104 C 
BRANCH   3   4
HETATM    4  C1  UNL     1     -18.234   2.155 -18.919  1.00  0.00     0.189 C 
BRANCH   4   5
HETATM    5  O1  UNL     1     -17.390   3.229 -18.580  1.00  0.00    -0.399 OA
ATOM      6  H1  UNL     1     -17.866   3.840 -18.030  1.00  0.00     0.209 HD
ENDBRANCH   4   5
ENDBRANCH   3   4
BRANCH   3   7
HETATM    7  C10 UNL     1     -17.640  -0.048 -19.671  1.00  0.00     0.010 C 
HETATM    8  C11 UNL     1     -16.934   0.353 -20.913  1.00  0.00     0.007 C 
HETATM    9  C12 UNL     1     -16.492  -1.089 -21.085  1.00  0.00     0.001 C 
HETATM   10  C13 UNL     1     -16.712  -1.240 -19.578  1.00  0.00     0.007 C 
ENDBRANCH   3   7
ENDBRANCH   1   3
BRANCH   1  11
HETATM   11  C3  UNL     1     -19.262   1.191 -16.726  1.00  0.00     0.111 C 
HETATM   12  C4  UNL     1     -18.783   1.576 -15.322  1.00  0.00     0.297 C 
HETATM   13  N2  UNL     1     -19.863   1.295 -14.428  1.00  0.00     0.090 N 
HETATM   14  C5  UNL     1     -20.730   2.438 -14.393  1.00  0.00     0.272 C 
HETATM   15  C9  UNL     1     -20.556   0.154 -15.014  1.00  0.00     0.279 C 
HETATM   16  C6  UNL     1     -21.267   2.853 -15.720  1.00  0.00     0.031 C 
HETATM   17  C7  UNL     1     -21.655   1.663 -16.557  1.00  0.00     0.010 C 
HETATM   18  C8  UNL     1     -20.585   0.589 -16.479  1.00  0.00     0.038 C 
ENDBRANCH   1  11
TORSDOF 5
ENDMDL
