MODEL 1
REMARK VINA RESULT: -5.985974523      0.000      0.000
REMARK  5 active torsions:
REMARK  status: ('A' for Active; 'I' for Inactive)
REMARK    1  A    between atoms: N1_2  and  C2_5 
REMARK    2  A    between atoms: C2_5  and  C3_6 
REMARK    3  A    between atoms: N2_7  and  C4_9 
REMARK    4  A    between atoms: C4_9  and  C5_10 
REMARK    5  A    between atoms: C5_10  and  S1_11 
ROOT
HETATM    1  C4  UNL     1     -18.613   1.497 -17.694  1.00  0.00     0.041 C 
HETATM    2  C7  UNL     1     -19.094   1.985 -19.041  1.00  0.00     0.032 C 
HETATM    3  C8  UNL     1     -17.970   1.997 -20.057  1.00  0.00     0.004 C 
HETATM    4  C9  UNL     1     -17.595   0.568 -20.313  1.00  0.00     0.019 C 
HETATM    5  C10 UNL     1     -17.465  -0.256 -19.077  1.00  0.00     0.095 C 
HETATM    6  C11 UNL     1     -16.167  -0.958 -19.129  1.00  0.00     0.064 C 
HETATM    7  N3  UNL     1     -15.143  -1.500 -19.181  1.00  0.00    -0.197 NA
HETATM    8  C12 UNL     1     -17.480   0.544 -17.803  1.00  0.00     0.051 C 
ENDROOT
BRANCH   1   9
HETATM    9  N2  UNL     1     -19.757   0.784 -17.103  1.00  0.00    -0.391 N 
HETATM   10  C3  UNL     1     -20.851   1.419 -17.047  1.00  0.00     0.083 C 
ATOM     11  H2  UNL     1     -19.673  -0.172 -16.756  1.00  0.00     0.159 HD
BRANCH  10  12
HETATM   12  C2  UNL     1     -22.092   0.825 -16.475  1.00  0.00     0.275 C 
BRANCH  12  13
HETATM   13  N1  UNL     1     -21.761   0.365 -15.133  1.00  0.00    -0.075 N 
HETATM   14  C1  UNL     1     -22.884  -0.354 -14.561  1.00  0.00     0.267 C 
ATOM     15  H12 UNL     1     -21.453   1.129 -14.532  1.00  0.00     0.277 HD
ATOM     16  H11 UNL     1     -20.906  -0.190 -15.119  1.00  0.00     0.277 HD
ENDBRANCH  12  13
ENDBRANCH  10  12
ENDBRANCH   1   9
BRANCH   1  17
HETATM   17  C5  UNL     1     -18.410   2.669 -16.784  1.00  0.00     0.139 C 
BRANCH  17  18
HETATM   18  S1  UNL     1     -17.916   2.331 -15.150  1.00  0.00     0.013 S 
HETATM   19  C6  UNL     1     -18.639   3.573 -14.067  1.00  0.00     0.127 C 
HETATM   20  O1  UNL     1     -18.520   0.867 -14.596  1.00  0.00    -0.258 OA
ENDBRANCH  17  18
ENDBRANCH   1  17
TORSDOF 5
ENDMDL
MODEL 2
REMARK VINA RESULT: -5.669295278      1.412      1.459
REMARK  5 active torsions:
REMARK  status: ('A' for Active; 'I' for Inactive)
REMARK    1  A    between atoms: N1_2  and  C2_5 
REMARK    2  A    between atoms: C2_5  and  C3_6 
REMARK    3  A    between atoms: N2_7  and  C4_9 
REMARK    4  A    between atoms: C4_9  and  C5_10 
REMARK    5  A    between atoms: C5_10  and  S1_11 
ROOT
HETATM    1  C4  UNL     1     -18.579   1.053 -16.856  1.00  0.00     0.041 C 
HETATM    2  C7  UNL     1     -18.753   2.314 -17.672  1.00  0.00     0.032 C 
HETATM    3  C8  UNL     1     -17.648   2.464 -18.698  1.00  0.00     0.004 C 
HETATM    4  C9  UNL     1     -17.831   1.366 -19.703  1.00  0.00     0.019 C 
HETATM    5  C10 UNL     1     -18.102   0.031 -19.100  1.00  0.00     0.095 C 
HETATM    6  C11 UNL     1     -17.170  -0.942 -19.702  1.00  0.00     0.064 C 
HETATM    7  N3  UNL     1     -16.428  -1.696 -20.182  1.00  0.00    -0.197 NA
HETATM    8  C12 UNL     1     -17.890  -0.024 -17.611  1.00  0.00     0.051 C 
ENDROOT
BRANCH   1   9
HETATM    9  N2  UNL     1     -19.943   0.595 -16.545  1.00  0.00    -0.391 N 
HETATM   10  C3  UNL     1     -20.891   1.342 -16.930  1.00  0.00     0.083 C 
ATOM     11  H2  UNL     1     -20.115  -0.277 -16.045  1.00  0.00     0.159 HD
BRANCH  10  12
HETATM   12  C2  UNL     1     -22.322   1.006 -16.686  1.00  0.00     0.275 C 
BRANCH  12  13
HETATM   13  N1  UNL     1     -22.500   0.943 -15.241  1.00  0.00    -0.075 N 
HETATM   14  C1  UNL     1     -23.107  -0.320 -14.869  1.00  0.00     0.267 C 
ATOM     15  H12 UNL     1     -23.030   1.739 -14.886  1.00  0.00     0.277 HD
ATOM     16  H11 UNL     1     -21.627   1.109 -14.741  1.00  0.00     0.277 HD
ENDBRANCH  12  13
ENDBRANCH  10  12
ENDBRANCH   1   9
BRANCH   1  17
HETATM   17  C5  UNL     1     -18.001   1.401 -15.519  1.00  0.00     0.139 C 
BRANCH  17  18
HETATM   18  S1  UNL     1     -18.571   0.497 -14.147  1.00  0.00     0.013 S 
HETATM   19  C6  UNL     1     -17.359   0.641 -12.825  1.00  0.00     0.127 C 
HETATM   20  O1  UNL     1     -19.985   1.137 -13.510  1.00  0.00    -0.258 OA
ENDBRANCH  17  18
ENDBRANCH   1  17
TORSDOF 5
ENDMDL
MODEL 3
REMARK VINA RESULT: -5.666413035      1.056      1.056
REMARK  5 active torsions:
REMARK  status: ('A' for Active; 'I' for Inactive)
REMARK    1  A    between atoms: N1_2  and  C2_5 
REMARK    2  A    between atoms: C2_5  and  C3_6 
REMARK    3  A    between atoms: N2_7  and  C4_9 
REMARK    4  A    between atoms: C4_9  and  C5_10 
REMARK    5  A    between atoms: C5_10  and  S1_11 
ROOT
HETATM    1  C4  UNL     1     -18.667   1.430 -17.076  1.00  0.00     0.041 C 
HETATM    2  C7  UNL     1     -18.968   2.235 -18.320  1.00  0.00     0.032 C 
HETATM    3  C8  UNL     1     -17.866   2.093 -19.350  1.00  0.00     0.004 C 
HETATM    4  C9  UNL     1     -17.897   0.673 -19.832  1.00  0.00     0.019 C 
HETATM    5  C10 UNL     1     -18.023  -0.335 -18.742  1.00  0.00     0.095 C 
HETATM    6  C11 UNL     1     -16.970  -1.352 -18.933  1.00  0.00     0.064 C 
HETATM    7  N3  UNL     1     -16.135  -2.142 -19.093  1.00  0.00    -0.197 NA
HETATM    8  C12 UNL     1     -17.840   0.230 -17.359  1.00  0.00     0.051 C 
ENDROOT
BRANCH   1   9
HETATM    9  N2  UNL     1     -19.974   0.978 -16.573  1.00  0.00    -0.391 N 
HETATM   10  C3  UNL     1     -20.996   1.438 -17.164  1.00  0.00     0.083 C 
ATOM     11  H2  UNL     1     -20.053   0.329 -15.791  1.00  0.00     0.159 HD
BRANCH  10  12
HETATM   12  C2  UNL     1     -22.383   1.070 -16.765  1.00  0.00     0.275 C 
BRANCH  12  13
HETATM   13  N1  UNL     1     -22.397   0.989 -15.310  1.00  0.00    -0.075 N 
HETATM   14  C1  UNL     1     -23.045  -0.237 -14.885  1.00  0.00     0.267 C 
ATOM     15  H12 UNL     1     -22.824   1.812 -14.886  1.00  0.00     0.277 HD
ATOM     16  H11 UNL     1     -21.463   1.084 -14.913  1.00  0.00     0.277 HD
ENDBRANCH  12  13
ENDBRANCH  10  12
ENDBRANCH   1   9
BRANCH   1  17
HETATM   17  C5  UNL     1     -18.164   2.344 -16.002  1.00  0.00     0.139 C 
BRANCH  17  18
HETATM   18  S1  UNL     1     -18.925   2.233 -14.441  1.00  0.00     0.013 S 
HETATM   19  C6  UNL     1     -17.846   3.003 -13.224  1.00  0.00     0.127 C 
HETATM   20  O1  UNL     1     -20.354   3.108 -14.370  1.00  0.00    -0.258 OA
ENDBRANCH  17  18
ENDBRANCH   1  17
TORSDOF 5
ENDMDL
MODEL 4
REMARK VINA RESULT: -5.581321225      1.331      1.396
REMARK  5 active torsions:
REMARK  status: ('A' for Active; 'I' for Inactive)
REMARK    1  A    between atoms: N1_2  and  C2_5 
REMARK    2  A    between atoms: C2_5  and  C3_6 
REMARK    3  A    between atoms: N2_7  and  C4_9 
REMARK    4  A    between atoms: C4_9  and  C5_10 
REMARK    5  A    between atoms: C5_10  and  S1_11 
ROOT
HETATM    1  C4  UNL     1     -18.734   1.046 -16.546  1.00  0.00     0.041 C 
HETATM    2  C7  UNL     1     -18.885   2.244 -17.455  1.00  0.00     0.032 C 
HETATM    3  C8  UNL     1     -17.722   2.355 -18.420  1.00  0.00     0.004 C 
HETATM    4  C9  UNL     1     -17.815   1.187 -19.356  1.00  0.00     0.019 C 
HETATM    5  C10 UNL     1     -18.092  -0.112 -18.679  1.00  0.00     0.095 C 
HETATM    6  C11 UNL     1     -17.101  -1.097 -19.155  1.00  0.00     0.064 C 
HETATM    7  N3  UNL     1     -16.313  -1.859 -19.535  1.00  0.00    -0.197 NA
HETATM    8  C12 UNL     1     -17.973  -0.059 -17.180  1.00  0.00     0.051 C 
ENDROOT
BRANCH   1   9
HETATM    9  N2  UNL     1     -20.103   0.573 -16.288  1.00  0.00    -0.391 N 
HETATM   10  C3  UNL     1     -21.042   1.262 -16.784  1.00  0.00     0.083 C 
ATOM     11  H2  UNL     1     -20.286  -0.267 -15.738  1.00  0.00     0.159 HD
BRANCH  10  12
HETATM   12  C2  UNL     1     -22.477   0.904 -16.606  1.00  0.00     0.275 C 
BRANCH  12  13
HETATM   13  N1  UNL     1     -22.733   0.886 -15.172  1.00  0.00    -0.075 N 
HETATM   14  C1  UNL     1     -23.213  -0.422 -14.768  1.00  0.00     0.267 C 
ATOM     15  H12 UNL     1     -23.370   1.630 -14.888  1.00  0.00     0.277 HD
ATOM     16  H11 UNL     1     -21.917   1.175 -14.635  1.00  0.00     0.277 HD
ENDBRANCH  12  13
ENDBRANCH  10  12
ENDBRANCH   1   9
BRANCH   1  17
HETATM   17  C5  UNL     1     -18.250   1.500 -15.203  1.00  0.00     0.139 C 
BRANCH  17  18
HETATM   18  S1  UNL     1     -18.625   3.131 -14.731  1.00  0.00     0.013 S 
HETATM   19  C6  UNL     1     -20.140   3.111 -13.761  1.00  0.00     0.127 C 
HETATM   20  O1  UNL     1     -17.464   3.777 -13.707  1.00  0.00    -0.258 OA
ENDBRANCH  17  18
ENDBRANCH   1  17
TORSDOF 5
ENDMDL
MODEL 5
REMARK VINA RESULT: -5.512003353      1.373      1.400
REMARK  5 active torsions:
REMARK  status: ('A' for Active; 'I' for Inactive)
REMARK    1  A    between atoms: N1_2  and  C2_5 
REMARK    2  A    between atoms: C2_5  and  C3_6 
REMARK    3  A    between atoms: N2_7  and  C4_9 
REMARK    4  A    between atoms: C4_9  and  C5_10 
REMARK    5  A    between atoms: C5_10  and  S1_11 
ROOT
HETATM    1  C4  UNL     1     -18.086   1.081 -17.288  1.00  0.00     0.041 C 
HETATM    2  C7  UNL     1     -18.393   2.335 -18.076  1.00  0.00     0.032 C 
HETATM    3  C8  UNL     1     -17.481   2.468 -19.279  1.00  0.00     0.004 C 
HETATM    4  C9  UNL     1     -17.838   1.360 -20.225  1.00  0.00     0.019 C 
HETATM    5  C10 UNL     1     -18.006   0.032 -19.568  1.00  0.00     0.095 C 
HETATM    6  C11 UNL     1     -17.194  -0.952 -20.311  1.00  0.00     0.064 C 
HETATM    7  N3  UNL     1     -16.549  -1.715 -20.902  1.00  0.00    -0.197 NA
HETATM    8  C12 UNL     1     -17.541  -0.007 -18.138  1.00  0.00     0.051 C 
ENDROOT
BRANCH   1   9
HETATM    9  N2  UNL     1     -19.376   0.634 -16.741  1.00  0.00    -0.391 N 
HETATM   10  C3  UNL     1     -20.392   1.321 -17.057  1.00  0.00     0.083 C 
ATOM     11  H2  UNL     1     -19.450  -0.186 -16.139  1.00  0.00     0.159 HD
BRANCH  10  12
HETATM   12  C2  UNL     1     -21.763   0.988 -16.579  1.00  0.00     0.275 C 
BRANCH  12  13
HETATM   13  N1  UNL     1     -21.628   0.507 -15.210  1.00  0.00    -0.075 N 
HETATM   14  C1  UNL     1     -22.848  -0.154 -14.791  1.00  0.00     0.267 C 
ATOM     15  H12 UNL     1     -21.359   1.253 -14.568  1.00  0.00     0.277 HD
ATOM     16  H11 UNL     1     -20.810  -0.091 -15.094  1.00  0.00     0.277 HD
ENDBRANCH  12  13
ENDBRANCH  10  12
ENDBRANCH   1   9
BRANCH   1  17
HETATM   17  C5  UNL     1     -17.285   1.441 -16.075  1.00  0.00     0.139 C 
BRANCH  17  18
HETATM   18  S1  UNL     1     -18.160   2.013 -14.685  1.00  0.00     0.013 S 
HETATM   19  C6  UNL     1     -17.971   0.813 -13.358  1.00  0.00     0.127 C 
HETATM   20  O1  UNL     1     -17.518   3.438 -14.075  1.00  0.00    -0.258 OA
ENDBRANCH  17  18
ENDBRANCH   1  17
TORSDOF 5
ENDMDL
