MODEL 1
REMARK VINA RESULT: -6.185772322      0.000      0.000
REMARK  6 active torsions:
REMARK  status: ('A' for Active; 'I' for Inactive)
REMARK    1  A    between atoms: C2_2  and  O1_4 
REMARK    2  A    between atoms: O1_4  and  C4_5 
REMARK    3  A    between atoms: C4_5  and  C5_6 
REMARK    4  A    between atoms: C5_6  and  O2_7 
REMARK    5  A    between atoms: C5_6  and  C6_9 
REMARK    6  A    between atoms: C6_9  and  N1_10 
ROOT
HETATM    1  N1  UNL     1     -19.727   1.144 -16.947  1.00  0.00     0.124 N 
HETATM    2  C7  UNL     1     -20.775   1.747 -17.633  1.00  0.00     0.276 C 
HETATM    3  C8  UNL     1     -22.048   2.010 -16.904  1.00  0.00     0.036 C 
HETATM    4  C9  UNL     1     -22.041   1.842 -15.435  1.00  0.00     0.016 C 
HETATM    5  C10 UNL     1     -21.274   2.964 -14.756  1.00  0.00     0.010 C 
HETATM    6  C11 UNL     1     -19.832   2.875 -15.194  1.00  0.00     0.069 C 
HETATM    7  C12 UNL     1     -19.512   1.450 -15.573  1.00  0.00     0.455 C 
HETATM    8  N2  UNL     1     -20.186   0.486 -14.684  1.00  0.00     0.118 N 
HETATM    9  C13 UNL     1     -19.562  -0.796 -14.892  1.00  0.00     0.312 C 
HETATM   10  C14 UNL     1     -21.608   0.479 -14.954  1.00  0.00     0.279 C 
ENDROOT
BRANCH   1  11
HETATM   11  C6  UNL     1     -18.478   1.260 -17.631  1.00  0.00     0.308 C 
BRANCH  11  12
HETATM   12  C5  UNL     1     -18.323   2.386 -18.596  1.00  0.00     0.170 C 
BRANCH  12  13
HETATM   13  C4  UNL     1     -17.858   1.839 -19.918  1.00  0.00     0.201 C 
BRANCH  13  14
HETATM   14  O1  UNL     1     -18.275   0.662 -20.348  1.00  0.00    -0.384 OA
BRANCH  14  15
HETATM   15  C2  UNL     1     -17.531  -0.289 -20.908  1.00  0.00     0.113 C 
HETATM   16  C1  UNL     1     -16.340   0.344 -21.625  1.00  0.00     0.039 C 
HETATM   17  C3  UNL     1     -16.908  -1.259 -19.899  1.00  0.00     0.039 C 
ENDBRANCH  14  15
ENDBRANCH  13  14
ENDBRANCH  12  13
BRANCH  12  18
HETATM   18  O2  UNL     1     -17.527   3.433 -18.207  1.00  0.00    -0.392 OA
ATOM     19  H2  UNL     1     -18.043   4.226 -18.126  1.00  0.00     0.210 HD
ENDBRANCH  12  18
ENDBRANCH  11  12
ENDBRANCH   1  11
TORSDOF 6
ENDMDL
MODEL 2
REMARK VINA RESULT: -5.977147784      1.472      2.413
REMARK  6 active torsions:
REMARK  status: ('A' for Active; 'I' for Inactive)
REMARK    1  A    between atoms: C2_2  and  O1_4 
REMARK    2  A    between atoms: O1_4  and  C4_5 
REMARK    3  A    between atoms: C4_5  and  C5_6 
REMARK    4  A    between atoms: C5_6  and  O2_7 
REMARK    5  A    between atoms: C5_6  and  C6_9 
REMARK    6  A    between atoms: C6_9  and  N1_10 
ROOT
HETATM    1  N1  UNL     1     -19.592   0.581 -15.849  1.00  0.00     0.124 N 
HETATM    2  C7  UNL     1     -20.785   0.016 -15.415  1.00  0.00     0.276 C 
HETATM    3  C8  UNL     1     -21.943   0.913 -15.143  1.00  0.00     0.036 C 
HETATM    4  C9  UNL     1     -21.836   2.320 -15.585  1.00  0.00     0.016 C 
HETATM    5  C10 UNL     1     -21.942   2.432 -17.097  1.00  0.00     0.010 C 
HETATM    6  C11 UNL     1     -20.762   1.712 -17.702  1.00  0.00     0.069 C 
HETATM    7  C12 UNL     1     -19.619   1.710 -16.717  1.00  0.00     0.455 C 
HETATM    8  N2  UNL     1     -19.541   2.979 -15.970  1.00  0.00     0.118 N 
HETATM    9  C13 UNL     1     -18.252   3.021 -15.329  1.00  0.00     0.312 C 
HETATM   10  C14 UNL     1     -20.645   3.069 -15.037  1.00  0.00     0.279 C 
ENDROOT
BRANCH   1  11
HETATM   11  C6  UNL     1     -18.689  -0.381 -16.397  1.00  0.00     0.308 C 
BRANCH  11  12
HETATM   12  C5  UNL     1     -17.689   0.102 -17.392  1.00  0.00     0.170 C 
BRANCH  12  13
HETATM   13  C4  UNL     1     -17.517  -0.944 -18.461  1.00  0.00     0.201 C 
BRANCH  13  14
HETATM   14  O1  UNL     1     -16.960  -0.643 -19.619  1.00  0.00    -0.384 OA
BRANCH  14  15
HETATM   15  C2  UNL     1     -17.513   0.056 -20.609  1.00  0.00     0.113 C 
HETATM   16  C1  UNL     1     -16.423   0.770 -21.406  1.00  0.00     0.039 C 
HETATM   17  C3  UNL     1     -18.245  -0.810 -21.640  1.00  0.00     0.039 C 
ENDBRANCH  14  15
ENDBRANCH  13  14
ENDBRANCH  12  13
BRANCH  12  18
HETATM   18  O2  UNL     1     -16.468   0.492 -16.907  1.00  0.00    -0.392 OA
ATOM     19  H2  UNL     1     -16.552   0.797 -16.011  1.00  0.00     0.210 HD
ENDBRANCH  12  18
ENDBRANCH  11  12
ENDBRANCH   1  11
TORSDOF 6
ENDMDL
MODEL 3
REMARK VINA RESULT: -5.967169805      1.047      2.135
REMARK  6 active torsions:
REMARK  status: ('A' for Active; 'I' for Inactive)
REMARK    1  A    between atoms: C2_2  and  O1_4 
REMARK    2  A    between atoms: O1_4  and  C4_5 
REMARK    3  A    between atoms: C4_5  and  C5_6 
REMARK    4  A    between atoms: C5_6  and  O2_7 
REMARK    5  A    between atoms: C5_6  and  C6_9 
REMARK    6  A    between atoms: C6_9  and  N1_10 
ROOT
HETATM    1  N1  UNL     1     -19.106   1.365 -16.185  1.00  0.00     0.124 N 
HETATM    2  C7  UNL     1     -19.470   0.074 -15.820  1.00  0.00     0.276 C 
HETATM    3  C8  UNL     1     -20.715  -0.119 -15.024  1.00  0.00     0.036 C 
HETATM    4  C9  UNL     1     -21.620   1.041 -14.878  1.00  0.00     0.016 C 
HETATM    5  C10 UNL     1     -22.348   1.338 -16.179  1.00  0.00     0.010 C 
HETATM    6  C11 UNL     1     -21.318   1.736 -17.208  1.00  0.00     0.069 C 
HETATM    7  C12 UNL     1     -20.113   2.317 -16.512  1.00  0.00     0.455 C 
HETATM    8  N2  UNL     1     -20.498   3.132 -15.345  1.00  0.00     0.118 N 
HETATM    9  C13 UNL     1     -19.346   3.908 -14.965  1.00  0.00     0.312 C 
HETATM   10  C14 UNL     1     -20.982   2.273 -14.284  1.00  0.00     0.279 C 
ENDROOT
BRANCH   1  11
HETATM   11  C6  UNL     1     -18.115   1.392 -17.214  1.00  0.00     0.308 C 
BRANCH  11  12
HETATM   12  C5  UNL     1     -18.280   2.398 -18.302  1.00  0.00     0.170 C 
BRANCH  12  13
HETATM   13  C4  UNL     1     -18.251   1.692 -19.631  1.00  0.00     0.201 C 
BRANCH  13  14
HETATM   14  O1  UNL     1     -17.980   0.402 -19.706  1.00  0.00    -0.384 OA
BRANCH  14  15
HETATM   15  C2  UNL     1     -17.308  -0.215 -20.676  1.00  0.00     0.113 C 
HETATM   16  C1  UNL     1     -18.288  -0.791 -21.695  1.00  0.00     0.039 C 
HETATM   17  C3  UNL     1     -16.404   0.718 -21.488  1.00  0.00     0.039 C 
ENDBRANCH  14  15
ENDBRANCH  13  14
ENDBRANCH  12  13
BRANCH  12  18
HETATM   18  O2  UNL     1     -17.410   3.457 -18.306  1.00  0.00    -0.392 OA
ATOM     19  H2  UNL     1     -17.410   3.886 -17.459  1.00  0.00     0.210 HD
ENDBRANCH  12  18
ENDBRANCH  11  12
ENDBRANCH   1  11
TORSDOF 6
ENDMDL
MODEL 4
REMARK VINA RESULT: -5.902204676      2.012      3.339
REMARK  6 active torsions:
REMARK  status: ('A' for Active; 'I' for Inactive)
REMARK    1  A    between atoms: C2_2  and  O1_4 
REMARK    2  A    between atoms: O1_4  and  C4_5 
REMARK    3  A    between atoms: C4_5  and  C5_6 
REMARK    4  A    between atoms: C5_6  and  O2_7 
REMARK    5  A    between atoms: C5_6  and  C6_9 
REMARK    6  A    between atoms: C6_9  and  N1_10 
ROOT
HETATM    1  N1  UNL     1     -18.543   0.487 -17.158  1.00  0.00     0.124 N 
HETATM    2  C7  UNL     1     -18.750   0.065 -15.850  1.00  0.00     0.276 C 
HETATM    3  C8  UNL     1     -19.161   1.073 -14.832  1.00  0.00     0.036 C 
HETATM    4  C9  UNL     1     -19.564   2.410 -15.318  1.00  0.00     0.016 C 
HETATM    5  C10 UNL     1     -20.920   2.362 -16.001  1.00  0.00     0.010 C 
HETATM    6  C11 UNL     1     -20.794   1.491 -17.228  1.00  0.00     0.069 C 
HETATM    7  C12 UNL     1     -19.365   1.511 -17.710  1.00  0.00     0.455 C 
HETATM    8  N2  UNL     1     -18.756   2.845 -17.555  1.00  0.00     0.118 N 
HETATM    9  C13 UNL     1     -17.548   2.859 -18.340  1.00  0.00     0.312 C 
HETATM   10  C14 UNL     1     -18.527   3.121 -16.152  1.00  0.00     0.279 C 
ENDROOT
BRANCH   1  11
HETATM   11  C6  UNL     1     -18.497  -0.597 -18.089  1.00  0.00     0.308 C 
BRANCH  11  12
HETATM   12  C5  UNL     1     -17.306  -1.493 -18.042  1.00  0.00     0.170 C 
BRANCH  12  13
HETATM   13  C4  UNL     1     -16.367  -1.120 -19.157  1.00  0.00     0.201 C 
BRANCH  13  14
HETATM   14  O1  UNL     1     -16.507  -1.639 -20.363  1.00  0.00    -0.384 OA
BRANCH  14  15
HETATM   15  C2  UNL     1     -16.759  -0.976 -21.490  1.00  0.00     0.113 C 
HETATM   16  C1  UNL     1     -18.260  -0.992 -21.771  1.00  0.00     0.039 C 
HETATM   17  C3  UNL     1     -16.389   0.509 -21.427  1.00  0.00     0.039 C 
ENDBRANCH  14  15
ENDBRANCH  13  14
ENDBRANCH  12  13
BRANCH  12  18
HETATM   18  O2  UNL     1     -17.543  -2.843 -18.052  1.00  0.00    -0.392 OA
ATOM     19  H2  UNL     1     -17.907  -3.120 -17.219  1.00  0.00     0.210 HD
ENDBRANCH  12  18
ENDBRANCH  11  12
ENDBRANCH   1  11
TORSDOF 6
ENDMDL
MODEL 5
REMARK VINA RESULT: -5.879531081      1.525      1.795
REMARK  6 active torsions:
REMARK  status: ('A' for Active; 'I' for Inactive)
REMARK    1  A    between atoms: C2_2  and  O1_4 
REMARK    2  A    between atoms: O1_4  and  C4_5 
REMARK    3  A    between atoms: C4_5  and  C5_6 
REMARK    4  A    between atoms: C5_6  and  O2_7 
REMARK    5  A    between atoms: C5_6  and  C6_9 
REMARK    6  A    between atoms: C6_9  and  N1_10 
ROOT
HETATM    1  N1  UNL     1     -19.828   0.394 -16.287  1.00  0.00     0.124 N 
HETATM    2  C7  UNL     1     -20.126   1.202 -17.379  1.00  0.00     0.276 C 
HETATM    3  C8  UNL     1     -21.026   2.372 -17.176  1.00  0.00     0.036 C 
HETATM    4  C9  UNL     1     -21.349   2.752 -15.784  1.00  0.00     0.016 C 
HETATM    5  C10 UNL     1     -20.155   3.391 -15.096  1.00  0.00     0.010 C 
HETATM    6  C11 UNL     1     -19.061   2.354 -15.003  1.00  0.00     0.069 C 
HETATM    7  C12 UNL     1     -19.676   0.977 -14.997  1.00  0.00     0.455 C 
HETATM    8  N2  UNL     1     -20.936   0.947 -14.230  1.00  0.00     0.118 N 
HETATM    9  C13 UNL     1     -21.258  -0.437 -13.989  1.00  0.00     0.312 C 
HETATM   10  C14 UNL     1     -21.970   1.655 -14.955  1.00  0.00     0.279 C 
ENDROOT
BRANCH   1  11
HETATM   11  C6  UNL     1     -18.710  -0.464 -16.522  1.00  0.00     0.308 C 
BRANCH  11  12
HETATM   12  C5  UNL     1     -17.710  -0.029 -17.539  1.00  0.00     0.170 C 
BRANCH  12  13
HETATM   13  C4  UNL     1     -17.466  -1.161 -18.501  1.00  0.00     0.201 C 
BRANCH  13  14
HETATM   14  O1  UNL     1     -17.018  -0.927 -19.721  1.00  0.00    -0.384 OA
BRANCH  14  15
HETATM   15  C2  UNL     1     -17.553  -0.106 -20.621  1.00  0.00     0.113 C 
HETATM   16  C1  UNL     1     -16.444   0.613 -21.386  1.00  0.00     0.039 C 
HETATM   17  C3  UNL     1     -18.370  -0.822 -21.702  1.00  0.00     0.039 C 
ENDBRANCH  14  15
ENDBRANCH  13  14
ENDBRANCH  12  13
BRANCH  12  18
HETATM   18  O2  UNL     1     -16.520   0.462 -17.070  1.00  0.00    -0.392 OA
ATOM     19  H2  UNL     1     -16.523   0.481 -16.120  1.00  0.00     0.210 HD
ENDBRANCH  12  18
ENDBRANCH  11  12
ENDBRANCH   1  11
TORSDOF 6
ENDMDL
