MODEL 1
REMARK VINA RESULT: -5.772158570      0.000      0.000
REMARK  5 active torsions:
REMARK  status: ('A' for Active; 'I' for Inactive)
REMARK    1  A    between atoms: N1_6  and  C6_7 
REMARK    2  A    between atoms: C6_7  and  C7_8 
REMARK    3  A    between atoms: C7_8  and  N2_9 
REMARK    4  A    between atoms: N3_12  and  C10_13 
REMARK    5  A    between atoms: C10_13  and  C11_14 
ROOT
HETATM    1  N2  UNL     1     -19.842   1.336 -17.018  1.00  0.00     0.093 N 
HETATM    2  C8  UNL     1     -19.570   0.721 -15.715  1.00  0.00     0.302 C 
HETATM    3  C9  UNL     1     -20.872   0.309 -15.088  1.00  0.00     0.303 C 
HETATM    4  N3  UNL     1     -21.495   1.516 -14.568  1.00  0.00     0.096 N 
HETATM    5  C12 UNL     1     -21.226   2.638 -15.469  1.00  0.00     0.303 C 
HETATM    6  C13 UNL     1     -21.064   2.114 -16.902  1.00  0.00     0.302 C 
ENDROOT
BRANCH   1   7
HETATM    7  C7  UNL     1     -18.701   2.141 -17.409  1.00  0.00     0.302 C 
BRANCH   7   8
HETATM    8  C6  UNL     1     -17.535   1.367 -17.926  1.00  0.00     0.302 C 
BRANCH   8   9
HETATM    9  N1  UNL     1     -17.891   0.493 -19.025  1.00  0.00     0.090 N 
HETATM   10  C5  UNL     1     -17.514  -0.843 -18.704  1.00  0.00     0.272 C 
HETATM   11  C4  UNL     1     -16.111  -1.053 -19.279  1.00  0.00     0.031 C 
HETATM   12  C3  UNL     1     -16.332  -1.214 -20.786  1.00  0.00     0.007 C 
HETATM   13  C2  UNL     1     -17.236  -0.118 -21.309  1.00  0.00     0.010 C 
HETATM   14  C1  UNL     1     -18.551  -0.671 -21.829  1.00  0.00     0.011 C 
HETATM   15  C14 UNL     1     -17.451   0.970 -20.284  1.00  0.00     0.276 C 
ENDBRANCH   8   9
ENDBRANCH   7   8
ENDBRANCH   1   7
BRANCH   4  16
HETATM   16  C10 UNL     1     -22.917   1.374 -14.420  1.00  0.00     0.316 C 
BRANCH  16  17
HETATM   17  C11 UNL     1     -23.235  -0.070 -14.274  1.00  0.00     0.083 C 
HETATM   18  N4  UNL     1     -23.958  -0.526 -13.317  1.00  0.00    -0.410 N 
ATOM     19  H42 UNL     1     -24.321   0.143 -12.638  1.00  0.00     0.155 HD
ATOM     20  H41 UNL     1     -24.176  -1.517 -13.216  1.00  0.00     0.155 HD
ENDBRANCH  16  17
ENDBRANCH   4  16
TORSDOF 5
ENDMDL
MODEL 2
REMARK VINA RESULT: -5.722771396      1.658      6.639
REMARK  5 active torsions:
REMARK  status: ('A' for Active; 'I' for Inactive)
REMARK    1  A    between atoms: N1_6  and  C6_7 
REMARK    2  A    between atoms: C6_7  and  C7_8 
REMARK    3  A    between atoms: C7_8  and  N2_9 
REMARK    4  A    between atoms: N3_12  and  C10_13 
REMARK    5  A    between atoms: C10_13  and  C11_14 
ROOT
HETATM    1  N2  UNL     1     -17.837   2.231 -16.982  1.00  0.00     0.093 N 
HETATM    2  C8  UNL     1     -18.020   0.778 -17.045  1.00  0.00     0.302 C 
HETATM    3  C9  UNL     1     -17.251   0.239 -18.219  1.00  0.00     0.303 C 
HETATM    4  N3  UNL     1     -18.022   0.549 -19.412  1.00  0.00     0.096 N 
HETATM    5  C12 UNL     1     -18.665   1.856 -19.260  1.00  0.00     0.303 C 
HETATM    6  C13 UNL     1     -17.810   2.740 -18.343  1.00  0.00     0.302 C 
ENDROOT
BRANCH   1   7
HETATM    7  C7  UNL     1     -18.906   2.808 -16.191  1.00  0.00     0.302 C 
BRANCH   7   8
HETATM    8  C6  UNL     1     -19.000   2.293 -14.793  1.00  0.00     0.302 C 
BRANCH   8   9
HETATM    9  N1  UNL     1     -20.369   2.168 -14.337  1.00  0.00     0.090 N 
HETATM   10  C5  UNL     1     -20.546   0.894 -13.727  1.00  0.00     0.272 C 
HETATM   11  C4  UNL     1     -21.055  -0.050 -14.820  1.00  0.00     0.031 C 
HETATM   12  C3  UNL     1     -22.524   0.339 -15.012  1.00  0.00     0.007 C 
HETATM   13  C2  UNL     1     -22.661   1.840 -15.147  1.00  0.00     0.010 C 
HETATM   14  C1  UNL     1     -23.444   2.441 -13.993  1.00  0.00     0.011 C 
HETATM   15  C14 UNL     1     -21.322   2.514 -15.327  1.00  0.00     0.276 C 
ENDBRANCH   8   9
ENDBRANCH   7   8
ENDBRANCH   1   7
BRANCH   4  16
HETATM   16  C10 UNL     1     -17.208   0.571 -20.595  1.00  0.00     0.316 C 
BRANCH  16  17
HETATM   17  C11 UNL     1     -17.236  -0.779 -21.214  1.00  0.00     0.083 C 
HETATM   18  N4  UNL     1     -16.206  -1.544 -21.254  1.00  0.00    -0.410 N 
ATOM     19  H42 UNL     1     -15.341  -1.195 -20.841  1.00  0.00     0.155 HD
ATOM     20  H41 UNL     1     -16.225  -2.471 -21.679  1.00  0.00     0.155 HD
ENDBRANCH  16  17
ENDBRANCH   4  16
TORSDOF 5
ENDMDL
MODEL 3
REMARK VINA RESULT: -5.689648175      1.370      1.740
REMARK  5 active torsions:
REMARK  status: ('A' for Active; 'I' for Inactive)
REMARK    1  A    between atoms: N1_6  and  C6_7 
REMARK    2  A    between atoms: C6_7  and  C7_8 
REMARK    3  A    between atoms: C7_8  and  N2_9 
REMARK    4  A    between atoms: N3_12  and  C10_13 
REMARK    5  A    between atoms: C10_13  and  C11_14 
ROOT
HETATM    1  N2  UNL     1     -18.596   1.276 -15.658  1.00  0.00     0.093 N 
HETATM    2  C8  UNL     1     -18.951   2.642 -16.054  1.00  0.00     0.302 C 
HETATM    3  C9  UNL     1     -20.294   2.985 -15.474  1.00  0.00     0.303 C 
HETATM    4  N3  UNL     1     -21.295   2.317 -16.291  1.00  0.00     0.096 N 
HETATM    5  C12 UNL     1     -20.789   1.012 -16.723  1.00  0.00     0.303 C 
HETATM    6  C13 UNL     1     -19.808   0.474 -15.673  1.00  0.00     0.302 C 
ENDROOT
BRANCH   1   7
HETATM    7  C7  UNL     1     -17.580   0.770 -16.560  1.00  0.00     0.302 C 
BRANCH   7   8
HETATM    8  C6  UNL     1     -17.522   1.454 -17.885  1.00  0.00     0.302 C 
BRANCH   8   9
HETATM    9  N1  UNL     1     -17.900   0.582 -18.978  1.00  0.00     0.090 N 
HETATM   10  C5  UNL     1     -17.539  -0.758 -18.656  1.00  0.00     0.272 C 
HETATM   11  C4  UNL     1     -16.144  -0.989 -19.243  1.00  0.00     0.031 C 
HETATM   12  C3  UNL     1     -16.381  -1.151 -20.748  1.00  0.00     0.007 C 
HETATM   13  C2  UNL     1     -17.275  -0.045 -21.265  1.00  0.00     0.010 C 
HETATM   14  C1  UNL     1     -18.602  -0.581 -21.772  1.00  0.00     0.011 C 
HETATM   15  C14 UNL     1     -17.465   1.050 -20.242  1.00  0.00     0.276 C 
ENDBRANCH   8   9
ENDBRANCH   7   8
ENDBRANCH   1   7
BRANCH   4  16
HETATM   16  C10 UNL     1     -22.531   2.122 -15.587  1.00  0.00     0.316 C 
BRANCH  16  17
HETATM   17  C11 UNL     1     -22.330   2.506 -14.165  1.00  0.00     0.083 C 
HETATM   18  N4  UNL     1     -23.298   2.864 -13.402  1.00  0.00    -0.410 N 
ATOM     19  H42 UNL     1     -24.236   2.880 -13.803  1.00  0.00     0.155 HD
ATOM     20  H41 UNL     1     -23.161   3.127 -12.426  1.00  0.00     0.155 HD
ENDBRANCH  16  17
ENDBRANCH   4  16
TORSDOF 5
ENDMDL
MODEL 4
REMARK VINA RESULT: -5.682214808      0.901      1.047
REMARK  5 active torsions:
REMARK  status: ('A' for Active; 'I' for Inactive)
REMARK    1  A    between atoms: N1_6  and  C6_7 
REMARK    2  A    between atoms: C6_7  and  C7_8 
REMARK    3  A    between atoms: C7_8  and  N2_9 
REMARK    4  A    between atoms: N3_12  and  C10_13 
REMARK    5  A    between atoms: C10_13  and  C11_14 
ROOT
HETATM    1  N2  UNL     1     -19.855   1.341 -16.951  1.00  0.00     0.093 N 
HETATM    2  C8  UNL     1     -19.573   0.690 -15.668  1.00  0.00     0.302 C 
HETATM    3  C9  UNL     1     -20.872   0.289 -15.027  1.00  0.00     0.303 C 
HETATM    4  N3  UNL     1     -21.462   1.495 -14.468  1.00  0.00     0.096 N 
HETATM    5  C12 UNL     1     -21.187   2.633 -15.347  1.00  0.00     0.303 C 
HETATM    6  C13 UNL     1     -21.060   2.140 -16.794  1.00  0.00     0.302 C 
ENDROOT
BRANCH   1   7
HETATM    7  C7  UNL     1     -18.706   2.133 -17.343  1.00  0.00     0.302 C 
BRANCH   7   8
HETATM    8  C6  UNL     1     -17.549   1.346 -17.859  1.00  0.00     0.302 C 
BRANCH   8   9
HETATM    9  N1  UNL     1     -17.907   0.496 -18.976  1.00  0.00     0.090 N 
HETATM   10  C5  UNL     1     -17.550  -0.850 -18.676  1.00  0.00     0.272 C 
HETATM   11  C4  UNL     1     -16.145  -1.068 -19.244  1.00  0.00     0.031 C 
HETATM   12  C3  UNL     1     -16.356  -1.200 -20.755  1.00  0.00     0.007 C 
HETATM   13  C2  UNL     1     -17.242  -0.083 -21.265  1.00  0.00     0.010 C 
HETATM   14  C1  UNL     1     -18.560  -0.610 -21.804  1.00  0.00     0.011 C 
HETATM   15  C14 UNL     1     -17.451   0.990 -20.223  1.00  0.00     0.276 C 
ENDBRANCH   8   9
ENDBRANCH   7   8
ENDBRANCH   1   7
BRANCH   4  16
HETATM   16  C10 UNL     1     -22.883   1.377 -14.298  1.00  0.00     0.316 C 
BRANCH  16  17
HETATM   17  C11 UNL     1     -23.372   2.572 -13.563  1.00  0.00     0.083 C 
HETATM   18  N4  UNL     1     -24.614   2.890 -13.508  1.00  0.00    -0.410 N 
ATOM     19  H42 UNL     1     -25.279   2.287 -13.993  1.00  0.00     0.155 HD
ATOM     20  H41 UNL     1     -24.950   3.711 -13.004  1.00  0.00     0.155 HD
ENDBRANCH  16  17
ENDBRANCH   4  16
TORSDOF 5
ENDMDL
MODEL 5
REMARK VINA RESULT: -5.648460933      1.070      2.062
REMARK  5 active torsions:
REMARK  status: ('A' for Active; 'I' for Inactive)
REMARK    1  A    between atoms: N1_6  and  C6_7 
REMARK    2  A    between atoms: C6_7  and  C7_8 
REMARK    3  A    between atoms: C7_8  and  N2_9 
REMARK    4  A    between atoms: N3_12  and  C10_13 
REMARK    5  A    between atoms: C10_13  and  C11_14 
ROOT
HETATM    1  N2  UNL     1     -19.568   2.681 -16.726  1.00  0.00     0.093 N 
HETATM    2  C8  UNL     1     -20.645   1.956 -17.408  1.00  0.00     0.302 C 
HETATM    3  C9  UNL     1     -21.641   1.487 -16.385  1.00  0.00     0.303 C 
HETATM    4  N3  UNL     1     -21.062   0.328 -15.725  1.00  0.00     0.096 N 
HETATM    5  C12 UNL     1     -19.617   0.515 -15.578  1.00  0.00     0.303 C 
HETATM    6  C13 UNL     1     -19.305   2.012 -15.463  1.00  0.00     0.302 C 
ENDROOT
BRANCH   1   7
HETATM    7  C7  UNL     1     -18.404   2.721 -17.590  1.00  0.00     0.302 C 
BRANCH   7   8
HETATM    8  C6  UNL     1     -18.601   2.107 -18.936  1.00  0.00     0.302 C 
BRANCH   8   9
HETATM    9  N1  UNL     1     -17.574   1.138 -19.261  1.00  0.00     0.090 N 
HETATM   10  C5  UNL     1     -17.285   1.210 -20.653  1.00  0.00     0.272 C 
HETATM   11  C4  UNL     1     -18.176   0.171 -21.340  1.00  0.00     0.031 C 
HETATM   12  C3  UNL     1     -17.517  -1.174 -21.020  1.00  0.00     0.007 C 
HETATM   13  C2  UNL     1     -17.199  -1.269 -19.543  1.00  0.00     0.010 C 
HETATM   14  C1  UNL     1     -15.704  -1.342 -19.291  1.00  0.00     0.011 C 
HETATM   15  C14 UNL     1     -17.848  -0.156 -18.755  1.00  0.00     0.276 C 
ENDBRANCH   8   9
ENDBRANCH   7   8
ENDBRANCH   1   7
BRANCH   4  16
HETATM   16  C10 UNL     1     -21.631   0.100 -14.426  1.00  0.00     0.316 C 
BRANCH  16  17
HETATM   17  C11 UNL     1     -23.028  -0.376 -14.600  1.00  0.00     0.083 C 
HETATM   18  N4  UNL     1     -23.868  -0.426 -13.631  1.00  0.00    -0.410 N 
ATOM     19  H42 UNL     1     -23.548  -0.122 -12.711  1.00  0.00     0.155 HD
ATOM     20  H41 UNL     1     -24.827  -0.753 -13.750  1.00  0.00     0.155 HD
ENDBRANCH  16  17
ENDBRANCH   4  16
TORSDOF 5
ENDMDL
