MODEL 1
REMARK VINA RESULT: -6.049879251      0.000      0.000
REMARK  6 active torsions:
REMARK  status: ('A' for Active; 'I' for Inactive)
REMARK    1  A    between atoms: O1_1  and  C1_3 
REMARK    2  A    between atoms: C1_3  and  C2_4 
REMARK    3  A    between atoms: C2_4  and  C3_5 
REMARK    4  A    between atoms: C3_5  and  N1_6 
REMARK    5  A    between atoms: N2_14  and  C11_15 
REMARK    6  A    between atoms: C11_15  and  C12_16 
ROOT
HETATM    1  C2  UNL     1     -18.362   1.738 -16.224  1.00  0.00     0.034 C 
HETATM    2  C8  UNL     1     -18.358   3.086 -16.915  1.00  0.00     0.017 C 
HETATM    3  C9  UNL     1     -17.960   3.043 -18.339  1.00  0.00     0.031 C 
HETATM    4  C10 UNL     1     -18.134   1.761 -19.080  1.00  0.00     0.272 C 
HETATM    5  N2  UNL     1     -18.173   0.575 -18.265  1.00  0.00     0.089 N 
HETATM    6  C15 UNL     1     -17.467   0.763 -17.004  1.00  0.00     0.285 C 
ENDROOT
BRANCH   1   7
HETATM    7  C1  UNL     1     -17.745   1.820 -14.868  1.00  0.00     0.177 C 
BRANCH   7   8
HETATM    8  O1  UNL     1     -17.514   3.088 -14.387  1.00  0.00    -0.400 OA
ATOM      9  H1  UNL     1     -17.344   3.155 -13.455  1.00  0.00     0.209 HD
ENDBRANCH   7   8
ENDBRANCH   1   7
BRANCH   1  10
HETATM   10  C3  UNL     1     -19.742   1.182 -16.320  1.00  0.00     0.285 C 
BRANCH  10  11
HETATM   11  N1  UNL     1     -20.629   1.426 -15.223  1.00  0.00     0.089 N 
HETATM   12  C4  UNL     1     -21.708   2.294 -15.730  1.00  0.00     0.272 C 
HETATM   13  C5  UNL     1     -22.871   2.021 -14.806  1.00  0.00     0.032 C 
HETATM   14  C6  UNL     1     -22.790   0.522 -14.666  1.00  0.00     0.032 C 
HETATM   15  C7  UNL     1     -21.327   0.200 -14.867  1.00  0.00     0.272 C 
ENDBRANCH  10  11
ENDBRANCH   1  10
BRANCH   5  16
HETATM   16  C11 UNL     1     -17.487  -0.518 -18.922  1.00  0.00     0.277 C 
BRANCH  16  17
HETATM   17  C12 UNL     1     -17.032  -0.168 -20.315  1.00  0.00     0.014 A 
HETATM   18  C13 UNL     1     -17.838  -0.910 -21.400  1.00  0.00     0.007 A 
HETATM   19  C14 UNL     1     -16.368  -1.130 -21.190  1.00  0.00     0.007 A 
ENDBRANCH  16  17
ENDBRANCH   5  16
TORSDOF 6
ENDMDL
MODEL 2
REMARK VINA RESULT: -5.990782074      1.101      1.115
REMARK  6 active torsions:
REMARK  status: ('A' for Active; 'I' for Inactive)
REMARK    1  A    between atoms: O1_1  and  C1_3 
REMARK    2  A    between atoms: C1_3  and  C2_4 
REMARK    3  A    between atoms: C2_4  and  C3_5 
REMARK    4  A    between atoms: C3_5  and  N1_6 
REMARK    5  A    between atoms: N2_14  and  C11_15 
REMARK    6  A    between atoms: C11_15  and  C12_16 
ROOT
HETATM    1  C2  UNL     1     -18.100   1.198 -15.799  1.00  0.00     0.034 C 
HETATM    2  C8  UNL     1     -18.424   2.652 -16.075  1.00  0.00     0.017 C 
HETATM    3  C9  UNL     1     -18.221   3.067 -17.480  1.00  0.00     0.031 C 
HETATM    4  C10 UNL     1     -18.266   2.019 -18.538  1.00  0.00     0.272 C 
HETATM    5  N2  UNL     1     -17.988   0.678 -18.094  1.00  0.00     0.089 N 
HETATM    6  C15 UNL     1     -17.162   0.667 -16.893  1.00  0.00     0.285 C 
ENDROOT
BRANCH   1   7
HETATM    7  C1  UNL     1     -17.329   1.044 -14.530  1.00  0.00     0.177 C 
BRANCH   7   8
HETATM    8  O1  UNL     1     -17.915   0.262 -13.560  1.00  0.00    -0.400 OA
ATOM      9  H1  UNL     1     -17.331  -0.083 -12.896  1.00  0.00     0.209 HD
ENDBRANCH   7   8
ENDBRANCH   1   7
BRANCH   1  10
HETATM   10  C3  UNL     1     -19.362   0.416 -15.936  1.00  0.00     0.285 C 
BRANCH  10  11
HETATM   11  N1  UNL     1     -20.585   1.070 -15.581  1.00  0.00     0.089 N 
HETATM   12  C4  UNL     1     -21.422   1.102 -16.796  1.00  0.00     0.272 C 
HETATM   13  C5  UNL     1     -22.834   1.200 -16.272  1.00  0.00     0.032 C 
HETATM   14  C6  UNL     1     -22.792   0.223 -15.125  1.00  0.00     0.032 C 
HETATM   15  C7  UNL     1     -21.350   0.232 -14.671  1.00  0.00     0.272 C 
ENDBRANCH  10  11
ENDBRANCH   1  10
BRANCH   5  16
HETATM   16  C11 UNL     1     -17.217  -0.039 -19.089  1.00  0.00     0.277 C 
BRANCH  16  17
HETATM   17  C12 UNL     1     -17.420   0.498 -20.482  1.00  0.00     0.014 A 
HETATM   18  C13 UNL     1     -17.810  -0.606 -21.486  1.00  0.00     0.007 A 
HETATM   19  C14 UNL     1     -16.528   0.167 -21.589  1.00  0.00     0.007 A 
ENDBRANCH  16  17
ENDBRANCH   5  16
TORSDOF 6
ENDMDL
MODEL 3
REMARK VINA RESULT: -5.904539779      2.145      3.441
REMARK  6 active torsions:
REMARK  status: ('A' for Active; 'I' for Inactive)
REMARK    1  A    between atoms: O1_1  and  C1_3 
REMARK    2  A    between atoms: C1_3  and  C2_4 
REMARK    3  A    between atoms: C2_4  and  C3_5 
REMARK    4  A    between atoms: C3_5  and  N1_6 
REMARK    5  A    between atoms: N2_14  and  C11_15 
REMARK    6  A    between atoms: C11_15  and  C12_16 
ROOT
HETATM    1  C2  UNL     1     -20.174   1.707 -16.858  1.00  0.00     0.034 C 
HETATM    2  C8  UNL     1     -19.931   0.402 -16.128  1.00  0.00     0.017 C 
HETATM    3  C9  UNL     1     -18.867  -0.440 -16.718  1.00  0.00     0.031 C 
HETATM    4  C10 UNL     1     -17.822   0.225 -17.546  1.00  0.00     0.272 C 
HETATM    5  N2  UNL     1     -18.199   1.488 -18.123  1.00  0.00     0.089 N 
HETATM    6  C15 UNL     1     -19.642   1.595 -18.295  1.00  0.00     0.285 C 
ENDROOT
BRANCH   1   7
HETATM    7  C1  UNL     1     -21.633   1.980 -17.013  1.00  0.00     0.177 C 
BRANCH   7   8
HETATM    8  O1  UNL     1     -22.469   0.899 -16.847  1.00  0.00    -0.400 OA
ATOM      9  H1  UNL     1     -23.395   1.097 -16.773  1.00  0.00     0.209 HD
ENDBRANCH   7   8
ENDBRANCH   1   7
BRANCH   1  10
HETATM   10  C3  UNL     1     -19.344   2.758 -16.203  1.00  0.00     0.285 C 
BRANCH  10  11
HETATM   11  N1  UNL     1     -19.326   2.786 -14.771  1.00  0.00     0.089 N 
HETATM   12  C4  UNL     1     -17.910   2.805 -14.360  1.00  0.00     0.272 C 
HETATM   13  C5  UNL     1     -17.928   3.441 -12.991  1.00  0.00     0.032 C 
HETATM   14  C6  UNL     1     -18.912   4.563 -13.200  1.00  0.00     0.032 C 
HETATM   15  C7  UNL     1     -19.828   4.066 -14.295  1.00  0.00     0.272 C 
ENDBRANCH  10  11
ENDBRANCH   1  10
BRANCH   5  16
HETATM   16  C11 UNL     1     -17.650   1.624 -19.457  1.00  0.00     0.277 C 
BRANCH  16  17
HETATM   17  C12 UNL     1     -17.259   0.302 -20.064  1.00  0.00     0.014 A 
HETATM   18  C13 UNL     1     -16.563   0.465 -21.430  1.00  0.00     0.007 A 
HETATM   19  C14 UNL     1     -17.887  -0.224 -21.273  1.00  0.00     0.007 A 
ENDBRANCH  16  17
ENDBRANCH   5  16
TORSDOF 6
ENDMDL
MODEL 4
REMARK VINA RESULT: -5.649597986      1.501      5.837
REMARK  6 active torsions:
REMARK  status: ('A' for Active; 'I' for Inactive)
REMARK    1  A    between atoms: O1_1  and  C1_3 
REMARK    2  A    between atoms: C1_3  and  C2_4 
REMARK    3  A    between atoms: C2_4  and  C3_5 
REMARK    4  A    between atoms: C3_5  and  N1_6 
REMARK    5  A    between atoms: N2_14  and  C11_15 
REMARK    6  A    between atoms: C11_15  and  C12_16 
ROOT
HETATM    1  C2  UNL     1     -18.360   1.859 -17.435  1.00  0.00     0.034 C 
HETATM    2  C8  UNL     1     -17.272   1.621 -16.409  1.00  0.00     0.017 C 
HETATM    3  C9  UNL     1     -17.761   1.143 -15.097  1.00  0.00     0.031 C 
HETATM    4  C10 UNL     1     -19.078   0.447 -15.048  1.00  0.00     0.272 C 
HETATM    5  N2  UNL     1     -19.976   0.745 -16.133  1.00  0.00     0.089 N 
HETATM    6  C15 UNL     1     -19.705   2.051 -16.717  1.00  0.00     0.285 C 
ENDROOT
BRANCH   1   7
HETATM    7  C1  UNL     1     -18.139   3.135 -18.176  1.00  0.00     0.177 C 
BRANCH   7   8
HETATM    8  O1  UNL     1     -16.857   3.356 -18.626  1.00  0.00    -0.400 OA
ATOM      9  H1  UNL     1     -16.622   4.263 -18.782  1.00  0.00     0.209 HD
ENDBRANCH   7   8
ENDBRANCH   1   7
BRANCH   1  10
HETATM   10  C3  UNL     1     -18.509   0.613 -18.240  1.00  0.00     0.285 C 
BRANCH  10  11
HETATM   11  N1  UNL     1     -17.548   0.379 -19.275  1.00  0.00     0.089 N 
HETATM   12  C4  UNL     1     -17.247  -1.066 -19.262  1.00  0.00     0.272 C 
HETATM   13  C5  UNL     1     -16.772  -1.360 -20.664  1.00  0.00     0.032 C 
HETATM   14  C6  UNL     1     -17.755  -0.561 -21.482  1.00  0.00     0.032 C 
HETATM   15  C7  UNL     1     -18.164   0.578 -20.578  1.00  0.00     0.272 C 
ENDBRANCH  10  11
ENDBRANCH   1  10
BRANCH   5  16
HETATM   16  C11 UNL     1     -21.342   0.821 -15.657  1.00  0.00     0.277 C 
BRANCH  16  17
HETATM   17  C12 UNL     1     -21.664  -0.236 -14.633  1.00  0.00     0.014 A 
HETATM   18  C13 UNL     1     -23.167  -0.576 -14.590  1.00  0.00     0.007 A 
HETATM   19  C14 UNL     1     -22.444   0.045 -13.431  1.00  0.00     0.007 A 
ENDBRANCH  16  17
ENDBRANCH   5  16
TORSDOF 6
ENDMDL
MODEL 5
REMARK VINA RESULT: -5.556207784      2.211      5.850
REMARK  6 active torsions:
REMARK  status: ('A' for Active; 'I' for Inactive)
REMARK    1  A    between atoms: O1_1  and  C1_3 
REMARK    2  A    between atoms: C1_3  and  C2_4 
REMARK    3  A    between atoms: C2_4  and  C3_5 
REMARK    4  A    between atoms: C3_5  and  N1_6 
REMARK    5  A    between atoms: N2_14  and  C11_15 
REMARK    6  A    between atoms: C11_15  and  C12_16 
ROOT
HETATM    1  C2  UNL     1     -18.970   1.589 -17.643  1.00  0.00     0.034 C 
HETATM    2  C8  UNL     1     -18.328   2.807 -17.011  1.00  0.00     0.017 C 
HETATM    3  C9  UNL     1     -18.103   2.694 -15.553  1.00  0.00     0.031 C 
HETATM    4  C10 UNL     1     -17.994   1.330 -14.962  1.00  0.00     0.272 C 
HETATM    5  N2  UNL     1     -18.612   0.275 -15.721  1.00  0.00     0.089 N 
HETATM    6  C15 UNL     1     -19.693   0.774 -16.560  1.00  0.00     0.285 C 
ENDROOT
BRANCH   1   7
HETATM    7  C1  UNL     1     -20.040   1.977 -18.606  1.00  0.00     0.177 C 
BRANCH   7   8
HETATM    8  O1  UNL     1     -21.282   2.217 -18.063  1.00  0.00    -0.400 OA
ATOM      9  H1  UNL     1     -21.968   2.446 -18.679  1.00  0.00     0.209 HD
ENDBRANCH   7   8
ENDBRANCH   1   7
BRANCH   1  10
HETATM   10  C3  UNL     1     -17.877   0.708 -18.146  1.00  0.00     0.285 C 
BRANCH  10  11
HETATM   11  N1  UNL     1     -17.981   0.234 -19.493  1.00  0.00     0.089 N 
HETATM   12  C4  UNL     1     -17.125   1.105 -20.321  1.00  0.00     0.272 C 
HETATM   13  C5  UNL     1     -16.772   0.253 -21.516  1.00  0.00     0.032 C 
HETATM   14  C6  UNL     1     -16.491  -1.075 -20.859  1.00  0.00     0.032 C 
HETATM   15  C7  UNL     1     -17.342  -1.069 -19.610  1.00  0.00     0.272 C 
ENDBRANCH  10  11
ENDBRANCH   1  10
BRANCH   5  16
HETATM   16  C11 UNL     1     -19.235  -0.690 -14.837  1.00  0.00     0.277 C 
BRANCH  16  17
HETATM   17  C12 UNL     1     -19.204  -0.263 -13.393  1.00  0.00     0.014 A 
HETATM   18  C13 UNL     1     -18.866  -1.430 -12.443  1.00  0.00     0.007 A 
HETATM   19  C14 UNL     1     -20.189  -0.722 -12.417  1.00  0.00     0.007 A 
ENDBRANCH  16  17
ENDBRANCH   5  16
TORSDOF 6
ENDMDL
