MODEL 1
REMARK VINA RESULT: -6.390269313      0.000      0.000
REMARK  3 active torsions:
REMARK  status: ('A' for Active; 'I' for Inactive)
REMARK    1  A    between atoms: C2_3  and  C3_4 
REMARK    2  A    between atoms: N2_5  and  C4_7 
REMARK    3  A    between atoms: C7_10  and  C8_11 
ROOT
HETATM    1  N1  UNL     1      46.722  21.241  40.982  1.00  0.00    -0.197 NA
HETATM    2  C1  UNL     1      47.538  21.953  40.620  1.00  0.00     0.064 C 
HETATM    3  C2  UNL     1      48.586  22.857  40.182  1.00  0.00     0.167 C 
ENDROOT
BRANCH   3   4
HETATM    4  C3  UNL     1      48.306  24.277  40.519  1.00  0.00     0.070 C 
HETATM    5  N2  UNL     1      48.920  24.907  41.445  1.00  0.00    -0.397 N 
ATOM      6  H2  UNL     1      49.639  24.438  41.997  1.00  0.00     0.159 HD
BRANCH   5   7
HETATM    7  C4  UNL     1      48.588  26.276  41.704  1.00  0.00     0.081 C 
HETATM    8  C5  UNL     1      48.090  26.485  43.119  1.00  0.00     0.026 C 
HETATM    9  C6  UNL     1      46.639  26.900  43.009  1.00  0.00     0.013 C 
HETATM   10  C7  UNL     1      46.613  27.643  41.711  1.00  0.00     0.049 C 
HETATM   11  C9  UNL     1      47.453  26.748  40.809  1.00  0.00     0.036 C 
BRANCH  10  12
HETATM   12  C8  UNL     1      45.275  27.848  41.163  1.00  0.00     0.235 C 
HETATM   13  O1  UNL     1      44.935  28.942  40.779  1.00  0.00    -0.306 OA
ENDBRANCH  10  12
ENDBRANCH   5   7
ENDBRANCH   3   4
TORSDOF 3
ENDMDL
MODEL 2
REMARK VINA RESULT: -6.340038235      3.155      4.126
REMARK  3 active torsions:
REMARK  status: ('A' for Active; 'I' for Inactive)
REMARK    1  A    between atoms: C2_3  and  C3_4 
REMARK    2  A    between atoms: N2_5  and  C4_7 
REMARK    3  A    between atoms: C7_10  and  C8_11 
ROOT
HETATM    1  N1  UNL     1      53.158  23.927  37.115  1.00  0.00    -0.197 NA
HETATM    2  C1  UNL     1      53.095  23.959  38.255  1.00  0.00     0.064 C 
HETATM    3  C2  UNL     1      53.014  23.975  39.704  1.00  0.00     0.167 C 
ENDROOT
BRANCH   3   4
HETATM    4  C3  UNL     1      51.623  23.841  40.210  1.00  0.00     0.070 C 
HETATM    5  N2  UNL     1      50.698  24.675  39.933  1.00  0.00    -0.397 N 
ATOM      6  H2  UNL     1      50.893  25.482  39.338  1.00  0.00     0.159 HD
BRANCH   5   7
HETATM    7  C4  UNL     1      49.383  24.470  40.464  1.00  0.00     0.081 C 
HETATM    8  C5  UNL     1      48.306  24.992  39.536  1.00  0.00     0.026 C 
HETATM    9  C6  UNL     1      47.639  26.145  40.254  1.00  0.00     0.013 C 
HETATM   10  C7  UNL     1      47.757  25.744  41.689  1.00  0.00     0.049 C 
HETATM   11  C9  UNL     1      49.189  25.230  41.766  1.00  0.00     0.036 C 
BRANCH  10  12
HETATM   12  C8  UNL     1      47.527  26.829  42.638  1.00  0.00     0.235 C 
HETATM   13  O1  UNL     1      46.515  26.858  43.299  1.00  0.00    -0.306 OA
ENDBRANCH  10  12
ENDBRANCH   5   7
ENDBRANCH   3   4
TORSDOF 3
ENDMDL
MODEL 3
REMARK VINA RESULT: -6.194785391      2.079      2.391
REMARK  3 active torsions:
REMARK  status: ('A' for Active; 'I' for Inactive)
REMARK    1  A    between atoms: C2_3  and  C3_4 
REMARK    2  A    between atoms: N2_5  and  C4_7 
REMARK    3  A    between atoms: C7_10  and  C8_11 
ROOT
HETATM    1  N1  UNL     1      51.665  22.085  43.895  1.00  0.00    -0.197 NA
HETATM    2  C1  UNL     1      51.321  22.370  42.844  1.00  0.00     0.064 C 
HETATM    3  C2  UNL     1      50.907  22.742  41.504  1.00  0.00     0.167 C 
ENDROOT
BRANCH   3   4
HETATM    4  C3  UNL     1      50.438  24.150  41.410  1.00  0.00     0.070 C 
HETATM    5  N2  UNL     1      49.222  24.492  41.591  1.00  0.00    -0.397 N 
ATOM      6  H2  UNL     1      48.516  23.788  41.812  1.00  0.00     0.159 HD
BRANCH   5   7
HETATM    7  C4  UNL     1      48.856  25.873  41.482  1.00  0.00     0.081 C 
HETATM    8  C5  UNL     1      48.613  26.507  42.835  1.00  0.00     0.026 C 
HETATM    9  C6  UNL     1      47.144  26.862  42.889  1.00  0.00     0.013 C 
HETATM   10  C7  UNL     1      46.832  27.165  41.459  1.00  0.00     0.049 C 
HETATM   11  C9  UNL     1      47.547  26.039  40.725  1.00  0.00     0.036 C 
BRANCH  10  12
HETATM   12  C8  UNL     1      45.405  27.185  41.146  1.00  0.00     0.235 C 
HETATM   13  O1  UNL     1      44.828  28.237  40.996  1.00  0.00    -0.306 OA
ENDBRANCH  10  12
ENDBRANCH   5   7
ENDBRANCH   3   4
TORSDOF 3
ENDMDL
MODEL 4
REMARK VINA RESULT: -6.154649833      4.014      6.038
REMARK  3 active torsions:
REMARK  status: ('A' for Active; 'I' for Inactive)
REMARK    1  A    between atoms: C2_3  and  C3_4 
REMARK    2  A    between atoms: N2_5  and  C4_7 
REMARK    3  A    between atoms: C7_10  and  C8_11 
ROOT
HETATM    1  N1  UNL     1      46.041  26.853  42.829  1.00  0.00    -0.197 NA
HETATM    2  C1  UNL     1      47.180  26.771  42.813  1.00  0.00     0.064 C 
HETATM    3  C2  UNL     1      48.628  26.680  42.773  1.00  0.00     0.167 C 
ENDROOT
BRANCH   3   4
HETATM    4  C3  UNL     1      49.118  25.591  41.888  1.00  0.00     0.070 C 
HETATM    5  N2  UNL     1      49.779  24.588  42.320  1.00  0.00    -0.397 N 
ATOM      6  H2  UNL     1      49.996  24.504  43.314  1.00  0.00     0.159 HD
BRANCH   5   7
HETATM    7  C4  UNL     1      50.214  23.582  41.397  1.00  0.00     0.081 C 
HETATM    8  C5  UNL     1      51.171  22.598  42.036  1.00  0.00     0.026 C 
HETATM    9  C6  UNL     1      52.506  22.788  41.351  1.00  0.00     0.013 C 
HETATM   10  C7  UNL     1      52.106  23.196  39.970  1.00  0.00     0.049 C 
HETATM   11  C9  UNL     1      50.985  24.192  40.238  1.00  0.00     0.036 C 
BRANCH  10  12
HETATM   12  C8  UNL     1      53.180  23.799  39.185  1.00  0.00     0.235 C 
HETATM   13  O1  UNL     1      53.138  23.779  37.978  1.00  0.00    -0.306 OA
ENDBRANCH  10  12
ENDBRANCH   5   7
ENDBRANCH   3   4
TORSDOF 3
ENDMDL
MODEL 5
REMARK VINA RESULT: -6.066436991      3.112      5.305
REMARK  3 active torsions:
REMARK  status: ('A' for Active; 'I' for Inactive)
REMARK    1  A    between atoms: C2_3  and  C3_4 
REMARK    2  A    between atoms: N2_5  and  C4_7 
REMARK    3  A    between atoms: C7_10  and  C8_11 
ROOT
HETATM    1  N1  UNL     1      44.891  28.708  40.957  1.00  0.00    -0.197 NA
HETATM    2  C1  UNL     1      45.410  27.930  41.613  1.00  0.00     0.064 C 
HETATM    3  C2  UNL     1      46.088  26.956  42.449  1.00  0.00     0.167 C 
ENDROOT
BRANCH   3   4
HETATM    4  C3  UNL     1      47.036  26.099  41.690  1.00  0.00     0.070 C 
HETATM    5  N2  UNL     1      47.347  26.315  40.471  1.00  0.00    -0.397 N 
ATOM      6  H2  UNL     1      46.942  27.105  39.968  1.00  0.00     0.159 HD
BRANCH   5   7
HETATM    7  C4  UNL     1      48.271  25.437  39.814  1.00  0.00     0.081 C 
HETATM    8  C5  UNL     1      47.655  24.089  39.506  1.00  0.00     0.026 C 
HETATM    9  C6  UNL     1      48.396  23.074  40.349  1.00  0.00     0.013 C 
HETATM   10  C7  UNL     1      49.766  23.664  40.437  1.00  0.00     0.049 C 
HETATM   11  C9  UNL     1      49.469  25.135  40.700  1.00  0.00     0.036 C 
BRANCH  10  12
HETATM   12  C8  UNL     1      50.601  23.091  41.489  1.00  0.00     0.235 C 
HETATM   13  O1  UNL     1      50.504  23.486  42.627  1.00  0.00    -0.306 OA
ENDBRANCH  10  12
ENDBRANCH   5   7
ENDBRANCH   3   4
TORSDOF 3
ENDMDL
