MODEL 1
REMARK VINA RESULT: -6.750512377      0.000      0.000
REMARK  3 active torsions:
REMARK  status: ('A' for Active; 'I' for Inactive)
REMARK    1  A    between atoms: C2_3  and  C3_4 
REMARK    2  A    between atoms: C3_4  and  C4_5 
REMARK    3  A    between atoms: C4_5  and  C5_6 
ROOT
HETATM    1  N1  UNL     1      53.077  24.210  36.866  1.00  0.00    -0.197 NA
HETATM    2  C1  UNL     1      53.198  23.935  37.980  1.00  0.00     0.059 C 
HETATM    3  C2  UNL     1      53.373  23.602  39.390  1.00  0.00     0.124 C 
ENDROOT
BRANCH   3   4
HETATM    4  C3  UNL     1      52.035  23.443  40.094  1.00  0.00     0.017 C 
BRANCH   4   5
HETATM    5  C4  UNL     1      51.226  24.689  39.961  1.00  0.00     0.033 C 
BRANCH   5   6
HETATM    6  C5  UNL     1      49.845  24.592  40.530  1.00  0.00     0.132 C 
HETATM    7  C6  UNL     1      48.972  25.494  39.647  1.00  0.00     0.033 C 
HETATM    8  C7  UNL     1      47.507  25.230  39.891  1.00  0.00     0.012 C 
HETATM    9  C8  UNL     1      47.246  23.794  39.429  1.00  0.00     0.111 C 
HETATM   10  C9  UNL     1      48.036  22.924  40.347  1.00  0.00     0.259 C 
HETATM   11  O1  UNL     1      47.500  21.894  40.867  1.00  0.00    -0.265 OA
HETATM   12  O2  UNL     1      49.350  23.286  40.596  1.00  0.00    -0.316 OA
ENDBRANCH   5   6
ENDBRANCH   4   5
ENDBRANCH   3   4
TORSDOF 3
ENDMDL
MODEL 2
REMARK VINA RESULT: -6.491019712      2.280      2.573
REMARK  3 active torsions:
REMARK  status: ('A' for Active; 'I' for Inactive)
REMARK    1  A    between atoms: C2_3  and  C3_4 
REMARK    2  A    between atoms: C3_4  and  C4_5 
REMARK    3  A    between atoms: C4_5  and  C5_6 
ROOT
HETATM    1  N1  UNL     1      51.653  22.070  43.472  1.00  0.00    -0.197 NA
HETATM    2  C1  UNL     1      52.146  22.352  42.468  1.00  0.00     0.059 C 
HETATM    3  C2  UNL     1      52.790  22.693  41.203  1.00  0.00     0.124 C 
ENDROOT
BRANCH   3   4
HETATM    4  C3  UNL     1      51.767  22.920  40.101  1.00  0.00     0.017 C 
BRANCH   4   5
HETATM    5  C4  UNL     1      51.198  24.296  40.196  1.00  0.00     0.033 C 
BRANCH   5   6
HETATM    6  C5  UNL     1      49.776  24.344  40.661  1.00  0.00     0.132 C 
HETATM    7  C6  UNL     1      49.049  25.257  39.663  1.00  0.00     0.033 C 
HETATM    8  C7  UNL     1      47.553  25.125  39.807  1.00  0.00     0.012 C 
HETATM    9  C8  UNL     1      47.207  23.689  39.406  1.00  0.00     0.111 C 
HETATM   10  C9  UNL     1      47.852  22.817  40.431  1.00  0.00     0.259 C 
HETATM   11  O1  UNL     1      47.194  21.868  40.964  1.00  0.00    -0.265 OA
HETATM   12  O2  UNL     1      49.170  23.089  40.760  1.00  0.00    -0.316 OA
ENDBRANCH   5   6
ENDBRANCH   4   5
ENDBRANCH   3   4
TORSDOF 3
ENDMDL
MODEL 3
REMARK VINA RESULT: -6.460717039      3.114      3.674
REMARK  3 active torsions:
REMARK  status: ('A' for Active; 'I' for Inactive)
REMARK    1  A    between atoms: C2_3  and  C3_4 
REMARK    2  A    between atoms: C3_4  and  C4_5 
REMARK    3  A    between atoms: C4_5  and  C5_6 
ROOT
HETATM    1  N1  UNL     1      50.985  22.746  44.339  1.00  0.00    -0.197 NA
HETATM    2  C1  UNL     1      51.564  22.548  43.360  1.00  0.00     0.059 C 
HETATM    3  C2  UNL     1      52.292  22.273  42.125  1.00  0.00     0.124 C 
ENDROOT
BRANCH   3   4
HETATM    4  C3  UNL     1      51.966  23.295  41.047  1.00  0.00     0.017 C 
BRANCH   4   5
HETATM    5  C4  UNL     1      50.494  23.355  40.816  1.00  0.00     0.033 C 
BRANCH   5   6
HETATM    6  C5  UNL     1      49.919  24.736  40.854  1.00  0.00     0.132 C 
HETATM    7  C6  UNL     1      48.955  24.813  39.662  1.00  0.00     0.033 C 
HETATM    8  C7  UNL     1      48.058  26.021  39.775  1.00  0.00     0.012 C 
HETATM    9  C8  UNL     1      47.189  25.797  41.015  1.00  0.00     0.111 C 
HETATM   10  C9  UNL     1      48.129  25.806  42.174  1.00  0.00     0.259 C 
HETATM   11  O1  UNL     1      47.853  26.485  43.213  1.00  0.00    -0.265 OA
HETATM   12  O2  UNL     1      49.288  25.054  42.060  1.00  0.00    -0.316 OA
ENDBRANCH   5   6
ENDBRANCH   4   5
ENDBRANCH   3   4
TORSDOF 3
ENDMDL
MODEL 4
REMARK VINA RESULT: -6.327695177      3.372      5.216
REMARK  3 active torsions:
REMARK  status: ('A' for Active; 'I' for Inactive)
REMARK    1  A    between atoms: C2_3  and  C3_4 
REMARK    2  A    between atoms: C3_4  and  C4_5 
REMARK    3  A    between atoms: C4_5  and  C5_6 
ROOT
HETATM    1  N1  UNL     1      46.278  28.139  41.153  1.00  0.00    -0.197 NA
HETATM    2  C1  UNL     1      46.793  27.459  41.931  1.00  0.00     0.059 C 
HETATM    3  C2  UNL     1      47.422  26.585  42.916  1.00  0.00     0.124 C 
ENDROOT
BRANCH   3   4
HETATM    4  C3  UNL     1      48.889  26.350  42.595  1.00  0.00     0.017 C 
BRANCH   4   5
HETATM    5  C4  UNL     1      49.046  25.887  41.185  1.00  0.00     0.033 C 
BRANCH   5   6
HETATM    6  C5  UNL     1      49.548  24.484  41.049  1.00  0.00     0.132 C 
HETATM    7  C6  UNL     1      50.742  24.567  40.088  1.00  0.00     0.033 C 
HETATM    8  C7  UNL     1      51.550  23.293  40.125  1.00  0.00     0.012 C 
HETATM    9  C8  UNL     1      52.139  23.198  41.535  1.00  0.00     0.111 C 
HETATM   10  C9  UNL     1      50.971  23.036  42.450  1.00  0.00     0.259 C 
HETATM   11  O1  UNL     1      50.993  22.145  43.358  1.00  0.00    -0.265 OA
HETATM   12  O2  UNL     1      49.893  23.886  42.264  1.00  0.00    -0.316 OA
ENDBRANCH   5   6
ENDBRANCH   4   5
ENDBRANCH   3   4
TORSDOF 3
ENDMDL
MODEL 5
REMARK VINA RESULT: -6.325390613      3.730      5.713
REMARK  3 active torsions:
REMARK  status: ('A' for Active; 'I' for Inactive)
REMARK    1  A    between atoms: C2_3  and  C3_4 
REMARK    2  A    between atoms: C3_4  and  C4_5 
REMARK    3  A    between atoms: C4_5  and  C5_6 
ROOT
HETATM    1  N1  UNL     1      45.222  29.139  40.630  1.00  0.00    -0.197 NA
HETATM    2  C1  UNL     1      45.288  28.192  41.285  1.00  0.00     0.059 C 
HETATM    3  C2  UNL     1      45.364  26.979  42.094  1.00  0.00     0.124 C 
ENDROOT
BRANCH   3   4
HETATM    4  C3  UNL     1      46.484  27.064  43.119  1.00  0.00     0.017 C 
BRANCH   4   5
HETATM    5  C4  UNL     1      47.812  26.955  42.448  1.00  0.00     0.033 C 
BRANCH   5   6
HETATM    6  C5  UNL     1      48.007  25.693  41.667  1.00  0.00     0.132 C 
HETATM    7  C6  UNL     1      48.257  26.140  40.220  1.00  0.00     0.033 C 
HETATM    8  C7  UNL     1      48.803  25.002  39.393  1.00  0.00     0.012 C 
HETATM    9  C8  UNL     1      50.175  24.663  39.981  1.00  0.00     0.111 C 
HETATM   10  C9  UNL     1      49.910  24.153  41.358  1.00  0.00     0.259 C 
HETATM   11  O1  UNL     1      50.477  23.089  41.763  1.00  0.00    -0.265 OA
HETATM   12  O2  UNL     1      49.038  24.882  42.151  1.00  0.00    -0.316 OA
ENDBRANCH   5   6
ENDBRANCH   4   5
ENDBRANCH   3   4
TORSDOF 3
ENDMDL
