MODEL 1
REMARK VINA RESULT: -5.697547545      0.000      0.000
REMARK  3 active torsions:
REMARK  status: ('A' for Active; 'I' for Inactive)
REMARK    1  A    between atoms: C2_2  and  C3_3 
REMARK    2  A    between atoms: C6_6  and  C7_7 
REMARK    3  A    between atoms: C7_7  and  N1_8 
ROOT
HETATM    1  C3  UNL     1      47.737  25.188  41.330  1.00  0.00     0.144 C 
HETATM    2  C4  UNL     1      47.597  25.047  39.847  1.00  0.00     0.038 C 
HETATM    3  C5  UNL     1      49.004  25.414  39.365  1.00  0.00     0.036 C 
HETATM    4  C6  UNL     1      49.815  25.056  40.584  1.00  0.00     0.146 C 
HETATM    5  O3  UNL     1      49.027  25.547  41.621  1.00  0.00    -0.375 OA
ENDROOT
BRANCH   4   6
HETATM    6  C7  UNL     1      49.979  23.559  40.733  1.00  0.00     0.233 C 
BRANCH   6   7
HETATM    7  N1  UNL     1      50.942  23.214  41.740  1.00  0.00    -0.153 N 
HETATM    8  O1  UNL     1      50.573  22.868  42.862  1.00  0.00    -0.536 OA
HETATM    9  O2  UNL     1      52.274  23.264  41.470  1.00  0.00    -0.536 OA
ENDBRANCH   6   7
ENDBRANCH   4   6
BRANCH   1  10
HETATM   10  C2  UNL     1      46.744  26.128  41.913  1.00  0.00    -0.005 C 
HETATM   11  C1  UNL     1      47.031  26.876  42.950  1.00  0.00     0.009 C 
ENDBRANCH   1  10
TORSDOF 3
ENDMDL
MODEL 2
REMARK VINA RESULT: -5.659420340      2.406      2.715
REMARK  3 active torsions:
REMARK  status: ('A' for Active; 'I' for Inactive)
REMARK    1  A    between atoms: C2_2  and  C3_3 
REMARK    2  A    between atoms: C6_6  and  C7_7 
REMARK    3  A    between atoms: C7_7  and  N1_8 
ROOT
HETATM    1  C3  UNL     1      47.435  25.734  41.429  1.00  0.00     0.144 C 
HETATM    2  C4  UNL     1      47.786  26.321  40.098  1.00  0.00     0.038 C 
HETATM    3  C5  UNL     1      48.955  25.432  39.664  1.00  0.00     0.036 C 
HETATM    4  C6  UNL     1      48.645  24.174  40.432  1.00  0.00     0.146 C 
HETATM    5  O3  UNL     1      48.262  24.669  41.674  1.00  0.00    -0.375 OA
ENDROOT
BRANCH   4   6
HETATM    6  C7  UNL     1      47.498  23.404  39.814  1.00  0.00     0.233 C 
BRANCH   6   7
HETATM    7  N1  UNL     1      47.387  22.074  40.342  1.00  0.00    -0.153 N 
HETATM    8  O1  UNL     1      48.145  21.693  41.235  1.00  0.00    -0.536 OA
HETATM    9  O2  UNL     1      46.444  21.217  39.867  1.00  0.00    -0.536 OA
ENDBRANCH   6   7
ENDBRANCH   4   6
BRANCH   1  10
HETATM   10  C2  UNL     1      47.464  26.737  42.524  1.00  0.00    -0.005 C 
HETATM   11  C1  UNL     1      46.399  27.010  43.237  1.00  0.00     0.009 C 
ENDBRANCH   1  10
TORSDOF 3
ENDMDL
MODEL 3
REMARK VINA RESULT: -5.441029605      2.893      4.893
REMARK  3 active torsions:
REMARK  status: ('A' for Active; 'I' for Inactive)
REMARK    1  A    between atoms: C2_2  and  C3_3 
REMARK    2  A    between atoms: C6_6  and  C7_7 
REMARK    3  A    between atoms: C7_7  and  N1_8 
ROOT
HETATM    1  C3  UNL     1      51.913  23.456  39.512  1.00  0.00     0.144 C 
HETATM    2  C4  UNL     1      52.180  22.557  40.678  1.00  0.00     0.038 C 
HETATM    3  C5  UNL     1      51.503  23.318  41.821  1.00  0.00     0.036 C 
HETATM    4  C6  UNL     1      50.465  24.098  41.056  1.00  0.00     0.146 C 
HETATM    5  O3  UNL     1      51.178  24.530  39.942  1.00  0.00    -0.375 OA
ENDROOT
BRANCH   4   6
HETATM    6  C7  UNL     1      49.312  23.222  40.617  1.00  0.00     0.233 C 
BRANCH   6   7
HETATM    7  N1  UNL     1      48.088  23.959  40.481  1.00  0.00    -0.153 N 
HETATM    8  O1  UNL     1      47.642  24.607  41.429  1.00  0.00    -0.536 OA
HETATM    9  O2  UNL     1      47.404  23.955  39.306  1.00  0.00    -0.536 OA
ENDBRANCH   6   7
ENDBRANCH   4   6
BRANCH   1  10
HETATM   10  C2  UNL     1      53.155  23.867  38.809  1.00  0.00    -0.005 C 
HETATM   11  C1  UNL     1      53.191  24.019  37.508  1.00  0.00     0.009 C 
ENDBRANCH   1  10
TORSDOF 3
ENDMDL
MODEL 4
REMARK VINA RESULT: -5.419835902      2.569      4.543
REMARK  3 active torsions:
REMARK  status: ('A' for Active; 'I' for Inactive)
REMARK    1  A    between atoms: C2_2  and  C3_3 
REMARK    2  A    between atoms: C6_6  and  C7_7 
REMARK    3  A    between atoms: C7_7  and  N1_8 
ROOT
HETATM    1  C3  UNL     1      49.711  25.074  40.700  1.00  0.00     0.144 C 
HETATM    2  C4  UNL     1      48.982  25.408  39.437  1.00  0.00     0.038 C 
HETATM    3  C5  UNL     1      47.546  25.009  39.790  1.00  0.00     0.036 C 
HETATM    4  C6  UNL     1      47.581  25.155  41.290  1.00  0.00     0.146 C 
HETATM    5  O3  UNL     1      48.811  24.594  41.616  1.00  0.00    -0.375 OA
ENDROOT
BRANCH   4   6
HETATM    6  C7  UNL     1      47.553  26.608  41.715  1.00  0.00     0.233 C 
BRANCH   6   7
HETATM    7  N1  UNL     1      46.286  26.988  42.272  1.00  0.00    -0.153 N 
HETATM    8  O1  UNL     1      46.141  27.067  43.493  1.00  0.00    -0.536 OA
HETATM    9  O2  UNL     1      45.229  27.267  41.464  1.00  0.00    -0.536 OA
ENDBRANCH   6   7
ENDBRANCH   4   6
BRANCH   1  10
HETATM   10  C2  UNL     1      50.844  24.139  40.478  1.00  0.00    -0.005 C 
HETATM   11  C1  UNL     1      51.104  23.163  41.312  1.00  0.00     0.009 C 
ENDBRANCH   1  10
TORSDOF 3
ENDMDL
MODEL 5
REMARK VINA RESULT: -5.412030403      1.696      2.436
REMARK  3 active torsions:
REMARK  status: ('A' for Active; 'I' for Inactive)
REMARK    1  A    between atoms: C2_2  and  C3_3 
REMARK    2  A    between atoms: C6_6  and  C7_7 
REMARK    3  A    between atoms: C7_7  and  N1_8 
ROOT
HETATM    1  C3  UNL     1      47.412  27.393  41.089  1.00  0.00     0.144 C 
HETATM    2  C4  UNL     1      48.191  27.599  42.350  1.00  0.00     0.038 C 
HETATM    3  C5  UNL     1      48.265  26.175  42.907  1.00  0.00     0.036 C 
HETATM    4  C6  UNL     1      48.132  25.375  41.637  1.00  0.00     0.146 C 
HETATM    5  O3  UNL     1      47.129  26.059  40.958  1.00  0.00    -0.375 OA
ENDROOT
BRANCH   4   6
HETATM    6  C7  UNL     1      49.407  25.395  40.822  1.00  0.00     0.233 C 
BRANCH   6   7
HETATM    7  N1  UNL     1      50.116  24.150  40.888  1.00  0.00    -0.153 N 
HETATM    8  O1  UNL     1      49.567  23.143  41.336  1.00  0.00    -0.536 OA
HETATM    9  O2  UNL     1      51.403  24.062  40.458  1.00  0.00    -0.536 OA
ENDBRANCH   6   7
ENDBRANCH   4   6
BRANCH   1  10
HETATM   10  C2  UNL     1      46.193  28.239  41.024  1.00  0.00    -0.005 C 
HETATM   11  C1  UNL     1      45.002  27.750  41.268  1.00  0.00     0.009 C 
ENDBRANCH   1  10
TORSDOF 3
ENDMDL
