MODEL 1
REMARK VINA RESULT: -5.504736093      0.000      0.000
REMARK  4 active torsions:
REMARK  status: ('A' for Active; 'I' for Inactive)
REMARK    1  A    between atoms: C2_2  and  C3_4 
REMARK    2  A    between atoms: C5_6  and  C6_7 
REMARK    3  A    between atoms: C6_7  and  N1_8 
REMARK    4  A    between atoms: N1_8  and  C7_10 
ROOT
HETATM    1  C3  UNL     1      47.554  27.325  41.212  1.00  0.00     0.056 C 
HETATM    2  C4  UNL     1      47.955  26.246  40.221  1.00  0.00     0.018 C 
HETATM    3  C5  UNL     1      48.444  25.457  41.441  1.00  0.00     0.005 C 
HETATM    4  C8  UNL     1      48.738  26.826  42.058  1.00  0.00     0.018 C 
ENDROOT
BRANCH   3   5
HETATM    5  C6  UNL     1      49.666  24.672  41.060  1.00  0.00     0.124 C 
BRANCH   5   6
HETATM    6  N1  UNL     1      49.836  23.468  41.798  1.00  0.00    -0.390 N 
ATOM      7  H1  UNL     1      49.021  22.965  42.149  1.00  0.00     0.159 HD
BRANCH   6   8
HETATM    8  C7  UNL     1      51.000  23.019  42.021  1.00  0.00     0.165 C 
HETATM    9  S1  UNL     1      52.407  22.287  41.919  1.00  0.00    -0.075 SA
ENDBRANCH   6   8
ENDBRANCH   5   6
ENDBRANCH   3   5
BRANCH   1  10
HETATM   10  C2  UNL     1      46.270  27.095  41.890  1.00  0.00     0.127 C 
HETATM   11  C1  UNL     1      46.142  27.090  43.362  1.00  0.00     0.091 C 
HETATM   12  O1  UNL     1      45.280  26.900  41.215  1.00  0.00    -0.298 OA
ENDBRANCH   1  10
TORSDOF 4
ENDMDL
MODEL 2
REMARK VINA RESULT: -5.440083768      2.182      2.326
REMARK  4 active torsions:
REMARK  status: ('A' for Active; 'I' for Inactive)
REMARK    1  A    between atoms: C2_2  and  C3_4 
REMARK    2  A    between atoms: C5_6  and  C6_7 
REMARK    3  A    between atoms: C6_7  and  N1_8 
REMARK    4  A    between atoms: N1_8  and  C7_10 
ROOT
HETATM    1  C3  UNL     1      47.674  27.323  41.599  1.00  0.00     0.056 C 
HETATM    2  C4  UNL     1      47.918  26.548  40.316  1.00  0.00     0.018 C 
HETATM    3  C5  UNL     1      48.132  25.328  41.220  1.00  0.00     0.005 C 
HETATM    4  C8  UNL     1      48.656  26.333  42.248  1.00  0.00     0.018 C 
ENDROOT
BRANCH   3   5
HETATM    5  C6  UNL     1      49.188  24.449  40.615  1.00  0.00     0.124 C 
BRANCH   5   6
HETATM    6  N1  UNL     1      49.031  23.066  40.909  1.00  0.00    -0.390 N 
ATOM      7  H1  UNL     1      49.765  22.564  41.409  1.00  0.00     0.159 HD
BRANCH   6   8
HETATM    8  C7  UNL     1      47.981  22.455  40.550  1.00  0.00     0.165 C 
HETATM    9  S1  UNL     1      46.843  21.372  40.307  1.00  0.00    -0.075 SA
ENDBRANCH   6   8
ENDBRANCH   5   6
ENDBRANCH   3   5
BRANCH   1  10
HETATM   10  C2  UNL     1      46.321  27.186  42.157  1.00  0.00     0.127 C 
HETATM   11  C1  UNL     1      45.105  27.330  41.330  1.00  0.00     0.091 C 
HETATM   12  O1  UNL     1      46.200  26.947  43.341  1.00  0.00    -0.298 OA
ENDBRANCH   1  10
TORSDOF 4
ENDMDL
MODEL 3
REMARK VINA RESULT: -5.435835970      0.863      1.040
REMARK  4 active torsions:
REMARK  status: ('A' for Active; 'I' for Inactive)
REMARK    1  A    between atoms: C2_2  and  C3_4 
REMARK    2  A    between atoms: C5_6  and  C6_7 
REMARK    3  A    between atoms: C6_7  and  N1_8 
REMARK    4  A    between atoms: N1_8  and  C7_10 
ROOT
HETATM    1  C3  UNL     1      47.627  27.344  41.476  1.00  0.00     0.056 C 
HETATM    2  C4  UNL     1      47.938  26.483  40.265  1.00  0.00     0.018 C 
HETATM    3  C5  UNL     1      48.282  25.379  41.271  1.00  0.00     0.005 C 
HETATM    4  C8  UNL     1      48.710  26.521  42.195  1.00  0.00     0.018 C 
ENDROOT
BRANCH   3   5
HETATM    5  C6  UNL     1      49.417  24.559  40.731  1.00  0.00     0.124 C 
BRANCH   5   6
HETATM    6  N1  UNL     1      49.639  23.340  41.431  1.00  0.00    -0.390 N 
ATOM      7  H1  UNL     1      48.862  22.701  41.601  1.00  0.00     0.159 HD
BRANCH   6   8
HETATM    8  C7  UNL     1      50.799  23.047  41.845  1.00  0.00     0.165 C 
HETATM    9  S1  UNL     1      52.057  22.344  42.517  1.00  0.00    -0.075 SA
ENDBRANCH   6   8
ENDBRANCH   5   6
ENDBRANCH   3   5
BRANCH   1  10
HETATM   10  C2  UNL     1      46.299  27.124  42.067  1.00  0.00     0.127 C 
HETATM   11  C1  UNL     1      45.058  27.176  41.268  1.00  0.00     0.091 C 
HETATM   12  O1  UNL     1      46.221  26.891  43.256  1.00  0.00    -0.298 OA
ENDBRANCH   1  10
TORSDOF 4
ENDMDL
MODEL 4
REMARK VINA RESULT: -5.306232817      1.705      2.244
REMARK  4 active torsions:
REMARK  status: ('A' for Active; 'I' for Inactive)
REMARK    1  A    between atoms: C2_2  and  C3_4 
REMARK    2  A    between atoms: C5_6  and  C6_7 
REMARK    3  A    between atoms: C6_7  and  N1_8 
REMARK    4  A    between atoms: N1_8  and  C7_10 
ROOT
HETATM    1  C3  UNL     1      47.737  25.085  39.787  1.00  0.00     0.056 C 
HETATM    2  C4  UNL     1      48.271  23.718  40.176  1.00  0.00     0.018 C 
HETATM    3  C5  UNL     1      49.593  24.438  40.472  1.00  0.00     0.005 C 
HETATM    4  C8  UNL     1      49.180  25.399  39.356  1.00  0.00     0.018 C 
ENDROOT
BRANCH   3   5
HETATM    5  C6  UNL     1      50.735  23.530  40.120  1.00  0.00     0.124 C 
BRANCH   5   6
HETATM    6  N1  UNL     1      51.800  23.541  41.064  1.00  0.00    -0.390 N 
ATOM      7  H1  UNL     1      52.626  24.113  40.893  1.00  0.00     0.159 HD
BRANCH   6   8
HETATM    8  C7  UNL     1      51.722  22.842  42.117  1.00  0.00     0.165 C 
HETATM    9  S1  UNL     1      51.555  22.338  43.615  1.00  0.00    -0.075 SA
ENDBRANCH   6   8
ENDBRANCH   5   6
ENDBRANCH   3   5
BRANCH   1  10
HETATM   10  C2  UNL     1      47.314  25.928  40.915  1.00  0.00     0.127 C 
HETATM   11  C1  UNL     1      47.219  27.399  40.812  1.00  0.00     0.091 C 
HETATM   12  O1  UNL     1      47.034  25.395  41.969  1.00  0.00    -0.298 OA
ENDBRANCH   1  10
TORSDOF 4
ENDMDL
MODEL 5
REMARK VINA RESULT: -5.142306387      2.124      2.473
REMARK  4 active torsions:
REMARK  status: ('A' for Active; 'I' for Inactive)
REMARK    1  A    between atoms: C2_2  and  C3_4 
REMARK    2  A    between atoms: C5_6  and  C6_7 
REMARK    3  A    between atoms: C6_7  and  N1_8 
REMARK    4  A    between atoms: N1_8  and  C7_10 
ROOT
HETATM    1  C3  UNL     1      47.456  25.336  39.928  1.00  0.00     0.056 C 
HETATM    2  C4  UNL     1      47.862  24.008  40.543  1.00  0.00     0.018 C 
HETATM    3  C5  UNL     1      49.273  24.601  40.628  1.00  0.00     0.005 C 
HETATM    4  C8  UNL     1      48.889  25.384  39.371  1.00  0.00     0.018 C 
ENDROOT
BRANCH   3   5
HETATM    5  C6  UNL     1      50.278  23.510  40.397  1.00  0.00     0.124 C 
BRANCH   5   6
HETATM    6  N1  UNL     1      51.632  23.930  40.526  1.00  0.00    -0.390 N 
ATOM      7  H1  UNL     1      51.998  24.196  41.440  1.00  0.00     0.159 HD
BRANCH   6   8
HETATM    8  C7  UNL     1      52.383  23.974  39.507  1.00  0.00     0.165 C 
HETATM    9  S1  UNL     1      52.962  23.979  38.027  1.00  0.00    -0.075 SA
ENDBRANCH   6   8
ENDBRANCH   5   6
ENDBRANCH   3   5
BRANCH   1  10
HETATM   10  C2  UNL     1      47.213  26.416  40.893  1.00  0.00     0.127 C 
HETATM   11  C1  UNL     1      46.652  26.167  42.237  1.00  0.00     0.091 C 
HETATM   12  O1  UNL     1      47.484  27.556  40.574  1.00  0.00    -0.298 OA
ENDBRANCH   1  10
TORSDOF 4
ENDMDL
