MODEL 1
REMARK VINA RESULT: -9.091097470      0.000      0.000
REMARK  4 active torsions:
REMARK  status: ('A' for Active; 'I' for Inactive)
REMARK    1  A    between atoms: N2_5  and  C4_6 
REMARK    2  A    between atoms: C7_9  and  O1_10 
REMARK    3  A    between atoms: O1_10  and  C8_11 
REMARK    4  A    between atoms: C16_23  and  C17_24 
ROOT
HETATM    1  N1  UNL     1      49.603   8.602 -19.791  1.00  0.00    -0.191 NA
HETATM    2  C1  UNL     1      49.685   9.741 -19.967  1.00  0.00     0.103 C 
HETATM    3  C2  UNL     1      49.765  11.156 -20.195  1.00  0.00     0.086 A 
HETATM    4  C3  UNL     1      49.749  11.787 -21.420  1.00  0.00     0.141 A 
HETATM    5  N2  UNL     1      49.843  13.097 -21.178  1.00  0.00    -0.266 N 
HETATM    6  N3  UNL     1      49.913  13.280 -19.873  1.00  0.00    -0.296 N 
ATOM      7  H3  UNL     1      49.991  14.192 -19.424  1.00  0.00     0.187 HD
HETATM    8  C16 UNL     1      49.870  12.112 -19.212  1.00  0.00     0.052 A 
ENDROOT
BRANCH   8   9
HETATM    9  C17 UNL     1      49.924  11.896 -17.741  1.00  0.00     0.042 C 
HETATM   10  C18 UNL     1      48.886  12.814 -17.077  1.00  0.00     0.038 C 
HETATM   11  C19 UNL     1      48.884  12.453 -15.609  1.00  0.00     0.233 C 
HETATM   12  N4  UNL     1      49.953  11.556 -15.250  1.00  0.00    -0.075 N 
HETATM   13  C20 UNL     1      51.247  11.981 -15.701  1.00  0.00     0.233 C 
ATOM     14  H42 UNL     1      49.960  11.393 -14.243  1.00  0.00     0.277 HD
ATOM     15  H41 UNL     1      49.753  10.612 -15.577  1.00  0.00     0.277 HD
HETATM   16  C21 UNL     1      51.262  12.332 -17.174  1.00  0.00     0.038 C 
ENDBRANCH   8   9
BRANCH   5  17
HETATM   17  C4  UNL     1      49.865  14.135 -22.141  1.00  0.00     0.056 A 
HETATM   18  C5  UNL     1      48.969  15.175 -22.066  1.00  0.00     0.034 A 
HETATM   19  C6  UNL     1      48.972  16.184 -22.981  1.00  0.00     0.039 A 
HETATM   20  C7  UNL     1      49.877  16.232 -24.048  1.00  0.00     0.069 A 
HETATM   21  C14 UNL     1      50.770  15.188 -24.116  1.00  0.00     0.039 A 
HETATM   22  C15 UNL     1      50.763  14.168 -23.188  1.00  0.00     0.034 A 
BRANCH  20  23
HETATM   23  O1  UNL     1      49.809  17.287 -24.925  1.00  0.00    -0.346 OA
BRANCH  23  24
HETATM   24  C8  UNL     1      49.120  17.263 -26.124  1.00  0.00     0.129 C 
HETATM   25  C9  UNL     1      48.619  18.662 -26.445  1.00  0.00     0.038 C 
HETATM   26  C10 UNL     1      47.811  19.163 -25.277  1.00  0.00     0.081 C 
HETATM   27  C11 UNL     1      46.587  18.303 -25.129  1.00  0.00     0.243 C 
HETATM   28  F1  UNL     1      45.484  19.092 -25.432  1.00  0.00    -0.206 F 
HETATM   29  F2  UNL     1      46.534  17.818 -23.836  1.00  0.00    -0.206 F 
HETATM   30  C12 UNL     1      46.605  17.115 -26.064  1.00  0.00     0.081 C 
HETATM   31  C13 UNL     1      47.898  16.375 -25.928  1.00  0.00     0.038 C 
ENDBRANCH  23  24
ENDBRANCH  20  23
ENDBRANCH   5  17
TORSDOF 4
ENDMDL
MODEL 2
REMARK VINA RESULT: -8.874941150      7.933     10.574
REMARK  4 active torsions:
REMARK  status: ('A' for Active; 'I' for Inactive)
REMARK    1  A    between atoms: N2_5  and  C4_6 
REMARK    2  A    between atoms: C7_9  and  O1_10 
REMARK    3  A    between atoms: O1_10  and  C8_11 
REMARK    4  A    between atoms: C16_23  and  C17_24 
ROOT
HETATM    1  N1  UNL     1      48.856   6.743 -31.090  1.00  0.00    -0.191 NA
HETATM    2  C1  UNL     1      49.616   7.229 -30.368  1.00  0.00     0.103 C 
HETATM    3  C2  UNL     1      50.552   7.820 -29.453  1.00  0.00     0.086 A 
HETATM    4  C3  UNL     1      50.242   8.603 -28.363  1.00  0.00     0.141 A 
HETATM    5  N2  UNL     1      51.402   8.939 -27.790  1.00  0.00    -0.266 N 
HETATM    6  N3  UNL     1      52.385   8.396 -28.483  1.00  0.00    -0.296 N 
ATOM      7  H3  UNL     1      53.374   8.500 -28.255  1.00  0.00     0.187 HD
HETATM    8  C16 UNL     1      51.920   7.691 -29.525  1.00  0.00     0.052 A 
ENDROOT
BRANCH   8   9
HETATM    9  C17 UNL     1      52.706   6.936 -30.538  1.00  0.00     0.042 C 
HETATM   10  C18 UNL     1      54.185   7.326 -30.393  1.00  0.00     0.038 C 
HETATM   11  C19 UNL     1      54.949   6.430 -31.342  1.00  0.00     0.233 C 
HETATM   12  N4  UNL     1      54.088   5.669 -32.212  1.00  0.00    -0.075 N 
HETATM   13  C20 UNL     1      53.101   6.457 -32.890  1.00  0.00     0.233 C 
ATOM     14  H42 UNL     1      54.641   5.132 -32.881  1.00  0.00     0.277 HD
ATOM     15  H41 UNL     1      53.648   4.905 -31.700  1.00  0.00     0.277 HD
HETATM   16  C21 UNL     1      52.319   7.347 -31.946  1.00  0.00     0.038 C 
ENDBRANCH   8   9
BRANCH   5  17
HETATM   17  C4  UNL     1      51.573   9.741 -26.636  1.00  0.00     0.056 A 
HETATM   18  C5  UNL     1      50.980   9.387 -25.447  1.00  0.00     0.034 A 
HETATM   19  C6  UNL     1      51.131  10.143 -24.324  1.00  0.00     0.039 A 
HETATM   20  C7  UNL     1      51.892  11.318 -24.302  1.00  0.00     0.069 A 
HETATM   21  C14 UNL     1      52.481  11.665 -25.495  1.00  0.00     0.039 A 
HETATM   22  C15 UNL     1      52.326  10.897 -26.630  1.00  0.00     0.034 A 
BRANCH  20  23
HETATM   23  O1  UNL     1      51.990  12.020 -23.125  1.00  0.00    -0.346 OA
BRANCH  23  24
HETATM   24  C8  UNL     1      51.008  12.858 -22.631  1.00  0.00     0.129 C 
HETATM   25  C9  UNL     1      51.564  14.267 -22.506  1.00  0.00     0.038 C 
HETATM   26  C10 UNL     1      52.814  14.218 -21.666  1.00  0.00     0.081 C 
HETATM   27  C11 UNL     1      52.447  13.786 -20.273  1.00  0.00     0.243 C 
HETATM   28  F1  UNL     1      52.670  14.868 -19.430  1.00  0.00    -0.206 F 
HETATM   29  F2  UNL     1      53.218  12.693 -19.926  1.00  0.00    -0.206 F 
HETATM   30  C12 UNL     1      50.995  13.377 -20.165  1.00  0.00     0.081 C 
HETATM   31  C13 UNL     1      50.664  12.377 -21.227  1.00  0.00     0.038 C 
ENDBRANCH  23  24
ENDBRANCH  20  23
ENDBRANCH   5  17
TORSDOF 4
ENDMDL
MODEL 3
REMARK VINA RESULT: -8.712413653      1.246      1.400
REMARK  4 active torsions:
REMARK  status: ('A' for Active; 'I' for Inactive)
REMARK    1  A    between atoms: N2_5  and  C4_6 
REMARK    2  A    between atoms: C7_9  and  O1_10 
REMARK    3  A    between atoms: O1_10  and  C8_11 
REMARK    4  A    between atoms: C16_23  and  C17_24 
ROOT
HETATM    1  N1  UNL     1      50.040   8.666 -19.812  1.00  0.00    -0.191 NA
HETATM    2  C1  UNL     1      49.877   9.755 -20.164  1.00  0.00     0.103 C 
HETATM    3  C2  UNL     1      49.656  11.100 -20.613  1.00  0.00     0.086 A 
HETATM    4  C3  UNL     1      49.777  11.558 -21.907  1.00  0.00     0.141 A 
HETATM    5  N2  UNL     1      49.482  12.861 -21.882  1.00  0.00    -0.266 N 
HETATM    6  N3  UNL     1      49.192  13.203 -20.641  1.00  0.00    -0.296 N 
ATOM      7  H3  UNL     1      48.931  14.145 -20.351  1.00  0.00     0.187 HD
HETATM    8  C16 UNL     1      49.282  12.153 -19.810  1.00  0.00     0.052 A 
ENDROOT
BRANCH   8   9
HETATM    9  C17 UNL     1      49.035  12.129 -18.343  1.00  0.00     0.042 C 
HETATM   10  C18 UNL     1      48.493  13.503 -17.920  1.00  0.00     0.038 C 
HETATM   11  C19 UNL     1      48.128  13.377 -16.458  1.00  0.00     0.233 C 
HETATM   12  N4  UNL     1      48.574  12.140 -15.872  1.00  0.00    -0.075 N 
HETATM   13  C20 UNL     1      49.958  11.847 -16.110  1.00  0.00     0.233 C 
ATOM     14  H42 UNL     1      48.371  12.123 -14.872  1.00  0.00     0.277 HD
ATOM     15  H41 UNL     1      47.986  11.365 -16.180  1.00  0.00     0.277 HD
HETATM   16  C21 UNL     1      50.331  11.956 -17.574  1.00  0.00     0.038 C 
ENDBRANCH   8   9
BRANCH   5  17
HETATM   17  C4  UNL     1      49.477  13.747 -22.986  1.00  0.00     0.056 A 
HETATM   18  C5  UNL     1      49.979  15.021 -22.861  1.00  0.00     0.034 A 
HETATM   19  C6  UNL     1      49.984  15.890 -23.910  1.00  0.00     0.039 A 
HETATM   20  C7  UNL     1      49.485  15.551 -25.173  1.00  0.00     0.069 A 
HETATM   21  C14 UNL     1      48.984  14.275 -25.290  1.00  0.00     0.039 A 
HETATM   22  C15 UNL     1      48.981  13.399 -24.226  1.00  0.00     0.034 A 
BRANCH  20  23
HETATM   23  O1  UNL     1      49.528  16.490 -26.175  1.00  0.00    -0.346 OA
BRANCH  23  24
HETATM   24  C8  UNL     1      48.414  17.016 -26.802  1.00  0.00     0.129 C 
HETATM   25  C9  UNL     1      48.703  18.445 -27.230  1.00  0.00     0.038 C 
HETATM   26  C10 UNL     1      49.160  19.225 -26.025  1.00  0.00     0.081 C 
HETATM   27  C11 UNL     1      48.027  19.303 -25.039  1.00  0.00     0.243 C 
HETATM   28  F1  UNL     1      47.625  20.632 -24.972  1.00  0.00    -0.206 F 
HETATM   29  F2  UNL     1      48.465  18.835 -23.816  1.00  0.00    -0.206 F 
HETATM   30  C12 UNL     1      46.845  18.459 -25.459  1.00  0.00     0.081 C 
HETATM   31  C13 UNL     1      47.294  17.067 -25.771  1.00  0.00     0.038 C 
ENDBRANCH  23  24
ENDBRANCH  20  23
ENDBRANCH   5  17
TORSDOF 4
ENDMDL
MODEL 4
REMARK VINA RESULT: -8.632815953      6.877      9.516
REMARK  4 active torsions:
REMARK  status: ('A' for Active; 'I' for Inactive)
REMARK    1  A    between atoms: N2_5  and  C4_6 
REMARK    2  A    between atoms: C7_9  and  O1_10 
REMARK    3  A    between atoms: O1_10  and  C8_11 
REMARK    4  A    between atoms: C16_23  and  C17_24 
ROOT
HETATM    1  N1  UNL     1      49.074  15.282 -21.175  1.00  0.00    -0.191 NA
HETATM    2  C1  UNL     1      49.442  14.896 -22.200  1.00  0.00     0.103 C 
HETATM    3  C2  UNL     1      49.879  14.401 -23.475  1.00  0.00     0.086 A 
HETATM    4  C3  UNL     1      50.316  13.123 -23.747  1.00  0.00     0.141 A 
HETATM    5  N2  UNL     1      50.623  13.091 -25.047  1.00  0.00    -0.266 N 
HETATM    6  N3  UNL     1      50.391  14.284 -25.563  1.00  0.00    -0.296 N 
ATOM      7  H3  UNL     1      50.544  14.526 -26.542  1.00  0.00     0.187 HD
HETATM    8  C16 UNL     1      49.929  15.137 -24.636  1.00  0.00     0.052 A 
ENDROOT
BRANCH   8   9
HETATM    9  C17 UNL     1      49.553  16.565 -24.820  1.00  0.00     0.042 C 
HETATM   10  C18 UNL     1      48.083  16.626 -25.261  1.00  0.00     0.038 C 
HETATM   11  C19 UNL     1      47.717  18.093 -25.295  1.00  0.00     0.233 C 
HETATM   12  N4  UNL     1      48.854  18.960 -25.123  1.00  0.00    -0.075 N 
HETATM   13  C20 UNL     1      49.954  18.659 -25.992  1.00  0.00     0.233 C 
ATOM     14  H42 UNL     1      48.577  19.938 -25.221  1.00  0.00     0.277 HD
ATOM     15  H41 UNL     1      49.157  18.964 -24.150  1.00  0.00     0.277 HD
HETATM   16  C21 UNL     1      50.338  17.194 -25.956  1.00  0.00     0.038 C 
ENDBRANCH   8   9
BRANCH   5  17
HETATM   17  C4  UNL     1      51.115  11.980 -25.772  1.00  0.00     0.056 A 
HETATM   18  C5  UNL     1      52.400  11.980 -26.261  1.00  0.00     0.034 A 
HETATM   19  C6  UNL     1      52.895  10.921 -26.961  1.00  0.00     0.039 A 
HETATM   20  C7  UNL     1      52.140   9.773 -27.228  1.00  0.00     0.069 A 
HETATM   21  C14 UNL     1      50.856   9.781 -26.735  1.00  0.00     0.039 A 
HETATM   22  C15 UNL     1      50.358  10.854 -26.027  1.00  0.00     0.034 A 
BRANCH  20  23
HETATM   23  O1  UNL     1      52.719   8.752 -27.942  1.00  0.00    -0.346 OA
BRANCH  23  24
HETATM   24  C8  UNL     1      53.759   8.917 -28.837  1.00  0.00     0.129 C 
HETATM   25  C9  UNL     1      53.214   9.454 -30.150  1.00  0.00     0.038 C 
HETATM   26  C10 UNL     1      52.125   8.531 -30.631  1.00  0.00     0.081 C 
HETATM   27  C11 UNL     1      52.727   7.190 -30.945  1.00  0.00     0.243 C 
HETATM   28  F1  UNL     1      52.636   7.003 -32.319  1.00  0.00    -0.206 F 
HETATM   29  F2  UNL     1      52.041   6.216 -30.245  1.00  0.00    -0.206 F 
HETATM   30  C12 UNL     1      54.182   7.108 -30.540  1.00  0.00     0.081 C 
HETATM   31  C13 UNL     1      54.342   7.538 -29.116  1.00  0.00     0.038 C 
ENDBRANCH  23  24
ENDBRANCH  20  23
ENDBRANCH   5  17
TORSDOF 4
ENDMDL
MODEL 5
REMARK VINA RESULT: -8.586983397      7.592     10.227
REMARK  4 active torsions:
REMARK  status: ('A' for Active; 'I' for Inactive)
REMARK    1  A    between atoms: N2_5  and  C4_6 
REMARK    2  A    between atoms: C7_9  and  O1_10 
REMARK    3  A    between atoms: O1_10  and  C8_11 
REMARK    4  A    between atoms: C16_23  and  C17_24 
ROOT
HETATM    1  N1  UNL     1      48.558   7.071 -30.932  1.00  0.00    -0.191 NA
HETATM    2  C1  UNL     1      49.346   7.509 -30.210  1.00  0.00     0.103 C 
HETATM    3  C2  UNL     1      50.317   8.038 -29.295  1.00  0.00     0.086 A 
HETATM    4  C3  UNL     1      50.055   8.803 -28.179  1.00  0.00     0.141 A 
HETATM    5  N2  UNL     1      51.235   9.079 -27.617  1.00  0.00    -0.266 N 
HETATM    6  N3  UNL     1      52.186   8.518 -28.339  1.00  0.00    -0.296 N 
ATOM      7  H3  UNL     1      53.181   8.578 -28.124  1.00  0.00     0.187 HD
HETATM    8  C16 UNL     1      51.678   7.860 -29.392  1.00  0.00     0.052 A 
ENDROOT
BRANCH   8   9
HETATM    9  C17 UNL     1      52.419   7.103 -30.437  1.00  0.00     0.042 C 
HETATM   10  C18 UNL     1      53.919   7.397 -30.277  1.00  0.00     0.038 C 
HETATM   11  C19 UNL     1      54.629   6.499 -31.264  1.00  0.00     0.233 C 
HETATM   12  N4  UNL     1      53.727   5.829 -32.165  1.00  0.00    -0.075 N 
HETATM   13  C20 UNL     1      52.789   6.702 -32.808  1.00  0.00     0.233 C 
ATOM     14  H42 UNL     1      54.247   5.289 -32.857  1.00  0.00     0.277 HD
ATOM     15  H41 UNL     1      53.240   5.071 -31.686  1.00  0.00     0.277 HD
HETATM   16  C21 UNL     1      52.061   7.597 -31.826  1.00  0.00     0.038 C 
ENDBRANCH   8   9
BRANCH   5  17
HETATM   17  C4  UNL     1      51.454   9.842 -26.445  1.00  0.00     0.056 A 
HETATM   18  C5  UNL     1      50.806   9.524 -25.275  1.00  0.00     0.034 A 
HETATM   19  C6  UNL     1      51.001  10.245 -24.135  1.00  0.00     0.039 A 
HETATM   20  C7  UNL     1      51.866  11.344 -24.075  1.00  0.00     0.069 A 
HETATM   21  C14 UNL     1      52.510  11.655 -25.251  1.00  0.00     0.039 A 
HETATM   22  C15 UNL     1      52.309  10.924 -26.402  1.00  0.00     0.034 A 
BRANCH  20  23
HETATM   23  O1  UNL     1      52.003  12.014 -22.884  1.00  0.00    -0.346 OA
BRANCH  23  24
HETATM   24  C8  UNL     1      51.934  13.388 -22.749  1.00  0.00     0.129 C 
HETATM   25  C9  UNL     1      52.237  13.768 -21.309  1.00  0.00     0.038 C 
HETATM   26  C10 UNL     1      51.300  13.011 -20.404  1.00  0.00     0.081 C 
HETATM   27  C11 UNL     1      49.892  13.466 -20.671  1.00  0.00     0.243 C 
HETATM   28  F1  UNL     1      49.449  14.135 -19.537  1.00  0.00    -0.206 F 
HETATM   29  F2  UNL     1      49.112  12.362 -20.957  1.00  0.00    -0.206 F 
HETATM   30  C12 UNL     1      49.810  14.405 -21.853  1.00  0.00     0.081 C 
HETATM   31  C13 UNL     1      50.496  13.802 -23.036  1.00  0.00     0.038 C 
ENDBRANCH  23  24
ENDBRANCH  20  23
ENDBRANCH   5  17
TORSDOF 4
ENDMDL
