MODEL 1
REMARK VINA RESULT: -9.609000526      0.000      0.000
REMARK  5 active torsions:
REMARK  status: ('A' for Active; 'I' for Inactive)
REMARK    1  A    between atoms: C5_7  and  C6_8 
REMARK    2  A    between atoms: C6_8  and  C7_9 
REMARK    3  A    between atoms: C7_9  and  N1_10 
REMARK    4  A    between atoms: C10_15  and  C11_16 
REMARK    5  A    between atoms: C20_28  and  O1_30 
ROOT
HETATM    1  C1  UNL     1      46.028  15.441 -26.969  1.00  0.00     0.016 C 
HETATM    2  C2  UNL     1      46.478  16.286 -26.233  1.00  0.00    -0.067 C 
HETATM    3  C3  UNL     1      47.027  17.308 -25.315  1.00  0.00     0.230 C 
HETATM    4  F1  UNL     1      46.161  18.384 -25.395  1.00  0.00    -0.222 F 
HETATM    5  C4  UNL     1      47.036  16.800 -23.927  1.00  0.00     0.233 C 
HETATM    6  F2  UNL     1      46.371  17.698 -23.078  1.00  0.00    -0.244 F 
HETATM    7  C5  UNL     1      48.357  16.481 -23.344  1.00  0.00     0.048 C 
HETATM    8  C18 UNL     1      49.479  16.338 -24.266  1.00  0.00    -0.020 C 
HETATM    9  C19 UNL     1      49.481  16.930 -25.424  1.00  0.00     0.011 C 
HETATM   10  C20 UNL     1      48.351  17.765 -25.842  1.00  0.00     0.122 C 
HETATM   11  C21 UNL     1      48.676  19.198 -25.401  1.00  0.00     0.055 C 
ENDROOT
BRANCH  10  12
HETATM   12  O1  UNL     1      48.280  17.803 -27.232  1.00  0.00    -0.382 OA
ATOM     13  H1  UNL     1      48.082  18.693 -27.497  1.00  0.00     0.211 HD
ENDBRANCH  10  12
BRANCH   7  14
HETATM   14  C6  UNL     1      48.313  15.218 -22.470  1.00  0.00     0.032 C 
BRANCH  14  15
HETATM   15  C7  UNL     1      49.508  14.339 -22.821  1.00  0.00     0.128 C 
BRANCH  15  16
HETATM   16  N1  UNL     1      50.147  13.831 -21.628  1.00  0.00    -0.363 N 
HETATM   17  C8  UNL     1      49.409  13.602 -20.515  1.00  0.00     0.122 A 
HETATM   18  C9  UNL     1      50.014  13.121 -19.388  1.00  0.00     0.077 A 
HETATM   19  N2  UNL     1      49.606  12.790 -18.150  1.00  0.00    -0.343 N 
HETATM   20  C14 UNL     1      51.453  12.872 -19.433  1.00  0.00     0.084 A 
HETATM   21  C10 UNL     1      50.677  12.361 -17.441  1.00  0.00     0.085 A 
ATOM     22  H2  UNL     1      48.649  12.851 -17.803  1.00  0.00     0.167 HD
HETATM   23  N3  UNL     1      51.777  12.415 -18.220  1.00  0.00    -0.342 N 
ATOM     24  H3  UNL     1      52.716  12.147 -17.926  1.00  0.00     0.167 HD
HETATM   25  C15 UNL     1      52.187  13.117 -20.589  1.00  0.00     0.089 A 
HETATM   26  C16 UNL     1      53.601  12.874 -20.638  1.00  0.00     0.103 C 
HETATM   27  C17 UNL     1      51.475  13.603 -21.675  1.00  0.00     0.115 A 
HETATM   28  N4  UNL     1      54.746  12.696 -20.680  1.00  0.00    -0.191 NA
BRANCH  21  29
HETATM   29  C11 UNL     1      50.683  11.896 -16.027  1.00  0.00     0.045 C 
HETATM   30  C12 UNL     1      49.450  12.355 -15.296  1.00  0.00     0.017 C 
HETATM   31  C13 UNL     1      51.949  12.419 -15.370  1.00  0.00     0.017 C 
ENDBRANCH  21  29
ENDBRANCH  15  16
ENDBRANCH  14  15
ENDBRANCH   7  14
TORSDOF 5
ENDMDL
MODEL 2
REMARK VINA RESULT: -9.576540513      1.780      2.534
REMARK  5 active torsions:
REMARK  status: ('A' for Active; 'I' for Inactive)
REMARK    1  A    between atoms: C5_7  and  C6_8 
REMARK    2  A    between atoms: C6_8  and  C7_9 
REMARK    3  A    between atoms: C7_9  and  N1_10 
REMARK    4  A    between atoms: C10_15  and  C11_16 
REMARK    5  A    between atoms: C20_28  and  O1_30 
ROOT
HETATM    1  C1  UNL     1      52.117  17.986 -25.116  1.00  0.00     0.016 C 
HETATM    2  C2  UNL     1      51.209  17.243 -25.399  1.00  0.00    -0.067 C 
HETATM    3  C3  UNL     1      50.099  16.321 -25.727  1.00  0.00     0.230 C 
HETATM    4  F1  UNL     1      50.486  15.668 -26.883  1.00  0.00    -0.222 F 
HETATM    5  C4  UNL     1      49.922  15.325 -24.648  1.00  0.00     0.233 C 
HETATM    6  F2  UNL     1      49.957  14.026 -25.178  1.00  0.00    -0.244 F 
HETATM    7  C5  UNL     1      48.715  15.465 -23.805  1.00  0.00     0.048 C 
HETATM    8  C18 UNL     1      48.009  16.741 -23.853  1.00  0.00    -0.020 C 
HETATM    9  C19 UNL     1      48.084  17.516 -24.895  1.00  0.00     0.011 C 
HETATM   10  C20 UNL     1      48.885  17.130 -26.060  1.00  0.00     0.122 C 
HETATM   11  C21 UNL     1      47.944  16.381 -27.012  1.00  0.00     0.055 C 
ENDROOT
BRANCH  10  12
HETATM   12  O1  UNL     1      49.294  18.269 -26.751  1.00  0.00    -0.382 OA
ATOM     13  H1  UNL     1      50.061  18.623 -26.316  1.00  0.00     0.211 HD
ENDBRANCH  10  12
BRANCH   7  14
HETATM   14  C6  UNL     1      49.002  15.150 -22.329  1.00  0.00     0.032 C 
BRANCH  14  15
HETATM   15  C7  UNL     1      49.094  13.638 -22.161  1.00  0.00     0.128 C 
BRANCH  15  16
HETATM   16  N1  UNL     1      49.893  13.292 -21.007  1.00  0.00    -0.363 N 
HETATM   17  C8  UNL     1      49.293  13.091 -19.809  1.00  0.00     0.122 A 
HETATM   18  C9  UNL     1      50.050  12.763 -18.720  1.00  0.00     0.077 A 
HETATM   19  N2  UNL     1      49.799  12.501 -17.424  1.00  0.00    -0.343 N 
HETATM   20  C14 UNL     1      51.495  12.643 -18.896  1.00  0.00     0.084 A 
HETATM   21  C10 UNL     1      50.971  12.232 -16.802  1.00  0.00     0.085 A 
ATOM     22  H2  UNL     1      48.880  12.504 -16.984  1.00  0.00     0.167 HD
HETATM   23  N3  UNL     1      51.980  12.320 -17.693  1.00  0.00    -0.342 N 
ATOM     24  H3  UNL     1      52.965  12.164 -17.481  1.00  0.00     0.167 HD
HETATM   25  C15 UNL     1      52.085  12.856 -20.138  1.00  0.00     0.089 A 
HETATM   26  C16 UNL     1      53.505  12.738 -20.317  1.00  0.00     0.103 C 
HETATM   27  C17 UNL     1      51.226  13.183 -21.176  1.00  0.00     0.115 A 
HETATM   28  N4  UNL     1      54.652  12.662 -20.466  1.00  0.00    -0.191 NA
BRANCH  21  29
HETATM   29  C11 UNL     1      51.161  11.890 -15.365  1.00  0.00     0.045 C 
HETATM   30  C12 UNL     1      49.872  12.019 -14.598  1.00  0.00     0.017 C 
HETATM   31  C13 UNL     1      52.238  12.805 -14.807  1.00  0.00     0.017 C 
ENDBRANCH  21  29
ENDBRANCH  15  16
ENDBRANCH  14  15
ENDBRANCH   7  14
TORSDOF 5
ENDMDL
MODEL 3
REMARK VINA RESULT: -9.387661387      1.940      2.064
REMARK  5 active torsions:
REMARK  status: ('A' for Active; 'I' for Inactive)
REMARK    1  A    between atoms: C5_7  and  C6_8 
REMARK    2  A    between atoms: C6_8  and  C7_9 
REMARK    3  A    between atoms: C7_9  and  N1_10 
REMARK    4  A    between atoms: C10_15  and  C11_16 
REMARK    5  A    between atoms: C20_28  and  O1_30 
ROOT
HETATM    1  C1  UNL     1      45.755  15.592 -26.898  1.00  0.00     0.016 C 
HETATM    2  C2  UNL     1      46.320  16.365 -26.163  1.00  0.00    -0.067 C 
HETATM    3  C3  UNL     1      47.008  17.300 -25.245  1.00  0.00     0.230 C 
HETATM    4  F1  UNL     1      46.348  18.508 -25.381  1.00  0.00    -0.222 F 
HETATM    5  C4  UNL     1      46.878  16.836 -23.847  1.00  0.00     0.233 C 
HETATM    6  F2  UNL     1      46.353  17.859 -23.044  1.00  0.00    -0.244 F 
HETATM    7  C5  UNL     1      48.102  16.306 -23.206  1.00  0.00     0.048 C 
HETATM    8  C18 UNL     1      49.213  15.944 -24.080  1.00  0.00    -0.020 C 
HETATM    9  C19 UNL     1      49.360  16.495 -25.249  1.00  0.00     0.011 C 
HETATM   10  C20 UNL     1      48.409  17.503 -25.728  1.00  0.00     0.122 C 
HETATM   11  C21 UNL     1      48.966  18.869 -25.304  1.00  0.00     0.055 C 
ENDROOT
BRANCH  10  12
HETATM   12  O1  UNL     1      48.395  17.516 -27.121  1.00  0.00    -0.382 OA
ATOM     13  H1  UNL     1      47.496  17.415 -27.412  1.00  0.00     0.211 HD
ENDBRANCH  10  12
BRANCH   7  14
HETATM   14  C6  UNL     1      47.805  15.095 -22.309  1.00  0.00     0.032 C 
BRANCH  14  15
HETATM   15  C7  UNL     1      49.052  14.221 -22.241  1.00  0.00     0.128 C 
BRANCH  15  16
HETATM   16  N1  UNL     1      49.094  13.471 -21.005  1.00  0.00    -0.363 N 
HETATM   17  C8  UNL     1      48.801  14.087 -19.834  1.00  0.00     0.122 A 
HETATM   18  C9  UNL     1      48.840  13.377 -18.668  1.00  0.00     0.077 A 
HETATM   19  N2  UNL     1      48.616  13.655 -17.371  1.00  0.00    -0.343 N 
HETATM   20  C14 UNL     1      49.204  11.964 -18.734  1.00  0.00     0.084 A 
HETATM   21  C10 UNL     1      48.813  12.529 -16.646  1.00  0.00     0.085 A 
ATOM     22  H2  UNL     1      48.343  14.563 -16.996  1.00  0.00     0.167 HD
HETATM   23  N3  UNL     1      49.165  11.522 -17.473  1.00  0.00    -0.342 N 
ATOM     24  H3  UNL     1      49.370  10.567 -17.180  1.00  0.00     0.167 HD
HETATM   25  C15 UNL     1      49.501  11.356 -19.950  1.00  0.00     0.089 A 
HETATM   26  C16 UNL     1      49.858   9.968 -20.020  1.00  0.00     0.103 C 
HETATM   27  C17 UNL     1      49.430  12.167 -21.072  1.00  0.00     0.115 A 
HETATM   28  N4  UNL     1      50.163   8.851 -20.083  1.00  0.00    -0.191 NA
BRANCH  21  29
HETATM   29  C11 UNL     1      48.675  12.380 -15.171  1.00  0.00     0.045 C 
HETATM   30  C12 UNL     1      49.071  13.644 -14.456  1.00  0.00     0.017 C 
HETATM   31  C13 UNL     1      49.532  11.202 -14.739  1.00  0.00     0.017 C 
ENDBRANCH  21  29
ENDBRANCH  15  16
ENDBRANCH  14  15
ENDBRANCH   7  14
TORSDOF 5
ENDMDL
MODEL 4
REMARK VINA RESULT: -9.354533594      4.349      8.670
REMARK  5 active torsions:
REMARK  status: ('A' for Active; 'I' for Inactive)
REMARK    1  A    between atoms: C5_7  and  C6_8 
REMARK    2  A    between atoms: C6_8  and  C7_9 
REMARK    3  A    between atoms: C7_9  and  N1_10 
REMARK    4  A    between atoms: C10_15  and  C11_16 
REMARK    5  A    between atoms: C20_28  and  O1_30 
ROOT
HETATM    1  C1  UNL     1      50.852  12.456 -20.047  1.00  0.00     0.016 C 
HETATM    2  C2  UNL     1      49.989  11.709 -20.441  1.00  0.00    -0.067 C 
HETATM    3  C3  UNL     1      48.932  10.803 -20.943  1.00  0.00     0.230 C 
HETATM    4  F1  UNL     1      47.829  11.037 -20.142  1.00  0.00    -0.222 F 
HETATM    5  C4  UNL     1      48.590  11.138 -22.343  1.00  0.00     0.233 C 
HETATM    6  F2  UNL     1      47.209  11.348 -22.467  1.00  0.00    -0.244 F 
HETATM    7  C5  UNL     1      49.024  10.179 -23.382  1.00  0.00     0.048 C 
HETATM    8  C18 UNL     1      50.040   9.201 -23.008  1.00  0.00    -0.020 C 
HETATM    9  C19 UNL     1      50.201   8.832 -21.771  1.00  0.00     0.011 C 
HETATM   10  C20 UNL     1      49.360   9.389 -20.707  1.00  0.00     0.122 C 
HETATM   11  C21 UNL     1      48.158   8.447 -20.558  1.00  0.00     0.055 C 
ENDROOT
BRANCH  10  12
HETATM   12  O1  UNL     1      50.038   9.334 -19.491  1.00  0.00    -0.382 OA
ATOM     13  H1  UNL     1      49.667   8.629 -18.974  1.00  0.00     0.211 HD
ENDBRANCH  10  12
BRANCH   7  14
HETATM   14  C6  UNL     1      49.508  10.886 -24.656  1.00  0.00     0.032 C 
BRANCH  14  15
HETATM   15  C7  UNL     1      50.369  12.078 -24.255  1.00  0.00     0.128 C 
BRANCH  15  16
HETATM   16  N1  UNL     1      49.816  13.313 -24.766  1.00  0.00    -0.363 N 
HETATM   17  C8  UNL     1      50.415  14.492 -24.469  1.00  0.00     0.122 A 
HETATM   18  C9  UNL     1      49.892  15.657 -24.953  1.00  0.00     0.077 A 
HETATM   19  N2  UNL     1      50.214  16.961 -24.863  1.00  0.00    -0.343 N 
HETATM   20  C14 UNL     1      48.690  15.582 -25.780  1.00  0.00     0.084 A 
HETATM   21  C10 UNL     1      49.308  17.680 -25.566  1.00  0.00     0.085 A 
ATOM     22  H2  UNL     1      51.008  17.343 -24.350  1.00  0.00     0.167 HD
HETATM   23  N3  UNL     1      48.401  16.843 -26.111  1.00  0.00    -0.342 N 
ATOM     24  H3  UNL     1      47.611  17.131 -26.689  1.00  0.00     0.167 HD
HETATM   25  C15 UNL     1      48.095  14.357 -26.068  1.00  0.00     0.089 A 
HETATM   26  C16 UNL     1      46.915  14.278 -26.882  1.00  0.00     0.103 C 
HETATM   27  C17 UNL     1      48.707  13.237 -25.528  1.00  0.00     0.115 A 
HETATM   28  N4  UNL     1      45.951  14.206 -27.523  1.00  0.00    -0.191 NA
BRANCH  21  29
HETATM   29  C11 UNL     1      49.281  19.159 -25.737  1.00  0.00     0.045 C 
HETATM   30  C12 UNL     1      48.112  19.771 -25.012  1.00  0.00     0.017 C 
HETATM   31  C13 UNL     1      49.232  19.454 -27.227  1.00  0.00     0.017 C 
ENDBRANCH  21  29
ENDBRANCH  15  16
ENDBRANCH  14  15
ENDBRANCH   7  14
TORSDOF 5
ENDMDL
MODEL 5
REMARK VINA RESULT: -9.286152805      3.250      5.294
REMARK  5 active torsions:
REMARK  status: ('A' for Active; 'I' for Inactive)
REMARK    1  A    between atoms: C5_7  and  C6_8 
REMARK    2  A    between atoms: C6_8  and  C7_9 
REMARK    3  A    between atoms: C7_9  and  N1_10 
REMARK    4  A    between atoms: C10_15  and  C11_16 
REMARK    5  A    between atoms: C20_28  and  O1_30 
ROOT
HETATM    1  C1  UNL     1      46.075  15.241 -26.872  1.00  0.00     0.016 C 
HETATM    2  C2  UNL     1      46.465  16.148 -26.177  1.00  0.00    -0.067 C 
HETATM    3  C3  UNL     1      46.940  17.248 -25.309  1.00  0.00     0.230 C 
HETATM    4  F1  UNL     1      46.007  18.261 -25.445  1.00  0.00    -0.222 F 
HETATM    5  C4  UNL     1      46.972  16.811 -23.897  1.00  0.00     0.233 C 
HETATM    6  F2  UNL     1      46.244  17.705 -23.096  1.00  0.00    -0.244 F 
HETATM    7  C5  UNL     1      48.307  16.607 -23.293  1.00  0.00     0.048 C 
HETATM    8  C18 UNL     1      49.442  16.491 -24.202  1.00  0.00    -0.020 C 
HETATM    9  C19 UNL     1      49.415  17.025 -25.389  1.00  0.00     0.011 C 
HETATM   10  C20 UNL     1      48.235  17.763 -25.852  1.00  0.00     0.122 C 
HETATM   11  C21 UNL     1      48.464  19.234 -25.482  1.00  0.00     0.055 C 
ENDROOT
BRANCH  10  12
HETATM   12  O1  UNL     1      48.172  17.727 -27.243  1.00  0.00    -0.382 OA
ATOM     13  H1  UNL     1      47.803  16.892 -27.505  1.00  0.00     0.211 HD
ENDBRANCH  10  12
BRANCH   7  14
HETATM   14  C6  UNL     1      48.338  15.389 -22.358  1.00  0.00     0.032 C 
BRANCH  14  15
HETATM   15  C7  UNL     1      47.779  14.184 -23.106  1.00  0.00     0.128 C 
BRANCH  15  16
HETATM   16  N1  UNL     1      48.844  13.341 -23.602  1.00  0.00    -0.363 N 
HETATM   17  C8  UNL     1      48.623  12.535 -24.668  1.00  0.00     0.122 A 
HETATM   18  C9  UNL     1      49.630  11.739 -25.135  1.00  0.00     0.077 A 
HETATM   19  N2  UNL     1      49.761  10.848 -26.135  1.00  0.00    -0.343 N 
HETATM   20  C14 UNL     1      50.922  11.791 -24.453  1.00  0.00     0.084 A 
HETATM   21  C10 UNL     1      51.023  10.357 -26.115  1.00  0.00     0.085 A 
ATOM     22  H2  UNL     1      49.032  10.587 -26.797  1.00  0.00     0.167 HD
HETATM   23  N3  UNL     1      51.708  10.929 -25.104  1.00  0.00    -0.342 N 
ATOM     24  H3  UNL     1      52.682  10.733 -24.871  1.00  0.00     0.167 HD
HETATM   25  C15 UNL     1      51.120  12.628 -23.359  1.00  0.00     0.089 A 
HETATM   26  C16 UNL     1      52.387  12.683 -22.686  1.00  0.00     0.103 C 
HETATM   27  C17 UNL     1      50.033  13.393 -22.968  1.00  0.00     0.115 A 
HETATM   28  N4  UNL     1      53.402  12.721 -22.127  1.00  0.00    -0.191 NA
BRANCH  21  29
HETATM   29  C11 UNL     1      51.602   9.347 -27.043  1.00  0.00     0.045 C 
HETATM   30  C12 UNL     1      52.648   9.961 -27.935  1.00  0.00     0.017 C 
HETATM   31  C13 UNL     1      50.462   8.748 -27.850  1.00  0.00     0.017 C 
ENDBRANCH  21  29
ENDBRANCH  15  16
ENDBRANCH  14  15
ENDBRANCH   7  14
TORSDOF 5
ENDMDL
