MODEL 1
REMARK VINA RESULT: -7.823905048      0.000      0.000
REMARK  9 active torsions:
REMARK  status: ('A' for Active; 'I' for Inactive)
REMARK    1  A    between atoms: C2_2  and  C4_4 
REMARK    2  A    between atoms: C2_2  and  C5_8 
REMARK    3  A    between atoms: C4_4  and  N1_5 
REMARK    4  A    between atoms: C12_15  and  O3_16 
REMARK    5  A    between atoms: O3_16  and  C13_17 
REMARK    6  A    between atoms: C13_17  and  C14_18 
REMARK    7  A    between atoms: C14_18  and  C15_19 
REMARK    8  A    between atoms: C15_19  and  C16_20 
REMARK    9  A    between atoms: C16_20  and  O4_21 
ROOT
HETATM    1  C5  UNL     1       4.982  10.952  15.601  1.00  0.00    -0.005 C 
HETATM    2  C6  UNL     1       4.643  11.743  16.851  1.00  0.00     0.006 C 
HETATM    3  C7  UNL     1       4.111  10.794  17.913  1.00  0.00     0.014 C 
HETATM    4  C8  UNL     1       5.118   9.695  18.190  1.00  0.00    -0.017 C 
HETATM    5  C9  UNL     1       6.405  10.426  18.616  1.00  0.00     0.020 C 
HETATM    6  C10 UNL     1       4.650   8.922  19.342  1.00  0.00    -0.066 C 
HETATM    7  C11 UNL     1       4.008   7.750  19.221  1.00  0.00    -0.043 C 
HETATM    8  C12 UNL     1       3.778   7.251  17.854  1.00  0.00     0.151 C 
HETATM    9  C17 UNL     1       5.034   7.468  17.046  1.00  0.00     0.042 C 
HETATM   10  C18 UNL     1       5.374   8.929  16.940  1.00  0.00     0.001 C 
HETATM   11  C19 UNL     1       4.617   9.524  15.771  1.00  0.00     0.011 C 
HETATM   12  C20 UNL     1       3.577   7.026  20.406  1.00  0.00     0.026 C 
HETATM   13  C21 UNL     1       3.633   5.550  20.400  1.00  0.00     0.010 C 
HETATM   14  C22 UNL     1       3.769   5.173  21.883  1.00  0.00     0.010 C 
HETATM   15  C23 UNL     1       3.971   6.458  22.629  1.00  0.00    -0.040 C 
HETATM   16  C24 UNL     1       2.705   6.998  23.243  1.00  0.00     0.015 C 
HETATM   17  C25 UNL     1       4.951   6.238  23.784  1.00  0.00     0.015 C 
HETATM   18  C26 UNL     1       4.541   7.337  21.566  1.00  0.00    -0.029 C 
HETATM   19  C27 UNL     1       5.932   6.899  21.282  1.00  0.00     0.016 C 
HETATM   20  C28 UNL     1       4.390   8.803  21.831  1.00  0.00     0.015 C 
HETATM   21  C29 UNL     1       4.933   9.554  20.677  1.00  0.00     0.036 C 
ENDROOT
BRANCH   1  22
HETATM   22  C2  UNL     1       4.476  11.624  14.367  1.00  0.00    -0.022 C 
HETATM   23  C1  UNL     1       5.545  12.553  13.854  1.00  0.00     0.017 C 
HETATM   24  C3  UNL     1       4.188  10.510  13.359  1.00  0.00     0.017 C 
BRANCH  22  25
HETATM   25  C4  UNL     1       3.248  12.422  14.640  1.00  0.00     0.210 C 
BRANCH  25  26
HETATM   26  N1  UNL     1       2.032  11.670  14.544  1.00  0.00    -0.155 N 
HETATM   27  O1  UNL     1       1.414  11.648  13.467  1.00  0.00    -0.537 OA
HETATM   28  O2  UNL     1       1.485  10.954  15.583  1.00  0.00    -0.537 OA
ENDBRANCH  25  26
ENDBRANCH  22  25
ENDBRANCH   1  22
BRANCH   8  29
HETATM   29  O3  UNL     1       3.322   5.982  17.816  1.00  0.00    -0.381 OA
BRANCH  29  30
HETATM   30  C13 UNL     1       2.187   5.781  17.044  1.00  0.00     0.168 C 
BRANCH  30  31
HETATM   31  C14 UNL     1       0.983   5.942  17.947  1.00  0.00     0.028 C 
BRANCH  31  32
HETATM   32  C15 UNL     1      -0.123   6.662  17.209  1.00  0.00     0.028 C 
BRANCH  32  33
HETATM   33  C16 UNL     1       0.100   8.142  17.228  1.00  0.00     0.164 C 
BRANCH  33  34
HETATM   34  O4  UNL     1      -0.852   8.829  16.496  1.00  0.00    -0.401 OA
ATOM     35  H4  UNL     1      -0.507   9.626  16.111  1.00  0.00     0.209 HD
ENDBRANCH  33  34
ENDBRANCH  32  33
ENDBRANCH  31  32
ENDBRANCH  30  31
ENDBRANCH  29  30
ENDBRANCH   8  29
TORSDOF 9
ENDMDL
MODEL 2
REMARK VINA RESULT: -7.805065606      1.530      1.749
REMARK  9 active torsions:
REMARK  status: ('A' for Active; 'I' for Inactive)
REMARK    1  A    between atoms: C2_2  and  C4_4 
REMARK    2  A    between atoms: C2_2  and  C5_8 
REMARK    3  A    between atoms: C4_4  and  N1_5 
REMARK    4  A    between atoms: C12_15  and  O3_16 
REMARK    5  A    between atoms: O3_16  and  C13_17 
REMARK    6  A    between atoms: C13_17  and  C14_18 
REMARK    7  A    between atoms: C14_18  and  C15_19 
REMARK    8  A    between atoms: C15_19  and  C16_20 
REMARK    9  A    between atoms: C16_20  and  O4_21 
ROOT
HETATM    1  C5  UNL     1       3.996  11.367  15.689  1.00  0.00    -0.005 C 
HETATM    2  C6  UNL     1       3.866  12.068  17.030  1.00  0.00     0.006 C 
HETATM    3  C7  UNL     1       3.513  11.043  18.096  1.00  0.00     0.014 C 
HETATM    4  C8  UNL     1       4.551   9.938  18.129  1.00  0.00    -0.017 C 
HETATM    5  C9  UNL     1       5.890  10.651  18.390  1.00  0.00     0.020 C 
HETATM    6  C10 UNL     1       4.275   9.083  19.286  1.00  0.00    -0.066 C 
HETATM    7  C11 UNL     1       3.620   7.916  19.191  1.00  0.00    -0.043 C 
HETATM    8  C12 UNL     1       3.170   7.509  17.848  1.00  0.00     0.151 C 
HETATM    9  C17 UNL     1       4.278   7.793  16.864  1.00  0.00     0.042 C 
HETATM   10  C18 UNL     1       4.598   9.261  16.805  1.00  0.00     0.001 C 
HETATM   11  C19 UNL     1       3.662   9.928  15.818  1.00  0.00     0.011 C 
HETATM   12  C20 UNL     1       3.388   7.109  20.377  1.00  0.00     0.026 C 
HETATM   13  C21 UNL     1       3.440   5.637  20.260  1.00  0.00     0.010 C 
HETATM   14  C22 UNL     1       3.816   5.161  21.672  1.00  0.00     0.010 C 
HETATM   15  C23 UNL     1       4.138   6.394  22.462  1.00  0.00    -0.040 C 
HETATM   16  C24 UNL     1       2.989   6.879  23.310  1.00  0.00     0.015 C 
HETATM   17  C25 UNL     1       5.293   6.106  23.424  1.00  0.00     0.015 C 
HETATM   18  C26 UNL     1       4.528   7.349  21.384  1.00  0.00    -0.029 C 
HETATM   19  C27 UNL     1       5.854   6.946  20.847  1.00  0.00     0.016 C 
HETATM   20  C28 UNL     1       4.424   8.793  21.770  1.00  0.00     0.015 C 
HETATM   21  C29 UNL     1       4.772   9.625  20.598  1.00  0.00     0.036 C 
ENDROOT
BRANCH   1  22
HETATM   22  C2  UNL     1       3.296  12.116  14.604  1.00  0.00    -0.022 C 
HETATM   23  C1  UNL     1       2.466  11.142  13.808  1.00  0.00     0.017 C 
HETATM   24  C3  UNL     1       2.409  13.152  15.299  1.00  0.00     0.017 C 
BRANCH  22  25
HETATM   25  C4  UNL     1       4.260  12.778  13.681  1.00  0.00     0.210 C 
BRANCH  25  26
HETATM   26  N1  UNL     1       5.585  12.234  13.737  1.00  0.00    -0.155 N 
HETATM   27  O1  UNL     1       5.840  11.190  13.115  1.00  0.00    -0.537 OA
HETATM   28  O2  UNL     1       6.619  12.798  14.445  1.00  0.00    -0.537 OA
ENDBRANCH  25  26
ENDBRANCH  22  25
ENDBRANCH   1  22
BRANCH   8  29
HETATM   29  O3  UNL     1       2.713   6.241  17.797  1.00  0.00    -0.381 OA
BRANCH  29  30
HETATM   30  C13 UNL     1       1.509   6.070  17.130  1.00  0.00     0.168 C 
BRANCH  30  31
HETATM   31  C14 UNL     1       0.415   5.977  18.172  1.00  0.00     0.028 C 
BRANCH  31  32
HETATM   32  C15 UNL     1      -0.419   7.238  18.160  1.00  0.00     0.028 C 
BRANCH  32  33
HETATM   33  C16 UNL     1      -0.147   8.044  16.928  1.00  0.00     0.164 C 
BRANCH  33  34
HETATM   34  O4  UNL     1      -1.275   8.697  16.464  1.00  0.00    -0.401 OA
ATOM     35  H4  UNL     1      -1.109   9.183  15.665  1.00  0.00     0.209 HD
ENDBRANCH  33  34
ENDBRANCH  32  33
ENDBRANCH  31  32
ENDBRANCH  30  31
ENDBRANCH  29  30
ENDBRANCH   8  29
TORSDOF 9
ENDMDL
MODEL 3
REMARK VINA RESULT: -7.659515562      0.846      1.571
REMARK  9 active torsions:
REMARK  status: ('A' for Active; 'I' for Inactive)
REMARK    1  A    between atoms: C2_2  and  C4_4 
REMARK    2  A    between atoms: C2_2  and  C5_8 
REMARK    3  A    between atoms: C4_4  and  N1_5 
REMARK    4  A    between atoms: C12_15  and  O3_16 
REMARK    5  A    between atoms: O3_16  and  C13_17 
REMARK    6  A    between atoms: C13_17  and  C14_18 
REMARK    7  A    between atoms: C14_18  and  C15_19 
REMARK    8  A    between atoms: C15_19  and  C16_20 
REMARK    9  A    between atoms: C16_20  and  O4_21 
ROOT
HETATM    1  C5  UNL     1       5.029  10.974  15.602  1.00  0.00    -0.005 C 
HETATM    2  C6  UNL     1       4.699  11.771  16.851  1.00  0.00     0.006 C 
HETATM    3  C7  UNL     1       4.165  10.828  17.917  1.00  0.00     0.014 C 
HETATM    4  C8  UNL     1       5.166   9.724  18.194  1.00  0.00    -0.017 C 
HETATM    5  C9  UNL     1       6.458  10.448  18.614  1.00  0.00     0.020 C 
HETATM    6  C10 UNL     1       4.696   8.956  19.349  1.00  0.00    -0.066 C 
HETATM    7  C11 UNL     1       4.047   7.788  19.233  1.00  0.00    -0.043 C 
HETATM    8  C12 UNL     1       3.809   7.287  17.868  1.00  0.00     0.151 C 
HETATM    9  C17 UNL     1       5.064   7.494  17.056  1.00  0.00     0.042 C 
HETATM   10  C18 UNL     1       5.413   8.952  16.945  1.00  0.00     0.001 C 
HETATM   11  C19 UNL     1       4.656   9.550  15.777  1.00  0.00     0.011 C 
HETATM   12  C20 UNL     1       3.616   7.070  20.422  1.00  0.00     0.026 C 
HETATM   13  C21 UNL     1       3.663   5.593  20.419  1.00  0.00     0.010 C 
HETATM   14  C22 UNL     1       3.801   5.219  21.903  1.00  0.00     0.010 C 
HETATM   15  C23 UNL     1       4.013   6.505  22.645  1.00  0.00    -0.040 C 
HETATM   16  C24 UNL     1       2.752   7.054  23.262  1.00  0.00     0.015 C 
HETATM   17  C25 UNL     1       4.996   6.282  23.797  1.00  0.00     0.015 C 
HETATM   18  C26 UNL     1       4.585   7.377  21.578  1.00  0.00    -0.029 C 
HETATM   19  C27 UNL     1       5.973   6.931  21.290  1.00  0.00     0.016 C 
HETATM   20  C28 UNL     1       4.444   8.846  21.840  1.00  0.00     0.015 C 
HETATM   21  C29 UNL     1       4.987   9.590  20.682  1.00  0.00     0.036 C 
ENDROOT
BRANCH   1  22
HETATM   22  C2  UNL     1       4.523  11.646  14.368  1.00  0.00    -0.022 C 
HETATM   23  C1  UNL     1       5.603  12.554  13.839  1.00  0.00     0.017 C 
HETATM   24  C3  UNL     1       4.207  10.530  13.370  1.00  0.00     0.017 C 
BRANCH  22  25
HETATM   25  C4  UNL     1       3.311  12.467  14.646  1.00  0.00     0.210 C 
BRANCH  25  26
HETATM   26  N1  UNL     1       2.084  11.730  14.592  1.00  0.00    -0.155 N 
HETATM   27  O1  UNL     1       1.465  11.658  13.517  1.00  0.00    -0.537 OA
HETATM   28  O2  UNL     1       1.528  11.080  15.668  1.00  0.00    -0.537 OA
ENDBRANCH  25  26
ENDBRANCH  22  25
ENDBRANCH   1  22
BRANCH   8  29
HETATM   29  O3  UNL     1       3.346   6.020  17.835  1.00  0.00    -0.381 OA
BRANCH  29  30
HETATM   30  C13 UNL     1       2.180   5.833  17.107  1.00  0.00     0.168 C 
BRANCH  30  31
HETATM   31  C14 UNL     1       1.028   5.785  18.088  1.00  0.00     0.028 C 
BRANCH  31  32
HETATM   32  C15 UNL     1       0.458   4.387  18.147  1.00  0.00     0.028 C 
BRANCH  32  33
HETATM   33  C16 UNL     1       1.220   3.543  19.121  1.00  0.00     0.164 C 
BRANCH  33  34
HETATM   34  O4  UNL     1       1.939   2.538  18.498  1.00  0.00    -0.401 OA
ATOM     35  H4  UNL     1       2.404   1.989  19.118  1.00  0.00     0.209 HD
ENDBRANCH  33  34
ENDBRANCH  32  33
ENDBRANCH  31  32
ENDBRANCH  30  31
ENDBRANCH  29  30
ENDBRANCH   8  29
TORSDOF 9
ENDMDL
MODEL 4
REMARK VINA RESULT: -7.548288202      1.767      2.348
REMARK  9 active torsions:
REMARK  status: ('A' for Active; 'I' for Inactive)
REMARK    1  A    between atoms: C2_2  and  C4_4 
REMARK    2  A    between atoms: C2_2  and  C5_8 
REMARK    3  A    between atoms: C4_4  and  N1_5 
REMARK    4  A    between atoms: C12_15  and  O3_16 
REMARK    5  A    between atoms: O3_16  and  C13_17 
REMARK    6  A    between atoms: C13_17  and  C14_18 
REMARK    7  A    between atoms: C14_18  and  C15_19 
REMARK    8  A    between atoms: C15_19  and  C16_20 
REMARK    9  A    between atoms: C16_20  and  O4_21 
ROOT
HETATM    1  C5  UNL     1       3.940  11.323  15.683  1.00  0.00    -0.005 C 
HETATM    2  C6  UNL     1       3.747  12.031  17.012  1.00  0.00     0.006 C 
HETATM    3  C7  UNL     1       3.431  11.000  18.085  1.00  0.00     0.014 C 
HETATM    4  C8  UNL     1       4.526   9.955  18.151  1.00  0.00    -0.017 C 
HETATM    5  C9  UNL     1       5.819  10.743  18.427  1.00  0.00     0.020 C 
HETATM    6  C10 UNL     1       4.276   9.099  19.313  1.00  0.00    -0.066 C 
HETATM    7  C11 UNL     1       3.688   7.897  19.220  1.00  0.00    -0.043 C 
HETATM    8  C12 UNL     1       3.287   7.450  17.875  1.00  0.00     0.151 C 
HETATM    9  C17 UNL     1       4.396   7.783  16.907  1.00  0.00     0.042 C 
HETATM   10  C18 UNL     1       4.636   9.266  16.836  1.00  0.00     0.001 C 
HETATM   11  C19 UNL     1       3.683   9.868  15.824  1.00  0.00     0.011 C 
HETATM   12  C20 UNL     1       3.478   7.092  20.412  1.00  0.00     0.026 C 
HETATM   13  C21 UNL     1       3.613   5.624  20.315  1.00  0.00     0.010 C 
HETATM   14  C22 UNL     1       3.987   5.186  21.739  1.00  0.00     0.010 C 
HETATM   15  C23 UNL     1       4.226   6.444  22.519  1.00  0.00    -0.040 C 
HETATM   16  C24 UNL     1       3.037   6.874  23.340  1.00  0.00     0.015 C 
HETATM   17  C25 UNL     1       5.377   6.230  23.506  1.00  0.00     0.015 C 
HETATM   18  C26 UNL     1       4.584   7.406  21.436  1.00  0.00    -0.029 C 
HETATM   19  C27 UNL     1       5.940   7.070  20.929  1.00  0.00     0.016 C 
HETATM   20  C28 UNL     1       4.393   8.846  21.803  1.00  0.00     0.015 C 
HETATM   21  C29 UNL     1       4.718   9.683  20.627  1.00  0.00     0.036 C 
ENDROOT
BRANCH   1  22
HETATM   22  C2  UNL     1       3.221  12.019  14.576  1.00  0.00    -0.022 C 
HETATM   23  C1  UNL     1       2.406  11.002  13.819  1.00  0.00     0.017 C 
HETATM   24  C3  UNL     1       2.318  13.061  15.239  1.00  0.00     0.017 C 
BRANCH  22  25
HETATM   25  C4  UNL     1       4.168  12.667  13.626  1.00  0.00     0.210 C 
BRANCH  25  26
HETATM   26  N1  UNL     1       5.507  12.162  13.704  1.00  0.00    -0.155 N 
HETATM   27  O1  UNL     1       5.801  11.122  13.090  1.00  0.00    -0.537 OA
HETATM   28  O2  UNL     1       6.514  12.757  14.425  1.00  0.00    -0.537 OA
ENDBRANCH  25  26
ENDBRANCH  22  25
ENDBRANCH   1  22
BRANCH   8  29
HETATM   29  O3  UNL     1       2.901   6.158  17.831  1.00  0.00    -0.381 OA
BRANCH  29  30
HETATM   30  C13 UNL     1       1.703   5.918  17.175  1.00  0.00     0.168 C 
BRANCH  30  31
HETATM   31  C14 UNL     1       0.655   5.614  18.224  1.00  0.00     0.028 C 
BRANCH  31  32
HETATM   32  C15 UNL     1       0.323   4.140  18.212  1.00  0.00     0.028 C 
BRANCH  32  33
HETATM   33  C16 UNL     1       1.190   3.391  19.176  1.00  0.00     0.164 C 
BRANCH  33  34
HETATM   34  O4  UNL     1       2.081   2.547  18.539  1.00  0.00    -0.401 OA
ATOM     35  H4  UNL     1       2.570   2.009  19.150  1.00  0.00     0.209 HD
ENDBRANCH  33  34
ENDBRANCH  32  33
ENDBRANCH  31  32
ENDBRANCH  30  31
ENDBRANCH  29  30
ENDBRANCH   8  29
TORSDOF 9
ENDMDL
MODEL 5
REMARK VINA RESULT: -7.060436476      1.097      1.401
REMARK  9 active torsions:
REMARK  status: ('A' for Active; 'I' for Inactive)
REMARK    1  A    between atoms: C2_2  and  C4_4 
REMARK    2  A    between atoms: C2_2  and  C5_8 
REMARK    3  A    between atoms: C4_4  and  N1_5 
REMARK    4  A    between atoms: C12_15  and  O3_16 
REMARK    5  A    between atoms: O3_16  and  C13_17 
REMARK    6  A    between atoms: C13_17  and  C14_18 
REMARK    7  A    between atoms: C14_18  and  C15_19 
REMARK    8  A    between atoms: C15_19  and  C16_20 
REMARK    9  A    between atoms: C16_20  and  O4_21 
ROOT
HETATM    1  C5  UNL     1       5.218  11.048  15.693  1.00  0.00    -0.005 C 
HETATM    2  C6  UNL     1       4.694  11.810  16.897  1.00  0.00     0.006 C 
HETATM    3  C7  UNL     1       4.184  10.819  17.931  1.00  0.00     0.014 C 
HETATM    4  C8  UNL     1       5.279   9.841  18.309  1.00  0.00    -0.017 C 
HETATM    5  C9  UNL     1       6.439  10.713  18.822  1.00  0.00     0.020 C 
HETATM    6  C10 UNL     1       4.805   9.032  19.434  1.00  0.00    -0.066 C 
HETATM    7  C11 UNL     1       4.307   7.795  19.285  1.00  0.00    -0.043 C 
HETATM    8  C12 UNL     1       4.244   7.260  17.914  1.00  0.00     0.151 C 
HETATM    9  C17 UNL     1       5.531   7.606  17.204  1.00  0.00     0.042 C 
HETATM   10  C18 UNL     1       5.717   9.094  17.098  1.00  0.00     0.001 C 
HETATM   11  C19 UNL     1       4.998   9.590  15.861  1.00  0.00     0.011 C 
HETATM   12  C20 UNL     1       3.863   7.041  20.446  1.00  0.00     0.026 C 
HETATM   13  C21 UNL     1       4.080   5.580  20.472  1.00  0.00     0.010 C 
HETATM   14  C22 UNL     1       4.135   5.236  21.969  1.00  0.00     0.010 C 
HETATM   15  C23 UNL     1       4.134   6.543  22.703  1.00  0.00    -0.040 C 
HETATM   16  C24 UNL     1       2.771   6.947  23.204  1.00  0.00     0.015 C 
HETATM   17  C25 UNL     1       5.035   6.444  23.937  1.00  0.00     0.015 C 
HETATM   18  C26 UNL     1       4.689   7.468  21.672  1.00  0.00    -0.029 C 
HETATM   19  C27 UNL     1       6.139   7.184  21.508  1.00  0.00     0.016 C 
HETATM   20  C28 UNL     1       4.358   8.912  21.896  1.00  0.00     0.015 C 
HETATM   21  C29 UNL     1       4.908   9.705  20.775  1.00  0.00     0.036 C 
ENDROOT
BRANCH   1  22
HETATM   22  C2  UNL     1       4.743  11.647  14.410  1.00  0.00    -0.022 C 
HETATM   23  C1  UNL     1       5.788  12.614  13.917  1.00  0.00     0.017 C 
HETATM   24  C3  UNL     1       4.567  10.483  13.431  1.00  0.00     0.017 C 
BRANCH  22  25
HETATM   25  C4  UNL     1       3.462  12.386  14.589  1.00  0.00     0.210 C 
BRANCH  25  26
HETATM   26  N1  UNL     1       2.294  11.568  14.451  1.00  0.00    -0.155 N 
HETATM   27  O1  UNL     1       1.737  11.486  13.344  1.00  0.00    -0.537 OA
HETATM   28  O2  UNL     1       1.731  10.851  15.479  1.00  0.00    -0.537 OA
ENDBRANCH  25  26
ENDBRANCH  22  25
ENDBRANCH   1  22
BRANCH   8  29
HETATM   29  O3  UNL     1       3.935   5.948  17.864  1.00  0.00    -0.381 OA
BRANCH  29  30
HETATM   30  C13 UNL     1       3.297   5.532  16.704  1.00  0.00     0.168 C 
BRANCH  30  31
HETATM   31  C14 UNL     1       2.082   6.412  16.505  1.00  0.00     0.028 C 
BRANCH  31  32
HETATM   32  C15 UNL     1       2.317   7.365  15.355  1.00  0.00     0.028 C 
BRANCH  32  33
HETATM   33  C16 UNL     1       3.215   6.749  14.328  1.00  0.00     0.164 C 
BRANCH  33  34
HETATM   34  O4  UNL     1       2.508   6.120  13.319  1.00  0.00    -0.401 OA
ATOM     35  H4  UNL     1       3.075   5.654  12.716  1.00  0.00     0.209 HD
ENDBRANCH  33  34
ENDBRANCH  32  33
ENDBRANCH  31  32
ENDBRANCH  30  31
ENDBRANCH  29  30
ENDBRANCH   8  29
TORSDOF 9
ENDMDL
