MODEL 1
REMARK VINA RESULT: -8.875155869      0.000      0.000
REMARK  10 active torsions:
REMARK  status: ('A' for Active; 'I' for Inactive)
REMARK    1  A    between atoms: C2_2  and  C3_3 
REMARK    2  A    between atoms: C3_3  and  C4_4 
REMARK    3  A    between atoms: C4_4  and  C5_5 
REMARK    4  A    between atoms: C5_5  and  C6_6 
REMARK    5  A    between atoms: C6_6  and  C7_7 
REMARK    6  A    between atoms: C7_7  and  C8_8 
REMARK    7  A    between atoms: C8_8  and  O2_10 
REMARK    8  A    between atoms: O2_10  and  C9_11 
REMARK    9  A    between atoms: C19_21  and  O3_22 
REMARK   10  A    between atoms: O3_22  and  C20_23 
ROOT
HETATM    1  C9  UNL     1       4.334   7.644  16.337  1.00  0.00     0.137 C 
HETATM    2  C10 UNL     1       4.863   7.430  14.899  1.00  0.00     0.037 C 
HETATM    3  C11 UNL     1       6.332   7.497  14.960  1.00  0.00    -0.012 C 
HETATM    4  C12 UNL     1       6.975   6.225  14.387  1.00  0.00     0.010 C 
HETATM    5  C13 UNL     1       6.646   7.634  16.456  1.00  0.00    -0.003 C 
HETATM    6  C14 UNL     1       7.927   8.328  16.543  1.00  0.00     0.006 C 
HETATM    7  C15 UNL     1       8.450   8.603  17.899  1.00  0.00     0.011 C 
HETATM    8  C16 UNL     1       7.765   9.601  18.721  1.00  0.00    -0.031 C 
HETATM    9  C17 UNL     1       7.988  10.972  18.182  1.00  0.00     0.013 C 
HETATM   10  C18 UNL     1       6.986  11.386  17.181  1.00  0.00     0.034 C 
HETATM   11  C19 UNL     1       5.684  10.657  17.061  1.00  0.00     0.141 C 
HETATM   12  C22 UNL     1       5.468   9.411  17.872  1.00  0.00    -0.002 C 
HETATM   13  C23 UNL     1       4.022   9.488  18.444  1.00  0.00     0.019 C 
HETATM   14  C24 UNL     1       5.448   8.121  17.149  1.00  0.00     0.031 C 
HETATM   15  C25 UNL     1       6.317   9.503  19.088  1.00  0.00    -0.019 C 
HETATM   16  C26 UNL     1       5.931  10.840  19.773  1.00  0.00     0.018 C 
HETATM   17  C27 UNL     1       6.652   8.612  20.147  1.00  0.00    -0.038 C 
HETATM   18  C28 UNL     1       6.715   7.140  20.164  1.00  0.00     0.015 C 
HETATM   19  C29 UNL     1       6.112   8.916  21.576  1.00  0.00     0.015 C 
HETATM   20  C30 UNL     1       8.044   9.299  20.147  1.00  0.00     0.020 C 
ENDROOT
BRANCH   1  21
HETATM   21  O2  UNL     1       3.135   8.276  16.195  1.00  0.00    -0.316 OA
BRANCH  21  22
HETATM   22  C8  UNL     1       1.890   7.739  16.465  1.00  0.00     0.259 C 
HETATM   23  O1  UNL     1       0.933   8.552  16.423  1.00  0.00    -0.265 OA
BRANCH  22  24
HETATM   24  C7  UNL     1       1.765   6.297  16.773  1.00  0.00     0.111 C 
BRANCH  24  25
HETATM   25  C6  UNL     1       1.160   5.961  18.076  1.00  0.00     0.010 C 
BRANCH  25  26
HETATM   26  C5  UNL     1       1.827   4.906  18.886  1.00  0.00     0.000 C 
BRANCH  26  27
HETATM   27  C4  UNL     1       3.285   5.278  19.203  1.00  0.00     0.000 C 
BRANCH  27  28
HETATM   28  C3  UNL     1       3.209   6.309  20.310  1.00  0.00    -0.000 C 
BRANCH  28  29
HETATM   29  C2  UNL     1       3.579   5.753  21.666  1.00  0.00    -0.005 C 
HETATM   30  C1  UNL     1       3.281   6.690  22.791  1.00  0.00     0.005 C 
ENDBRANCH  28  29
ENDBRANCH  27  28
ENDBRANCH  26  27
ENDBRANCH  25  26
ENDBRANCH  24  25
ENDBRANCH  22  24
ENDBRANCH  21  22
ENDBRANCH   1  21
BRANCH  11  31
HETATM   31  O3  UNL     1       5.476  10.537  15.669  1.00  0.00    -0.316 OA
BRANCH  31  32
HETATM   32  C20 UNL     1       5.081  11.584  14.904  1.00  0.00     0.255 C 
HETATM   33  C21 UNL     1       3.919  12.464  15.292  1.00  0.00     0.126 C 
HETATM   34  O4  UNL     1       5.650  11.895  13.822  1.00  0.00    -0.266 OA
ENDBRANCH  31  32
ENDBRANCH  11  31
TORSDOF 10
ENDMDL
MODEL 2
REMARK VINA RESULT: -8.790104273      1.718      5.278
REMARK  10 active torsions:
REMARK  status: ('A' for Active; 'I' for Inactive)
REMARK    1  A    between atoms: C2_2  and  C3_3 
REMARK    2  A    between atoms: C3_3  and  C4_4 
REMARK    3  A    between atoms: C4_4  and  C5_5 
REMARK    4  A    between atoms: C5_5  and  C6_6 
REMARK    5  A    between atoms: C6_6  and  C7_7 
REMARK    6  A    between atoms: C7_7  and  C8_8 
REMARK    7  A    between atoms: C8_8  and  O2_10 
REMARK    8  A    between atoms: O2_10  and  C9_11 
REMARK    9  A    between atoms: C19_21  and  O3_22 
REMARK   10  A    between atoms: O3_22  and  C20_23 
ROOT
HETATM    1  C9  UNL     1       5.314   9.815  18.558  1.00  0.00     0.137 C 
HETATM    2  C10 UNL     1       4.881  11.218  18.073  1.00  0.00     0.037 C 
HETATM    3  C11 UNL     1       3.493  11.105  17.596  1.00  0.00    -0.012 C 
HETATM    4  C12 UNL     1       2.569  12.095  18.322  1.00  0.00     0.010 C 
HETATM    5  C13 UNL     1       3.095   9.659  17.918  1.00  0.00    -0.003 C 
HETATM    6  C14 UNL     1       2.063   9.294  16.953  1.00  0.00     0.006 C 
HETATM    7  C15 UNL     1       1.517   7.922  17.041  1.00  0.00     0.011 C 
HETATM    8  C16 UNL     1       2.380   6.803  16.659  1.00  0.00    -0.031 C 
HETATM    9  C17 UNL     1       2.608   6.791  15.185  1.00  0.00     0.013 C 
HETATM   10  C18 UNL     1       3.774   7.589  14.760  1.00  0.00     0.034 C 
HETATM   11  C19 UNL     1       4.819   7.998  15.751  1.00  0.00     0.141 C 
HETATM   12  C22 UNL     1       4.595   7.710  17.208  1.00  0.00    -0.002 C 
HETATM   13  C23 UNL     1       5.943   7.182  17.778  1.00  0.00     0.019 C 
HETATM   14  C24 UNL     1       4.312   8.860  18.095  1.00  0.00     0.031 C 
HETATM   15  C25 UNL     1       3.699   6.529  17.309  1.00  0.00    -0.019 C 
HETATM   16  C26 UNL     1       4.386   5.407  16.489  1.00  0.00     0.018 C 
HETATM   17  C27 UNL     1       3.028   5.869  18.377  1.00  0.00    -0.038 C 
HETATM   18  C28 UNL     1       2.547   6.396  19.666  1.00  0.00     0.015 C 
HETATM   19  C29 UNL     1       3.499   4.440  18.783  1.00  0.00     0.015 C 
HETATM   20  C30 UNL     1       1.896   5.585  17.354  1.00  0.00     0.020 C 
ENDROOT
BRANCH   1  21
HETATM   21  O2  UNL     1       6.651   9.737  18.308  1.00  0.00    -0.316 OA
BRANCH  21  22
HETATM   22  C8  UNL     1       7.660  10.297  19.069  1.00  0.00     0.259 C 
HETATM   23  O1  UNL     1       8.370  11.150  18.478  1.00  0.00    -0.265 OA
BRANCH  22  24
HETATM   24  C7  UNL     1       7.836   9.877  20.476  1.00  0.00     0.111 C 
BRANCH  24  25
HETATM   25  C6  UNL     1       7.978   8.427  20.709  1.00  0.00     0.010 C 
BRANCH  25  26
HETATM   26  C5  UNL     1       6.828   7.721  21.335  1.00  0.00     0.000 C 
BRANCH  26  27
HETATM   27  C4  UNL     1       7.186   7.197  22.737  1.00  0.00     0.000 C 
BRANCH  27  28
HETATM   28  C3  UNL     1       5.863   6.967  23.435  1.00  0.00    -0.000 C 
BRANCH  28  29
HETATM   29  C2  UNL     1       4.733   6.655  22.480  1.00  0.00    -0.005 C 
HETATM   30  C1  UNL     1       3.447   6.334  23.169  1.00  0.00     0.005 C 
ENDBRANCH  28  29
ENDBRANCH  27  28
ENDBRANCH  26  27
ENDBRANCH  25  26
ENDBRANCH  24  25
ENDBRANCH  22  24
ENDBRANCH  21  22
ENDBRANCH   1  21
BRANCH  11  31
HETATM   31  O3  UNL     1       5.112   9.340  15.419  1.00  0.00    -0.316 OA
BRANCH  31  32
HETATM   32  C20 UNL     1       4.806   9.869  14.209  1.00  0.00     0.255 C 
HETATM   33  C21 UNL     1       3.492  10.560  13.946  1.00  0.00     0.126 C 
HETATM   34  O4  UNL     1       5.592   9.820  13.223  1.00  0.00    -0.266 OA
ENDBRANCH  31  32
ENDBRANCH  11  31
TORSDOF 10
ENDMDL
MODEL 3
REMARK VINA RESULT: -8.646217498      0.877      1.238
REMARK  10 active torsions:
REMARK  status: ('A' for Active; 'I' for Inactive)
REMARK    1  A    between atoms: C2_2  and  C3_3 
REMARK    2  A    between atoms: C3_3  and  C4_4 
REMARK    3  A    between atoms: C4_4  and  C5_5 
REMARK    4  A    between atoms: C5_5  and  C6_6 
REMARK    5  A    between atoms: C6_6  and  C7_7 
REMARK    6  A    between atoms: C7_7  and  C8_8 
REMARK    7  A    between atoms: C8_8  and  O2_10 
REMARK    8  A    between atoms: O2_10  and  C9_11 
REMARK    9  A    between atoms: C19_21  and  O3_22 
REMARK   10  A    between atoms: O3_22  and  C20_23 
ROOT
HETATM    1  C9  UNL     1       4.279   7.914  16.165  1.00  0.00     0.137 C 
HETATM    2  C10 UNL     1       4.855   7.673  14.750  1.00  0.00     0.037 C 
HETATM    3  C11 UNL     1       6.320   7.609  14.882  1.00  0.00    -0.012 C 
HETATM    4  C12 UNL     1       6.875   6.293  14.317  1.00  0.00     0.010 C 
HETATM    5  C13 UNL     1       6.572   7.697  16.393  1.00  0.00    -0.003 C 
HETATM    6  C14 UNL     1       7.903   8.273  16.553  1.00  0.00     0.006 C 
HETATM    7  C15 UNL     1       8.382   8.481  17.937  1.00  0.00     0.011 C 
HETATM    8  C16 UNL     1       7.749   9.524  18.744  1.00  0.00    -0.031 C 
HETATM    9  C17 UNL     1       8.118  10.878  18.241  1.00  0.00     0.013 C 
HETATM   10  C18 UNL     1       7.206  11.393  17.201  1.00  0.00     0.034 C 
HETATM   11  C19 UNL     1       5.853  10.784  17.006  1.00  0.00     0.141 C 
HETATM   12  C22 UNL     1       5.488   9.552  17.784  1.00  0.00    -0.002 C 
HETATM   13  C23 UNL     1       4.029   9.749  18.288  1.00  0.00     0.019 C 
HETATM   14  C24 UNL     1       5.390   8.279  17.037  1.00  0.00     0.031 C 
HETATM   15  C25 UNL     1       6.282   9.551  19.040  1.00  0.00    -0.019 C 
HETATM   16  C26 UNL     1       5.982  10.907  19.730  1.00  0.00     0.018 C 
HETATM   17  C27 UNL     1       6.485   8.619  20.097  1.00  0.00    -0.038 C 
HETATM   18  C28 UNL     1       6.417   7.148  20.091  1.00  0.00     0.015 C 
HETATM   19  C29 UNL     1       5.905   8.951  21.504  1.00  0.00     0.015 C 
HETATM   20  C30 UNL     1       7.931   9.180  20.176  1.00  0.00     0.020 C 
ENDROOT
BRANCH   1  21
HETATM   21  O2  UNL     1       3.148   8.652  15.979  1.00  0.00    -0.316 OA
BRANCH  21  22
HETATM   22  C8  UNL     1       1.861   8.276  16.314  1.00  0.00     0.259 C 
HETATM   23  O1  UNL     1       1.053   9.222  16.489  1.00  0.00    -0.265 OA
BRANCH  22  24
HETATM   24  C7  UNL     1       1.526   6.841  16.440  1.00  0.00     0.111 C 
BRANCH  24  25
HETATM   25  C6  UNL     1       0.265   6.526  17.140  1.00  0.00     0.010 C 
BRANCH  25  26
HETATM   26  C5  UNL     1       0.369   5.839  18.455  1.00  0.00     0.000 C 
BRANCH  26  27
HETATM   27  C4  UNL     1       0.785   4.368  18.289  1.00  0.00     0.000 C 
BRANCH  27  28
HETATM   28  C3  UNL     1       1.778   4.099  19.400  1.00  0.00    -0.000 C 
BRANCH  28  29
HETATM   29  C2  UNL     1       2.902   5.108  19.449  1.00  0.00    -0.005 C 
HETATM   30  C1  UNL     1       3.933   4.899  18.388  1.00  0.00     0.005 C 
ENDBRANCH  28  29
ENDBRANCH  27  28
ENDBRANCH  26  27
ENDBRANCH  25  26
ENDBRANCH  24  25
ENDBRANCH  22  24
ENDBRANCH  21  22
ENDBRANCH   1  21
BRANCH  11  31
HETATM   31  O3  UNL     1       5.702  10.703  15.604  1.00  0.00    -0.316 OA
BRANCH  31  32
HETATM   32  C20 UNL     1       5.141  11.700  14.878  1.00  0.00     0.255 C 
HETATM   33  C21 UNL     1       3.784  12.267  15.212  1.00  0.00     0.126 C 
HETATM   34  O4  UNL     1       5.708  12.222  13.879  1.00  0.00    -0.266 OA
ENDBRANCH  31  32
ENDBRANCH  11  31
TORSDOF 10
ENDMDL
MODEL 4
REMARK VINA RESULT: -8.625242815      2.318      5.754
REMARK  10 active torsions:
REMARK  status: ('A' for Active; 'I' for Inactive)
REMARK    1  A    between atoms: C2_2  and  C3_3 
REMARK    2  A    between atoms: C3_3  and  C4_4 
REMARK    3  A    between atoms: C4_4  and  C5_5 
REMARK    4  A    between atoms: C5_5  and  C6_6 
REMARK    5  A    between atoms: C6_6  and  C7_7 
REMARK    6  A    between atoms: C7_7  and  C8_8 
REMARK    7  A    between atoms: C8_8  and  O2_10 
REMARK    8  A    between atoms: O2_10  and  C9_11 
REMARK    9  A    between atoms: C19_21  and  O3_22 
REMARK   10  A    between atoms: O3_22  and  C20_23 
ROOT
HETATM    1  C9  UNL     1       5.224   8.095  17.614  1.00  0.00     0.137 C 
HETATM    2  C10 UNL     1       4.213   7.334  18.502  1.00  0.00     0.037 C 
HETATM    3  C11 UNL     1       2.870   7.829  18.155  1.00  0.00    -0.012 C 
HETATM    4  C12 UNL     1       1.943   6.680  17.730  1.00  0.00     0.010 C 
HETATM    5  C13 UNL     1       3.109   8.791  16.985  1.00  0.00    -0.003 C 
HETATM    6  C14 UNL     1       2.015   9.757  17.019  1.00  0.00     0.006 C 
HETATM    7  C15 UNL     1       2.024  10.818  15.989  1.00  0.00     0.011 C 
HETATM    8  C16 UNL     1       3.048  11.859  16.070  1.00  0.00    -0.031 C 
HETATM    9  C17 UNL     1       2.793  12.762  17.229  1.00  0.00     0.013 C 
HETATM   10  C18 UNL     1       3.424  12.308  18.484  1.00  0.00     0.034 C 
HETATM   11  C19 UNL     1       4.522  11.292  18.460  1.00  0.00     0.141 C 
HETATM   12  C22 UNL     1       4.878  10.633  17.157  1.00  0.00    -0.002 C 
HETATM   13  C23 UNL     1       6.432  10.585  17.083  1.00  0.00     0.019 C 
HETATM   14  C24 UNL     1       4.515   9.208  16.992  1.00  0.00     0.031 C 
HETATM   15  C25 UNL     1       4.516  11.565  16.058  1.00  0.00    -0.019 C 
HETATM   16  C26 UNL     1       5.249  12.894  16.373  1.00  0.00     0.018 C 
HETATM   17  C27 UNL     1       4.478  11.473  14.638  1.00  0.00    -0.038 C 
HETATM   18  C28 UNL     1       4.276  10.303  13.767  1.00  0.00     0.015 C 
HETATM   19  C29 UNL     1       5.508  12.301  13.811  1.00  0.00     0.015 C 
HETATM   20  C30 UNL     1       3.250  12.420  14.711  1.00  0.00     0.020 C 
ENDROOT
BRANCH   1  21
HETATM   21  O2  UNL     1       6.359   8.204  18.362  1.00  0.00    -0.316 OA
BRANCH  21  22
HETATM   22  C8  UNL     1       7.476   7.395  18.276  1.00  0.00     0.259 C 
HETATM   23  O1  UNL     1       8.059   7.165  19.365  1.00  0.00    -0.265 OA
BRANCH  22  24
HETATM   24  C7  UNL     1       7.901   6.869  16.960  1.00  0.00     0.111 C 
BRANCH  24  25
HETATM   25  C6  UNL     1       7.501   5.481  16.655  1.00  0.00     0.010 C 
BRANCH  25  26
HETATM   26  C5  UNL     1       6.600   5.272  15.490  1.00  0.00     0.000 C 
BRANCH  26  27
HETATM   27  C4  UNL     1       6.934   6.238  14.340  1.00  0.00     0.000 C 
BRANCH  27  28
HETATM   28  C3  UNL     1       5.659   7.010  14.074  1.00  0.00    -0.000 C 
BRANCH  28  29
HETATM   29  C2  UNL     1       4.439   6.375  14.701  1.00  0.00    -0.005 C 
HETATM   30  C1  UNL     1       3.155   6.814  14.074  1.00  0.00     0.005 C 
ENDBRANCH  28  29
ENDBRANCH  27  28
ENDBRANCH  26  27
ENDBRANCH  25  26
ENDBRANCH  24  25
ENDBRANCH  22  24
ENDBRANCH  21  22
ENDBRANCH   1  21
BRANCH  11  31
HETATM   31  O3  UNL     1       4.223  10.425  19.534  1.00  0.00    -0.316 OA
BRANCH  31  32
HETATM   32  C20 UNL     1       5.120  10.152  20.514  1.00  0.00     0.255 C 
HETATM   33  C21 UNL     1       4.892   9.058  21.525  1.00  0.00     0.126 C 
HETATM   34  O4  UNL     1       6.200  10.790  20.649  1.00  0.00    -0.266 OA
ENDBRANCH  31  32
ENDBRANCH  11  31
TORSDOF 10
ENDMDL
MODEL 5
REMARK VINA RESULT: -8.603520506      1.809      4.995
REMARK  10 active torsions:
REMARK  status: ('A' for Active; 'I' for Inactive)
REMARK    1  A    between atoms: C2_2  and  C3_3 
REMARK    2  A    between atoms: C3_3  and  C4_4 
REMARK    3  A    between atoms: C4_4  and  C5_5 
REMARK    4  A    between atoms: C5_5  and  C6_6 
REMARK    5  A    between atoms: C6_6  and  C7_7 
REMARK    6  A    between atoms: C7_7  and  C8_8 
REMARK    7  A    between atoms: C8_8  and  O2_10 
REMARK    8  A    between atoms: O2_10  and  C9_11 
REMARK    9  A    between atoms: C19_21  and  O3_22 
REMARK   10  A    between atoms: O3_22  and  C20_23 
ROOT
HETATM    1  C9  UNL     1       3.426   7.507  18.019  1.00  0.00     0.137 C 
HETATM    2  C10 UNL     1       3.080   6.161  18.698  1.00  0.00     0.037 C 
HETATM    3  C11 UNL     1       3.900   6.065  19.917  1.00  0.00    -0.012 C 
HETATM    4  C12 UNL     1       3.027   5.851  21.163  1.00  0.00     0.010 C 
HETATM    5  C13 UNL     1       4.629   7.413  19.994  1.00  0.00    -0.003 C 
HETATM    6  C14 UNL     1       5.865   7.169  20.730  1.00  0.00     0.006 C 
HETATM    7  C15 UNL     1       6.768   8.324  20.927  1.00  0.00     0.011 C 
HETATM    8  C16 UNL     1       7.475   8.861  19.765  1.00  0.00    -0.031 C 
HETATM    9  C17 UNL     1       8.527   7.912  19.301  1.00  0.00     0.013 C 
HETATM   10  C18 UNL     1       8.043   6.927  18.314  1.00  0.00     0.034 C 
HETATM   11  C19 UNL     1       6.758   7.153  17.581  1.00  0.00     0.141 C 
HETATM   12  C22 UNL     1       5.896   8.321  17.964  1.00  0.00    -0.002 C 
HETATM   13  C23 UNL     1       5.398   8.971  16.639  1.00  0.00     0.019 C 
HETATM   14  C24 UNL     1       4.625   8.030  18.663  1.00  0.00     0.031 C 
HETATM   15  C25 UNL     1       6.774   9.370  18.544  1.00  0.00    -0.019 C 
HETATM   16  C26 UNL     1       7.864   9.646  17.477  1.00  0.00     0.018 C 
HETATM   17  C27 UNL     1       6.552  10.614  19.199  1.00  0.00    -0.038 C 
HETATM   18  C28 UNL     1       5.405  11.073  20.001  1.00  0.00     0.015 C 
HETATM   19  C29 UNL     1       6.961  11.926  18.464  1.00  0.00     0.015 C 
HETATM   20  C30 UNL     1       7.813  10.279  20.041  1.00  0.00     0.020 C 
ENDROOT
BRANCH   1  21
HETATM   21  O2  UNL     1       3.281   7.289  16.681  1.00  0.00    -0.316 OA
BRANCH  21  22
HETATM   22  C8  UNL     1       2.432   7.968  15.828  1.00  0.00     0.259 C 
HETATM   23  O1  UNL     1       2.538   7.669  14.612  1.00  0.00    -0.265 OA
BRANCH  22  24
HETATM   24  C7  UNL     1       1.485   8.964  16.376  1.00  0.00     0.111 C 
BRANCH  24  25
HETATM   25  C6  UNL     1       1.947  10.365  16.380  1.00  0.00     0.010 C 
BRANCH  25  26
HETATM   26  C5  UNL     1       2.371  10.940  17.685  1.00  0.00     0.000 C 
BRANCH  26  27
HETATM   27  C4  UNL     1       3.002  12.332  17.508  1.00  0.00     0.000 C 
BRANCH  27  28
HETATM   28  C3  UNL     1       3.210  12.497  16.017  1.00  0.00    -0.000 C 
BRANCH  28  29
HETATM   29  C2  UNL     1       4.665  12.642  15.634  1.00  0.00    -0.005 C 
HETATM   30  C1  UNL     1       5.015  11.944  14.360  1.00  0.00     0.005 C 
ENDBRANCH  28  29
ENDBRANCH  27  28
ENDBRANCH  26  27
ENDBRANCH  25  26
ENDBRANCH  24  25
ENDBRANCH  22  24
ENDBRANCH  21  22
ENDBRANCH   1  21
BRANCH  11  31
HETATM   31  O3  UNL     1       6.128   5.889  17.577  1.00  0.00    -0.316 OA
BRANCH  31  32
HETATM   32  C20 UNL     1       5.962   5.167  16.441  1.00  0.00     0.255 C 
HETATM   33  C21 UNL     1       6.989   5.166  15.337  1.00  0.00     0.126 C 
HETATM   34  O4  UNL     1       4.944   4.453  16.227  1.00  0.00    -0.266 OA
ENDBRANCH  31  32
ENDBRANCH  11  31
TORSDOF 10
ENDMDL
