MODEL 1
REMARK VINA RESULT: -9.946762900      0.000      0.000
REMARK  11 active torsions:
REMARK  status: ('A' for Active; 'I' for Inactive)
REMARK    1  A    between atoms: C2_2  and  C3_3 
REMARK    2  A    between atoms: C2_2  and  C25_31 
REMARK    3  A    between atoms: C3_3  and  C4_4 
REMARK    4  A    between atoms: C4_4  and  O2_6 
REMARK    5  A    between atoms: O2_6  and  C5_7 
REMARK    6  A    between atoms: C5_7  and  C6_8 
REMARK    7  A    between atoms: C15_17  and  C16_18 
REMARK    8  A    between atoms: C16_18  and  N1_19 
REMARK       I    between atoms: N1_19  and  C17_21 
REMARK    9  A    between atoms: C17_21  and  O4_23 
REMARK   10  A    between atoms: O4_23  and  C18_24 
REMARK   11  A    between atoms: C25_31  and  C28_34 
ROOT
HETATM    1  C6  UNL     1       3.085   9.087  16.244  1.00  0.00    -0.017 C 
HETATM    2  C7  UNL     1       1.824   9.892  15.941  1.00  0.00     0.017 C 
HETATM    3  C8  UNL     1       2.128  11.368  15.809  1.00  0.00    -0.005 C 
HETATM    4  C9  UNL     1       3.150  11.534  14.751  1.00  0.00    -0.010 C 
HETATM    5  C10 UNL     1       3.345  12.896  14.195  1.00  0.00     0.011 C 
HETATM    6  C11 UNL     1       4.423  10.871  15.237  1.00  0.00    -0.005 C 
HETATM    7  C12 UNL     1       4.111   9.373  15.230  1.00  0.00     0.017 C 
HETATM    8  C13 UNL     1       4.878  11.416  16.537  1.00  0.00    -0.000 C 
HETATM    9  C14 UNL     1       6.253  10.969  16.889  1.00  0.00     0.011 C 
HETATM   10  C15 UNL     1       3.831  11.042  17.623  1.00  0.00    -0.000 C 
HETATM   11  C22 UNL     1       3.676   9.574  17.588  1.00  0.00     0.027 C 
HETATM   12  C23 UNL     1       2.604  11.802  17.217  1.00  0.00    -0.000 C 
HETATM   13  C24 UNL     1       2.733  13.277  17.286  1.00  0.00     0.011 C 
ENDROOT
BRANCH   1  14
HETATM   14  C5  UNL     1       2.678   7.691  16.522  1.00  0.00     0.188 C 
BRANCH  14  15
HETATM   15  O2  UNL     1       1.485   7.185  16.199  1.00  0.00    -0.320 OA
BRANCH  15  16
HETATM   16  C4  UNL     1       0.475   6.641  16.979  1.00  0.00     0.262 C 
HETATM   17  O1  UNL     1      -0.634   6.534  16.402  1.00  0.00    -0.265 OA
BRANCH  16  18
HETATM   18  C3  UNL     1       0.747   6.242  18.364  1.00  0.00     0.145 C 
BRANCH  18  19
HETATM   19  C2  UNL     1       1.209   4.897  18.656  1.00  0.00    -0.072 C 
HETATM   20  C1  UNL     1       0.610   3.761  18.465  1.00  0.00     0.015 C 
BRANCH  19  21
HETATM   21  C25 UNL     1       2.606   4.867  19.278  1.00  0.00    -0.025 C 
HETATM   22  C26 UNL     1       3.580   4.865  18.110  1.00  0.00     0.019 C 
HETATM   23  C27 UNL     1       2.767   3.534  19.988  1.00  0.00     0.019 C 
BRANCH  21  24
HETATM   24  C28 UNL     1       2.755   6.030  20.184  1.00  0.00     0.009 C 
HETATM   25  C29 UNL     1       3.301   5.637  21.550  1.00  0.00     0.006 C 
ENDBRANCH  21  24
ENDBRANCH  19  21
ENDBRANCH  18  19
ENDBRANCH  16  18
ENDBRANCH  15  16
ENDBRANCH  14  15
ENDBRANCH   1  14
BRANCH  10  26
HETATM   26  C16 UNL     1       4.340  11.445  18.953  1.00  0.00     0.076 C 
BRANCH  26  27
HETATM   27  N1  UNL     1       4.925  10.533  19.856  1.00  0.00    -0.316 N 
HETATM   28  C17 UNL     1       6.105  10.409  20.578  1.00  0.00     0.365 C 
HETATM   29  O3  UNL     1       7.104  11.136  20.640  1.00  0.00    -0.238 OA
ATOM     30  H1  UNL     1       4.307   9.740  20.028  1.00  0.00     0.170 HD
BRANCH  28  31
HETATM   31  O4  UNL     1       6.238   9.252  21.411  1.00  0.00    -0.294 OA
BRANCH  31  32
HETATM   32  C18 UNL     1       6.881   8.132  20.882  1.00  0.00     0.061 C 
HETATM   33  C19 UNL     1       7.027   7.120  22.026  1.00  0.00     0.046 C 
HETATM   34  C20 UNL     1       8.247   8.407  20.347  1.00  0.00     0.046 C 
HETATM   35  C21 UNL     1       6.042   7.492  19.792  1.00  0.00     0.046 C 
ENDBRANCH  31  32
ENDBRANCH  28  31
ENDBRANCH  26  27
ENDBRANCH  10  26
TORSDOF 11
ENDMDL
MODEL 2
REMARK VINA RESULT: -9.606142709      1.419      2.346
REMARK  11 active torsions:
REMARK  status: ('A' for Active; 'I' for Inactive)
REMARK    1  A    between atoms: C2_2  and  C3_3 
REMARK    2  A    between atoms: C2_2  and  C25_31 
REMARK    3  A    between atoms: C3_3  and  C4_4 
REMARK    4  A    between atoms: C4_4  and  O2_6 
REMARK    5  A    between atoms: O2_6  and  C5_7 
REMARK    6  A    between atoms: C5_7  and  C6_8 
REMARK    7  A    between atoms: C15_17  and  C16_18 
REMARK    8  A    between atoms: C16_18  and  N1_19 
REMARK       I    between atoms: N1_19  and  C17_21 
REMARK    9  A    between atoms: C17_21  and  O4_23 
REMARK   10  A    between atoms: O4_23  and  C18_24 
REMARK   11  A    between atoms: C25_31  and  C28_34 
ROOT
HETATM    1  C6  UNL     1       4.362   8.952  15.345  1.00  0.00    -0.017 C 
HETATM    2  C7  UNL     1       2.887   8.878  15.728  1.00  0.00     0.017 C 
HETATM    3  C8  UNL     1       2.331  10.247  16.053  1.00  0.00    -0.005 C 
HETATM    4  C9  UNL     1       2.548  11.122  14.879  1.00  0.00    -0.010 C 
HETATM    5  C10 UNL     1       1.779  12.389  14.817  1.00  0.00     0.011 C 
HETATM    6  C11 UNL     1       4.044  11.292  14.706  1.00  0.00    -0.005 C 
HETATM    7  C12 UNL     1       4.543   9.919  14.252  1.00  0.00     0.017 C 
HETATM    8  C13 UNL     1       4.692  11.829  15.925  1.00  0.00    -0.000 C 
HETATM    9  C14 UNL     1       6.099  12.248  15.682  1.00  0.00     0.011 C 
HETATM   10  C15 UNL     1       4.569  10.770  17.056  1.00  0.00    -0.000 C 
HETATM   11  C22 UNL     1       5.160   9.518  16.544  1.00  0.00     0.027 C 
HETATM   12  C23 UNL     1       3.096  10.695  17.322  1.00  0.00    -0.000 C 
HETATM   13  C24 UNL     1       2.498  11.933  17.875  1.00  0.00     0.011 C 
ENDROOT
BRANCH   1  14
HETATM   14  C5  UNL     1       4.867   7.566  15.208  1.00  0.00     0.188 C 
BRANCH  14  15
HETATM   15  O2  UNL     1       4.227   6.492  15.679  1.00  0.00    -0.320 OA
BRANCH  15  16
HETATM   16  C4  UNL     1       4.677   5.399  16.405  1.00  0.00     0.262 C 
HETATM   17  O1  UNL     1       5.032   4.417  15.709  1.00  0.00    -0.265 OA
BRANCH  16  18
HETATM   18  C3  UNL     1       4.709   5.449  17.870  1.00  0.00     0.145 C 
BRANCH  18  19
HETATM   19  C2  UNL     1       3.637   6.102  18.600  1.00  0.00    -0.072 C 
HETATM   20  C1  UNL     1       3.455   7.365  18.840  1.00  0.00     0.015 C 
BRANCH  19  21
HETATM   21  C25 UNL     1       2.599   5.118  19.145  1.00  0.00    -0.025 C 
HETATM   22  C26 UNL     1       2.465   5.436  20.626  1.00  0.00     0.019 C 
HETATM   23  C27 UNL     1       3.189   3.722  19.045  1.00  0.00     0.019 C 
BRANCH  21  24
HETATM   24  C28 UNL     1       1.340   5.274  18.380  1.00  0.00     0.009 C 
HETATM   25  C29 UNL     1       0.498   4.005  18.381  1.00  0.00     0.006 C 
ENDBRANCH  21  24
ENDBRANCH  19  21
ENDBRANCH  18  19
ENDBRANCH  16  18
ENDBRANCH  15  16
ENDBRANCH  14  15
ENDBRANCH   1  14
BRANCH  10  26
HETATM   26  C16 UNL     1       5.342  11.223  18.236  1.00  0.00     0.076 C 
BRANCH  26  27
HETATM   27  N1  UNL     1       5.432  10.471  19.425  1.00  0.00    -0.316 N 
HETATM   28  C17 UNL     1       6.336  10.287  20.462  1.00  0.00     0.365 C 
HETATM   29  O3  UNL     1       7.456  10.773  20.666  1.00  0.00    -0.238 OA
ATOM     30  H1  UNL     1       4.597   9.902  19.563  1.00  0.00     0.170 HD
BRANCH  28  31
HETATM   31  O4  UNL     1       5.953   9.383  21.506  1.00  0.00    -0.294 OA
BRANCH  31  32
HETATM   32  C18 UNL     1       6.462   8.085  21.469  1.00  0.00     0.061 C 
HETATM   33  C19 UNL     1       5.320   7.147  21.880  1.00  0.00     0.046 C 
HETATM   34  C20 UNL     1       7.599   7.846  22.406  1.00  0.00     0.046 C 
HETATM   35  C21 UNL     1       6.893   7.712  20.062  1.00  0.00     0.046 C 
ENDBRANCH  31  32
ENDBRANCH  28  31
ENDBRANCH  26  27
ENDBRANCH  10  26
TORSDOF 11
ENDMDL
MODEL 3
REMARK VINA RESULT: -9.597291504      1.651      2.530
REMARK  11 active torsions:
REMARK  status: ('A' for Active; 'I' for Inactive)
REMARK    1  A    between atoms: C2_2  and  C3_3 
REMARK    2  A    between atoms: C2_2  and  C25_31 
REMARK    3  A    between atoms: C3_3  and  C4_4 
REMARK    4  A    between atoms: C4_4  and  O2_6 
REMARK    5  A    between atoms: O2_6  and  C5_7 
REMARK    6  A    between atoms: C5_7  and  C6_8 
REMARK    7  A    between atoms: C15_17  and  C16_18 
REMARK    8  A    between atoms: C16_18  and  N1_19 
REMARK       I    between atoms: N1_19  and  C17_21 
REMARK    9  A    between atoms: C17_21  and  O4_23 
REMARK   10  A    between atoms: O4_23  and  C18_24 
REMARK   11  A    between atoms: C25_31  and  C28_34 
ROOT
HETATM    1  C6  UNL     1       4.686   8.934  15.014  1.00  0.00    -0.017 C 
HETATM    2  C7  UNL     1       3.224   8.660  15.354  1.00  0.00     0.017 C 
HETATM    3  C8  UNL     1       2.496   9.932  15.731  1.00  0.00    -0.005 C 
HETATM    4  C9  UNL     1       2.626  10.886  14.607  1.00  0.00    -0.010 C 
HETATM    5  C10 UNL     1       1.708  12.051  14.587  1.00  0.00     0.011 C 
HETATM    6  C11 UNL     1       4.094  11.247  14.481  1.00  0.00    -0.005 C 
HETATM    7  C12 UNL     1       4.768   9.971  13.975  1.00  0.00     0.017 C 
HETATM    8  C13 UNL     1       4.645  11.796  15.741  1.00  0.00    -0.000 C 
HETATM    9  C14 UNL     1       5.994  12.396  15.555  1.00  0.00     0.011 C 
HETATM   10  C15 UNL     1       4.633  10.674  16.816  1.00  0.00    -0.000 C 
HETATM   11  C22 UNL     1       5.384   9.531  16.259  1.00  0.00     0.027 C 
HETATM   12  C23 UNL     1       3.176  10.404  17.040  1.00  0.00    -0.000 C 
HETATM   13  C24 UNL     1       2.418  11.530  17.637  1.00  0.00     0.011 C 
ENDROOT
BRANCH   1  14
HETATM   14  C5  UNL     1       5.361   7.630  14.823  1.00  0.00     0.188 C 
BRANCH  14  15
HETATM   15  O2  UNL     1       4.810   6.454  15.138  1.00  0.00    -0.320 OA
BRANCH  15  16
HETATM   16  C4  UNL     1       5.143   5.511  16.098  1.00  0.00     0.262 C 
HETATM   17  O1  UNL     1       5.649   4.455  15.644  1.00  0.00    -0.265 OA
BRANCH  16  18
HETATM   18  C3  UNL     1       4.897   5.784  17.518  1.00  0.00     0.145 C 
BRANCH  18  19
HETATM   19  C2  UNL     1       3.766   5.170  18.191  1.00  0.00    -0.072 C 
HETATM   20  C1  UNL     1       3.580   3.929  18.522  1.00  0.00     0.015 C 
BRANCH  19  21
HETATM   21  C25 UNL     1       2.662   6.171  18.539  1.00  0.00    -0.025 C 
HETATM   22  C26 UNL     1       3.356   7.516  18.695  1.00  0.00     0.019 C 
HETATM   23  C27 UNL     1       2.114   5.797  19.905  1.00  0.00     0.019 C 
BRANCH  21  24
HETATM   24  C28 UNL     1       1.635   6.144  17.472  1.00  0.00     0.009 C 
HETATM   25  C29 UNL     1       0.224   6.316  18.019  1.00  0.00     0.006 C 
ENDBRANCH  21  24
ENDBRANCH  19  21
ENDBRANCH  18  19
ENDBRANCH  16  18
ENDBRANCH  15  16
ENDBRANCH  14  15
ENDBRANCH   1  14
BRANCH  10  26
HETATM   26  C16 UNL     1       5.320  11.156  18.036  1.00  0.00     0.076 C 
BRANCH  26  27
HETATM   27  N1  UNL     1       5.363  10.414  19.234  1.00  0.00    -0.316 N 
HETATM   28  C17 UNL     1       6.183  10.301  20.348  1.00  0.00     0.365 C 
HETATM   29  O3  UNL     1       7.240  10.872  20.646  1.00  0.00    -0.238 OA
ATOM     30  H1  UNL     1       4.565   9.781  19.302  1.00  0.00     0.170 HD
BRANCH  28  31
HETATM   31  O4  UNL     1       5.781   9.370  21.360  1.00  0.00    -0.294 OA
BRANCH  31  32
HETATM   32  C18 UNL     1       6.323   8.086  21.324  1.00  0.00     0.061 C 
HETATM   33  C19 UNL     1       5.183   7.111  21.642  1.00  0.00     0.046 C 
HETATM   34  C20 UNL     1       7.407   7.852  22.324  1.00  0.00     0.046 C 
HETATM   35  C21 UNL     1       6.849   7.759  19.939  1.00  0.00     0.046 C 
ENDBRANCH  31  32
ENDBRANCH  28  31
ENDBRANCH  26  27
ENDBRANCH  10  26
TORSDOF 11
ENDMDL
MODEL 4
REMARK VINA RESULT: -9.586266609      1.472      2.253
REMARK  11 active torsions:
REMARK  status: ('A' for Active; 'I' for Inactive)
REMARK    1  A    between atoms: C2_2  and  C3_3 
REMARK    2  A    between atoms: C2_2  and  C25_31 
REMARK    3  A    between atoms: C3_3  and  C4_4 
REMARK    4  A    between atoms: C4_4  and  O2_6 
REMARK    5  A    between atoms: O2_6  and  C5_7 
REMARK    6  A    between atoms: C5_7  and  C6_8 
REMARK    7  A    between atoms: C15_17  and  C16_18 
REMARK    8  A    between atoms: C16_18  and  N1_19 
REMARK       I    between atoms: N1_19  and  C17_21 
REMARK    9  A    between atoms: C17_21  and  O4_23 
REMARK   10  A    between atoms: O4_23  and  C18_24 
REMARK   11  A    between atoms: C25_31  and  C28_34 
ROOT
HETATM    1  C6  UNL     1       4.693   9.054  15.400  1.00  0.00    -0.017 C 
HETATM    2  C7  UNL     1       3.249   8.839  15.844  1.00  0.00     0.017 C 
HETATM    3  C8  UNL     1       2.547  10.155  16.098  1.00  0.00    -0.005 C 
HETATM    4  C9  UNL     1       2.624  10.964  14.862  1.00  0.00    -0.010 C 
HETATM    5  C10 UNL     1       1.711  12.128  14.745  1.00  0.00     0.011 C 
HETATM    6  C11 UNL     1       4.085  11.291  14.619  1.00  0.00    -0.005 C 
HETATM    7  C12 UNL     1       4.726   9.955  14.239  1.00  0.00     0.017 C 
HETATM    8  C13 UNL     1       4.702  11.983  15.774  1.00  0.00    -0.000 C 
HETATM    9  C14 UNL     1       6.043  12.542  15.449  1.00  0.00     0.011 C 
HETATM   10  C15 UNL     1       4.739  11.000  16.977  1.00  0.00    -0.000 C 
HETATM   11  C22 UNL     1       5.456   9.790  16.527  1.00  0.00     0.027 C 
HETATM   12  C23 UNL     1       3.294  10.776  17.304  1.00  0.00    -0.000 C 
HETATM   13  C24 UNL     1       2.573  11.974  17.796  1.00  0.00     0.011 C 
ENDROOT
BRANCH   1  14
HETATM   14  C5  UNL     1       5.351   7.729  15.336  1.00  0.00     0.188 C 
BRANCH  14  15
HETATM   15  O2  UNL     1       4.688   6.569  15.304  1.00  0.00    -0.320 OA
BRANCH  15  16
HETATM   16  C4  UNL     1       4.666   5.498  16.185  1.00  0.00     0.262 C 
HETATM   17  O1  UNL     1       5.154   4.435  15.730  1.00  0.00    -0.265 OA
BRANCH  16  18
HETATM   18  C3  UNL     1       4.102   5.659  17.529  1.00  0.00     0.145 C 
BRANCH  18  19
HETATM   19  C2  UNL     1       2.664   5.618  17.724  1.00  0.00    -0.072 C 
HETATM   20  C1  UNL     1       1.718   6.103  16.978  1.00  0.00     0.015 C 
BRANCH  19  21
HETATM   21  C25 UNL     1       2.254   4.890  19.006  1.00  0.00    -0.025 C 
HETATM   22  C26 UNL     1       3.219   3.722  19.145  1.00  0.00     0.019 C 
HETATM   23  C27 UNL     1       0.875   4.296  18.778  1.00  0.00     0.019 C 
BRANCH  21  24
HETATM   24  C28 UNL     1       2.297   5.845  20.137  1.00  0.00     0.009 C 
HETATM   25  C29 UNL     1       3.326   5.454  21.189  1.00  0.00     0.006 C 
ENDBRANCH  21  24
ENDBRANCH  19  21
ENDBRANCH  18  19
ENDBRANCH  16  18
ENDBRANCH  15  16
ENDBRANCH  14  15
ENDBRANCH   1  14
BRANCH  10  26
HETATM   26  C16 UNL     1       5.490  11.620  18.093  1.00  0.00     0.076 C 
BRANCH  26  27
HETATM   27  N1  UNL     1       6.030  10.873  19.160  1.00  0.00    -0.316 N 
HETATM   28  C17 UNL     1       5.571  10.196  20.281  1.00  0.00     0.365 C 
HETATM   29  O3  UNL     1       4.429  10.040  20.731  1.00  0.00    -0.238 OA
ATOM     30  H1  UNL     1       7.046  10.812  19.086  1.00  0.00     0.170 HD
BRANCH  28  31
HETATM   31  O4  UNL     1       6.554   9.547  21.096  1.00  0.00    -0.294 OA
BRANCH  31  32
HETATM   32  C18 UNL     1       6.966   8.264  20.731  1.00  0.00     0.061 C 
HETATM   33  C19 UNL     1       8.341   8.410  20.067  1.00  0.00     0.046 C 
HETATM   34  C20 UNL     1       6.064   7.587  19.754  1.00  0.00     0.046 C 
HETATM   35  C21 UNL     1       7.126   7.379  21.954  1.00  0.00     0.046 C 
ENDBRANCH  31  32
ENDBRANCH  28  31
ENDBRANCH  26  27
ENDBRANCH  10  26
TORSDOF 11
ENDMDL
MODEL 5
REMARK VINA RESULT: -9.563893325      2.167      6.773
REMARK  11 active torsions:
REMARK  status: ('A' for Active; 'I' for Inactive)
REMARK    1  A    between atoms: C2_2  and  C3_3 
REMARK    2  A    between atoms: C2_2  and  C25_31 
REMARK    3  A    between atoms: C3_3  and  C4_4 
REMARK    4  A    between atoms: C4_4  and  O2_6 
REMARK    5  A    between atoms: O2_6  and  C5_7 
REMARK    6  A    between atoms: C5_7  and  C6_8 
REMARK    7  A    between atoms: C15_17  and  C16_18 
REMARK    8  A    between atoms: C16_18  and  N1_19 
REMARK       I    between atoms: N1_19  and  C17_21 
REMARK    9  A    between atoms: C17_21  and  O4_23 
REMARK   10  A    between atoms: O4_23  and  C18_24 
REMARK   11  A    between atoms: C25_31  and  C28_34 
ROOT
HETATM    1  C6  UNL     1       3.998   6.788  19.519  1.00  0.00    -0.017 C 
HETATM    2  C7  UNL     1       2.913   6.253  20.450  1.00  0.00     0.017 C 
HETATM    3  C8  UNL     1       1.936   5.366  19.709  1.00  0.00    -0.005 C 
HETATM    4  C9  UNL     1       2.701   4.270  19.074  1.00  0.00    -0.010 C 
HETATM    5  C10 UNL     1       1.940   3.088  18.600  1.00  0.00     0.011 C 
HETATM    6  C11 UNL     1       3.606   4.890  18.027  1.00  0.00    -0.005 C 
HETATM    7  C12 UNL     1       4.652   5.669  18.826  1.00  0.00     0.017 C 
HETATM    8  C13 UNL     1       2.848   5.685  17.033  1.00  0.00    -0.000 C 
HETATM    9  C14 UNL     1       3.682   6.071  15.862  1.00  0.00     0.011 C 
HETATM   10  C15 UNL     1       2.224   6.912  17.754  1.00  0.00    -0.000 C 
HETATM   11  C22 UNL     1       3.330   7.637  18.412  1.00  0.00     0.027 C 
HETATM   12  C23 UNL     1       1.232   6.308  18.701  1.00  0.00    -0.000 C 
HETATM   13  C24 UNL     1       0.095   5.612  18.053  1.00  0.00     0.011 C 
ENDROOT
BRANCH   1  14
HETATM   14  C5  UNL     1       4.804   7.771  20.279  1.00  0.00     0.188 C 
BRANCH  14  15
HETATM   15  O2  UNL     1       5.922   7.461  20.943  1.00  0.00    -0.320 OA
BRANCH  15  16
HETATM   16  C4  UNL     1       7.237   7.863  20.767  1.00  0.00     0.262 C 
HETATM   17  O1  UNL     1       7.713   8.535  21.714  1.00  0.00    -0.265 OA
BRANCH  16  18
HETATM   18  C3  UNL     1       7.962   7.502  19.544  1.00  0.00     0.145 C 
BRANCH  18  19
HETATM   19  C2  UNL     1       7.974   8.408  18.410  1.00  0.00    -0.072 C 
HETATM   20  C1  UNL     1       8.318   9.659  18.360  1.00  0.00     0.015 C 
BRANCH  19  21
HETATM   21  C25 UNL     1       7.504   7.748  17.111  1.00  0.00    -0.025 C 
HETATM   22  C26 UNL     1       8.572   8.066  16.076  1.00  0.00     0.019 C 
HETATM   23  C27 UNL     1       6.235   8.455  16.668  1.00  0.00     0.019 C 
BRANCH  21  24
HETATM   24  C28 UNL     1       7.311   6.299  17.351  1.00  0.00     0.009 C 
HETATM   25  C29 UNL     1       7.635   5.458  16.123  1.00  0.00     0.006 C 
ENDBRANCH  21  24
ENDBRANCH  19  21
ENDBRANCH  18  19
ENDBRANCH  16  18
ENDBRANCH  15  16
ENDBRANCH  14  15
ENDBRANCH   1  14
BRANCH  10  26
HETATM   26  C16 UNL     1       1.592   7.800  16.752  1.00  0.00     0.076 C 
BRANCH  26  27
HETATM   27  N1  UNL     1       1.756   9.201  16.759  1.00  0.00    -0.316 N 
HETATM   28  C17 UNL     1       2.358  10.172  15.971  1.00  0.00     0.365 C 
HETATM   29  O3  UNL     1       3.009  10.086  14.923  1.00  0.00    -0.238 OA
ATOM     30  H1  UNL     1       1.304   9.618  17.572  1.00  0.00     0.170 HD
BRANCH  28  31
HETATM   31  O4  UNL     1       2.235  11.531  16.408  1.00  0.00    -0.294 OA
BRANCH  31  32
HETATM   32  C18 UNL     1       3.352  12.141  16.979  1.00  0.00     0.061 C 
HETATM   33  C19 UNL     1       2.835  13.294  17.849  1.00  0.00     0.046 C 
HETATM   34  C20 UNL     1       4.306  12.720  15.987  1.00  0.00     0.046 C 
HETATM   35  C21 UNL     1       4.099  11.172  17.877  1.00  0.00     0.046 C 
ENDBRANCH  31  32
ENDBRANCH  28  31
ENDBRANCH  26  27
ENDBRANCH  10  26
TORSDOF 11
ENDMDL
