MODEL 1
REMARK VINA RESULT: -8.856065732      0.000      0.000
REMARK  11 active torsions:
REMARK  status: ('A' for Active; 'I' for Inactive)
REMARK    1  A    between atoms: C2_2  and  C3_3 
REMARK    2  A    between atoms: C3_3  and  C4_4 
REMARK    3  A    between atoms: C3_3  and  C6_6 
REMARK    4  A    between atoms: C6_6  and  N1_7 
REMARK    5  A    between atoms: C6_6  and  O3_32 
REMARK    6  A    between atoms: N1_7  and  C7_9 
REMARK    7  A    between atoms: C11_13  and  C12_14 
REMARK    8  A    between atoms: C12_14  and  O1_15 
REMARK    9  A    between atoms: O1_15  and  C13_16 
REMARK   10  A    between atoms: C13_16  and  C14_18 
REMARK   11  A    between atoms: O3_32  and  C28_33 
ROOT
HETATM    1  C7  UNL     1       2.762   7.487  18.248  1.00  0.00    -0.007 C 
HETATM    2  C8  UNL     1       1.597   7.132  17.395  1.00  0.00     0.053 C 
HETATM    3  C9  UNL     1       2.039   6.614  16.038  1.00  0.00     0.006 C 
HETATM    4  C10 UNL     1       2.765   7.781  15.404  1.00  0.00     0.012 C 
HETATM    5  C11 UNL     1       4.078   8.053  16.142  1.00  0.00    -0.009 C 
HETATM    6  C20 UNL     1       4.741   9.131  15.388  1.00  0.00     0.013 C 
HETATM    7  C21 UNL     1       4.040  10.478  15.375  1.00  0.00     0.005 C 
HETATM    8  C22 UNL     1       4.490  11.412  16.462  1.00  0.00    -0.015 C 
HETATM    9  C23 UNL     1       5.816  12.084  16.139  1.00  0.00     0.010 C 
HETATM   10  C24 UNL     1       4.456  10.804  17.825  1.00  0.00    -0.014 C 
HETATM   11  C25 UNL     1       4.130  11.911  18.809  1.00  0.00     0.010 C 
HETATM   12  C26 UNL     1       3.335   9.799  17.814  1.00  0.00     0.016 C 
HETATM   13  C27 UNL     1       3.767   8.398  17.572  1.00  0.00     0.042 C 
ENDROOT
BRANCH   1  14
HETATM   14  N1  UNL     1       3.295   6.461  18.997  1.00  0.00    -0.347 N 
ATOM     15  H1  UNL     1       4.007   5.908  18.520  1.00  0.00     0.167 HD
BRANCH  14  16
HETATM   16  C6  UNL     1       3.021   6.063  20.287  1.00  0.00     0.131 C 
BRANCH  16  17
HETATM   17  C3  UNL     1       3.972   6.300  21.412  1.00  0.00     0.060 C 
BRANCH  17  18
HETATM   18  C2  UNL     1       3.183   6.945  22.582  1.00  0.00     0.008 C 
HETATM   19  C1  UNL     1       3.064   5.979  23.721  1.00  0.00     0.006 C 
ENDBRANCH  17  18
BRANCH  17  20
HETATM   20  C4  UNL     1       5.068   7.260  21.021  1.00  0.00     0.008 C 
HETATM   21  C5  UNL     1       4.724   8.710  21.269  1.00  0.00     0.006 C 
ENDBRANCH  17  20
ENDBRANCH  16  17
BRANCH  16  22
HETATM   22  O3  UNL     1       2.449   4.748  20.371  1.00  0.00    -0.265 OA
BRANCH  22  23
HETATM   23  C28 UNL     1       2.233   3.907  19.319  1.00  0.00     0.261 C 
HETATM   24  C29 UNL     1       0.884   3.638  18.739  1.00  0.00     0.126 C 
HETATM   25  O4  UNL     1       3.243   3.338  18.829  1.00  0.00    -0.265 OA
ENDBRANCH  22  23
ENDBRANCH  16  22
ENDBRANCH  14  16
ENDBRANCH   1  14
BRANCH   5  26
HETATM   26  C12 UNL     1       4.925   6.810  16.169  1.00  0.00     0.189 C 
BRANCH  26  27
HETATM   27  O1  UNL     1       5.753   6.530  17.206  1.00  0.00    -0.320 OA
BRANCH  27  28
HETATM   28  C13 UNL     1       6.977   6.882  17.644  1.00  0.00     0.263 C 
HETATM   29  O2  UNL     1       7.960   6.142  17.409  1.00  0.00    -0.265 OA
BRANCH  28  30
HETATM   30  C14 UNL     1       7.270   8.126  18.412  1.00  0.00     0.085 C 
HETATM   31  C15 UNL     1       8.339   7.837  19.413  1.00  0.00     0.014 C 
HETATM   32  C16 UNL     1       8.388   8.984  20.399  1.00  0.00     0.001 C 
HETATM   33  C17 UNL     1       7.893  10.247  19.741  1.00  0.00     0.000 C 
HETATM   34  C18 UNL     1       8.310  10.343  18.300  1.00  0.00     0.001 C 
HETATM   35  C19 UNL     1       7.718   9.211  17.488  1.00  0.00     0.014 C 
ENDBRANCH  28  30
ENDBRANCH  27  28
ENDBRANCH  26  27
ENDBRANCH   5  26
TORSDOF 11
ENDMDL
MODEL 2
REMARK VINA RESULT: -8.618132411      1.685      2.941
REMARK  11 active torsions:
REMARK  status: ('A' for Active; 'I' for Inactive)
REMARK    1  A    between atoms: C2_2  and  C3_3 
REMARK    2  A    between atoms: C3_3  and  C4_4 
REMARK    3  A    between atoms: C3_3  and  C6_6 
REMARK    4  A    between atoms: C6_6  and  N1_7 
REMARK    5  A    between atoms: C6_6  and  O3_32 
REMARK    6  A    between atoms: N1_7  and  C7_9 
REMARK    7  A    between atoms: C11_13  and  C12_14 
REMARK    8  A    between atoms: C12_14  and  O1_15 
REMARK    9  A    between atoms: O1_15  and  C13_16 
REMARK   10  A    between atoms: C13_16  and  C14_18 
REMARK   11  A    between atoms: O3_32  and  C28_33 
ROOT
HETATM    1  C7  UNL     1       3.204   7.314  16.943  1.00  0.00    -0.007 C 
HETATM    2  C8  UNL     1       2.414   6.655  15.869  1.00  0.00     0.053 C 
HETATM    3  C9  UNL     1       3.173   6.633  14.555  1.00  0.00     0.006 C 
HETATM    4  C10 UNL     1       3.354   8.092  14.196  1.00  0.00     0.012 C 
HETATM    5  C11 UNL     1       4.324   8.763  15.172  1.00  0.00    -0.009 C 
HETATM    6  C20 UNL     1       4.500  10.137  14.674  1.00  0.00     0.013 C 
HETATM    7  C21 UNL     1       3.273  11.031  14.703  1.00  0.00     0.005 C 
HETATM    8  C22 UNL     1       3.145  11.853  15.954  1.00  0.00    -0.015 C 
HETATM    9  C23 UNL     1       4.050  13.075  15.941  1.00  0.00     0.010 C 
HETATM   10  C24 UNL     1       3.255  11.053  17.210  1.00  0.00    -0.014 C 
HETATM   11  C25 UNL     1       2.370  11.713  18.249  1.00  0.00     0.010 C 
HETATM   12  C26 UNL     1       2.714   9.684  16.890  1.00  0.00     0.016 C 
HETATM   13  C27 UNL     1       3.752   8.674  16.559  1.00  0.00     0.042 C 
ENDROOT
BRANCH   1  14
HETATM   14  N1  UNL     1       4.066   6.499  17.643  1.00  0.00    -0.347 N 
ATOM     15  H1  UNL     1       4.878   6.973  18.038  1.00  0.00     0.167 HD
BRANCH  14  16
HETATM   16  C6  UNL     1       4.006   5.146  17.896  1.00  0.00     0.131 C 
BRANCH  16  17
HETATM   17  C3  UNL     1       3.337   4.591  19.108  1.00  0.00     0.060 C 
BRANCH  17  18
HETATM   18  C2  UNL     1       2.183   3.667  18.641  1.00  0.00     0.008 C 
HETATM   19  C1  UNL     1       0.920   4.457  18.478  1.00  0.00     0.006 C 
ENDBRANCH  17  18
BRANCH  17  20
HETATM   20  C4  UNL     1       2.729   5.681  19.956  1.00  0.00     0.008 C 
HETATM   21  C5  UNL     1       3.267   5.725  21.368  1.00  0.00     0.006 C 
ENDBRANCH  17  20
ENDBRANCH  16  17
BRANCH  16  22
HETATM   22  O3  UNL     1       5.242   4.461  17.637  1.00  0.00    -0.265 OA
BRANCH  22  23
HETATM   23  C28 UNL     1       6.133   4.772  16.652  1.00  0.00     0.261 C 
HETATM   24  C29 UNL     1       7.484   5.349  16.911  1.00  0.00     0.126 C 
HETATM   25  O4  UNL     1       5.769   4.551  15.466  1.00  0.00    -0.265 OA
ENDBRANCH  22  23
ENDBRANCH  16  22
ENDBRANCH  14  16
ENDBRANCH   1  14
BRANCH   5  26
HETATM   26  C12 UNL     1       5.633   8.021  15.193  1.00  0.00     0.189 C 
BRANCH  26  27
HETATM   27  O1  UNL     1       6.761   8.575  15.701  1.00  0.00    -0.320 OA
BRANCH  27  28
HETATM   28  C13 UNL     1       7.256   8.939  16.900  1.00  0.00     0.263 C 
HETATM   29  O2  UNL     1       8.493   9.063  17.052  1.00  0.00    -0.265 OA
BRANCH  28  30
HETATM   30  C14 UNL     1       6.422   9.220  18.103  1.00  0.00     0.085 C 
HETATM   31  C15 UNL     1       6.809   8.275  19.192  1.00  0.00     0.014 C 
HETATM   32  C16 UNL     1       5.748   8.333  20.270  1.00  0.00     0.001 C 
HETATM   33  C17 UNL     1       5.075   9.683  20.253  1.00  0.00     0.000 C 
HETATM   34  C18 UNL     1       6.034  10.797  19.939  1.00  0.00     0.001 C 
HETATM   35  C19 UNL     1       6.625  10.629  18.557  1.00  0.00     0.014 C 
ENDBRANCH  28  30
ENDBRANCH  27  28
ENDBRANCH  26  27
ENDBRANCH   5  26
TORSDOF 11
ENDMDL
MODEL 3
REMARK VINA RESULT: -8.526662141      2.409      5.573
REMARK  11 active torsions:
REMARK  status: ('A' for Active; 'I' for Inactive)
REMARK    1  A    between atoms: C2_2  and  C3_3 
REMARK    2  A    between atoms: C3_3  and  C4_4 
REMARK    3  A    between atoms: C3_3  and  C6_6 
REMARK    4  A    between atoms: C6_6  and  N1_7 
REMARK    5  A    between atoms: C6_6  and  O3_32 
REMARK    6  A    between atoms: N1_7  and  C7_9 
REMARK    7  A    between atoms: C11_13  and  C12_14 
REMARK    8  A    between atoms: C12_14  and  O1_15 
REMARK    9  A    between atoms: O1_15  and  C13_16 
REMARK   10  A    between atoms: C13_16  and  C14_18 
REMARK   11  A    between atoms: O3_32  and  C28_33 
ROOT
HETATM    1  C7  UNL     1       2.110   7.704  16.604  1.00  0.00    -0.007 C 
HETATM    2  C8  UNL     1       1.061   6.655  16.704  1.00  0.00     0.053 C 
HETATM    3  C9  UNL     1       1.128   5.927  18.034  1.00  0.00     0.006 C 
HETATM    4  C10 UNL     1       2.485   5.256  18.033  1.00  0.00     0.012 C 
HETATM    5  C11 UNL     1       3.596   6.305  18.128  1.00  0.00    -0.009 C 
HETATM    6  C20 UNL     1       4.853   5.543  18.217  1.00  0.00     0.013 C 
HETATM    7  C21 UNL     1       5.232   4.715  17.003  1.00  0.00     0.005 C 
HETATM    8  C22 UNL     1       6.122   5.432  16.028  1.00  0.00    -0.015 C 
HETATM    9  C23 UNL     1       7.574   5.459  16.478  1.00  0.00     0.010 C 
HETATM   10  C24 UNL     1       5.607   6.775  15.623  1.00  0.00    -0.014 C 
HETATM   11  C25 UNL     1       6.042   7.015  14.190  1.00  0.00     0.010 C 
HETATM   12  C26 UNL     1       4.104   6.688  15.681  1.00  0.00     0.016 C 
HETATM   13  C27 UNL     1       3.506   7.214  16.935  1.00  0.00     0.042 C 
ENDROOT
BRANCH   1  14
HETATM   14  N1  UNL     1       1.776   8.941  17.111  1.00  0.00    -0.347 N 
ATOM     15  H1  UNL     1       1.164   8.919  17.927  1.00  0.00     0.167 HD
BRANCH  14  16
HETATM   16  C6  UNL     1       2.136  10.203  16.692  1.00  0.00     0.131 C 
BRANCH  16  17
HETATM   17  C3  UNL     1       2.145  10.591  15.251  1.00  0.00     0.060 C 
BRANCH  17  18
HETATM   18  C2  UNL     1       3.601  10.473  14.729  1.00  0.00     0.008 C 
HETATM   19  C1  UNL     1       3.645   9.601  13.512  1.00  0.00     0.006 C 
ENDBRANCH  17  18
BRANCH  17  20
HETATM   20  C4  UNL     1       1.708  12.022  15.057  1.00  0.00     0.008 C 
HETATM   21  C5  UNL     1       2.850  12.974  14.789  1.00  0.00     0.006 C 
ENDBRANCH  17  20
ENDBRANCH  16  17
BRANCH  16  22
HETATM   22  O3  UNL     1       3.293  10.721  17.366  1.00  0.00    -0.265 OA
BRANCH  22  23
HETATM   23  C28 UNL     1       3.289  11.708  18.308  1.00  0.00     0.261 C 
HETATM   24  C29 UNL     1       4.526  12.366  18.821  1.00  0.00     0.126 C 
HETATM   25  O4  UNL     1       2.166  12.064  18.754  1.00  0.00    -0.265 OA
ENDBRANCH  22  23
ENDBRANCH  16  22
ENDBRANCH  14  16
ENDBRANCH   1  14
BRANCH   5  26
HETATM   26  C12 UNL     1       3.394   7.164  19.346  1.00  0.00     0.189 C 
BRANCH  26  27
HETATM   27  O1  UNL     1       3.930   8.405  19.444  1.00  0.00    -0.320 OA
BRANCH  27  28
HETATM   28  C13 UNL     1       4.952   9.017  20.074  1.00  0.00     0.263 C 
HETATM   29  O2  UNL     1       4.742   9.646  21.136  1.00  0.00    -0.265 OA
BRANCH  28  30
HETATM   30  C14 UNL     1       6.364   9.004  19.596  1.00  0.00     0.085 C 
HETATM   31  C15 UNL     1       6.960   7.666  19.883  1.00  0.00     0.014 C 
HETATM   32  C16 UNL     1       8.461   7.769  19.714  1.00  0.00     0.001 C 
HETATM   33  C17 UNL     1       8.791   8.867  18.734  1.00  0.00     0.000 C 
HETATM   34  C18 UNL     1       7.798   8.948  17.609  1.00  0.00     0.001 C 
HETATM   35  C19 UNL     1       6.416   9.279  18.128  1.00  0.00     0.014 C 
ENDBRANCH  28  30
ENDBRANCH  27  28
ENDBRANCH  26  27
ENDBRANCH   5  26
TORSDOF 11
ENDMDL
MODEL 4
REMARK VINA RESULT: -8.381336341      2.215      5.436
REMARK  11 active torsions:
REMARK  status: ('A' for Active; 'I' for Inactive)
REMARK    1  A    between atoms: C2_2  and  C3_3 
REMARK    2  A    between atoms: C3_3  and  C4_4 
REMARK    3  A    between atoms: C3_3  and  C6_6 
REMARK    4  A    between atoms: C6_6  and  N1_7 
REMARK    5  A    between atoms: C6_6  and  O3_32 
REMARK    6  A    between atoms: N1_7  and  C7_9 
REMARK    7  A    between atoms: C11_13  and  C12_14 
REMARK    8  A    between atoms: C12_14  and  O1_15 
REMARK    9  A    between atoms: O1_15  and  C13_16 
REMARK   10  A    between atoms: C13_16  and  C14_18 
REMARK   11  A    between atoms: O3_32  and  C28_33 
ROOT
HETATM    1  C7  UNL     1       4.537   7.268  19.076  1.00  0.00    -0.007 C 
HETATM    2  C8  UNL     1       4.620   6.988  20.534  1.00  0.00     0.053 C 
HETATM    3  C9  UNL     1       4.293   8.222  21.356  1.00  0.00     0.006 C 
HETATM    4  C10 UNL     1       5.373   9.218  20.992  1.00  0.00     0.012 C 
HETATM    5  C11 UNL     1       5.202   9.682  19.543  1.00  0.00    -0.009 C 
HETATM    6  C20 UNL     1       6.235  10.710  19.332  1.00  0.00     0.013 C 
HETATM    7  C21 UNL     1       7.678  10.245  19.401  1.00  0.00     0.005 C 
HETATM    8  C22 UNL     1       8.260   9.859  18.071  1.00  0.00    -0.015 C 
HETATM    9  C23 UNL     1       8.675  11.067  17.245  1.00  0.00     0.010 C 
HETATM   10  C24 UNL     1       7.420   8.888  17.309  1.00  0.00    -0.014 C 
HETATM   11  C25 UNL     1       8.357   8.009  16.503  1.00  0.00     0.010 C 
HETATM   12  C26 UNL     1       6.707   8.047  18.336  1.00  0.00     0.016 C 
HETATM   13  C27 UNL     1       5.320   8.489  18.637  1.00  0.00     0.042 C 
ENDROOT
BRANCH   1  14
HETATM   14  N1  UNL     1       3.294   7.118  18.503  1.00  0.00    -0.347 N 
ATOM     15  H1  UNL     1       2.531   7.567  19.011  1.00  0.00     0.167 HD
BRANCH  14  16
HETATM   16  C6  UNL     1       2.915   6.460  17.354  1.00  0.00     0.131 C 
BRANCH  16  17
HETATM   17  C3  UNL     1       2.544   7.188  16.105  1.00  0.00     0.060 C 
BRANCH  17  18
HETATM   18  C2  UNL     1       3.699   7.013  15.084  1.00  0.00     0.008 C 
HETATM   19  C1  UNL     1       4.527   8.260  15.021  1.00  0.00     0.006 C 
ENDBRANCH  17  18
BRANCH  17  20
HETATM   20  C4  UNL     1       2.377   8.667  16.351  1.00  0.00     0.008 C 
HETATM   21  C5  UNL     1       0.985   9.057  16.789  1.00  0.00     0.006 C 
ENDBRANCH  17  20
ENDBRANCH  16  17
BRANCH  16  22
HETATM   22  O3  UNL     1       2.016   5.365  17.591  1.00  0.00    -0.265 OA
BRANCH  22  23
HETATM   23  C28 UNL     1       2.262   4.297  18.403  1.00  0.00     0.261 C 
HETATM   24  C29 UNL     1       1.200   3.574  19.162  1.00  0.00     0.126 C 
HETATM   25  O4  UNL     1       3.460   3.920  18.502  1.00  0.00    -0.265 OA
ENDBRANCH  22  23
ENDBRANCH  16  22
ENDBRANCH  14  16
ENDBRANCH   1  14
BRANCH   5  26
HETATM   26  C12 UNL     1       3.823  10.248  19.340  1.00  0.00     0.189 C 
BRANCH  26  27
HETATM   27  O1  UNL     1       3.613  11.575  19.163  1.00  0.00    -0.320 OA
BRANCH  27  28
HETATM   28  C13 UNL     1       3.197  12.411  18.192  1.00  0.00     0.263 C 
HETATM   29  O2  UNL     1       2.765  13.548  18.490  1.00  0.00    -0.265 OA
BRANCH  28  30
HETATM   30  C14 UNL     1       3.211  12.083  16.737  1.00  0.00     0.085 C 
HETATM   31  C15 UNL     1       2.296  13.020  16.021  1.00  0.00     0.014 C 
HETATM   32  C16 UNL     1       2.054  12.475  14.630  1.00  0.00     0.001 C 
HETATM   33  C17 UNL     1       3.228  11.633  14.198  1.00  0.00     0.000 C 
HETATM   34  C18 UNL     1       4.539  12.188  14.680  1.00  0.00     0.001 C 
HETATM   35  C19 UNL     1       4.596  12.207  16.192  1.00  0.00     0.014 C 
ENDBRANCH  28  30
ENDBRANCH  27  28
ENDBRANCH  26  27
ENDBRANCH   5  26
TORSDOF 11
ENDMDL
MODEL 5
REMARK VINA RESULT: -8.291773824      2.275      6.142
REMARK  11 active torsions:
REMARK  status: ('A' for Active; 'I' for Inactive)
REMARK    1  A    between atoms: C2_2  and  C3_3 
REMARK    2  A    between atoms: C3_3  and  C4_4 
REMARK    3  A    between atoms: C3_3  and  C6_6 
REMARK    4  A    between atoms: C6_6  and  N1_7 
REMARK    5  A    between atoms: C6_6  and  O3_32 
REMARK    6  A    between atoms: N1_7  and  C7_9 
REMARK    7  A    between atoms: C11_13  and  C12_14 
REMARK    8  A    between atoms: C12_14  and  O1_15 
REMARK    9  A    between atoms: O1_15  and  C13_16 
REMARK   10  A    between atoms: C13_16  and  C14_18 
REMARK   11  A    between atoms: O3_32  and  C28_33 
ROOT
HETATM    1  C7  UNL     1       5.326   7.266  17.968  1.00  0.00    -0.007 C 
HETATM    2  C8  UNL     1       5.562   5.996  17.232  1.00  0.00     0.053 C 
HETATM    3  C9  UNL     1       4.256   5.318  16.861  1.00  0.00     0.006 C 
HETATM    4  C10 UNL     1       3.606   4.993  18.190  1.00  0.00     0.012 C 
HETATM    5  C11 UNL     1       3.168   6.279  18.896  1.00  0.00    -0.009 C 
HETATM    6  C20 UNL     1       2.469   5.843  20.116  1.00  0.00     0.013 C 
HETATM    7  C21 UNL     1       3.307   5.121  21.156  1.00  0.00     0.005 C 
HETATM    8  C22 UNL     1       3.888   6.022  22.208  1.00  0.00    -0.015 C 
HETATM    9  C23 UNL     1       2.871   6.402  23.273  1.00  0.00     0.010 C 
HETATM   10  C24 UNL     1       4.621   7.197  21.650  1.00  0.00    -0.014 C 
HETATM   11  C25 UNL     1       5.752   7.523  22.606  1.00  0.00     0.010 C 
HETATM   12  C26 UNL     1       5.196   6.752  20.331  1.00  0.00     0.016 C 
HETATM   13  C27 UNL     1       4.382   7.130  19.147  1.00  0.00     0.042 C 
ENDROOT
BRANCH   1  14
HETATM   14  N1  UNL     1       5.152   8.390  17.191  1.00  0.00    -0.347 N 
ATOM     15  H1  UNL     1       4.189   8.570  16.907  1.00  0.00     0.167 HD
BRANCH  14  16
HETATM   16  C6  UNL     1       6.071   9.311  16.738  1.00  0.00     0.131 C 
BRANCH  16  17
HETATM   17  C3  UNL     1       6.558  10.436  17.589  1.00  0.00     0.060 C 
BRANCH  17  18
HETATM   18  C2  UNL     1       7.995  10.095  18.062  1.00  0.00     0.008 C 
HETATM   19  C1  UNL     1       8.511   8.895  17.329  1.00  0.00     0.006 C 
ENDBRANCH  17  18
BRANCH  17  20
HETATM   20  C4  UNL     1       5.704  10.612  18.820  1.00  0.00     0.008 C 
HETATM   21  C5  UNL     1       6.458  10.415  20.115  1.00  0.00     0.006 C 
ENDBRANCH  17  20
ENDBRANCH  16  17
BRANCH  16  22
HETATM   22  O3  UNL     1       5.817   9.759  15.397  1.00  0.00    -0.265 OA
BRANCH  22  23
HETATM   23  C28 UNL     1       5.405   8.973  14.361  1.00  0.00     0.261 C 
HETATM   24  C29 UNL     1       4.000   8.936  13.860  1.00  0.00     0.126 C 
HETATM   25  O4  UNL     1       6.278   8.248  13.814  1.00  0.00    -0.265 OA
ENDBRANCH  22  23
ENDBRANCH  16  22
ENDBRANCH  14  16
ENDBRANCH   1  14
BRANCH   5  26
HETATM   26  C12 UNL     1       2.256   7.075  18.003  1.00  0.00     0.189 C 
BRANCH  26  27
HETATM   27  O1  UNL     1       2.320   8.427  17.936  1.00  0.00    -0.320 OA
BRANCH  27  28
HETATM   28  C13 UNL     1       1.796   9.428  17.202  1.00  0.00     0.263 C 
HETATM   29  O2  UNL     1       0.618   9.343  16.785  1.00  0.00    -0.265 OA
BRANCH  28  30
HETATM   30  C14 UNL     1       2.526  10.674  16.835  1.00  0.00     0.085 C 
HETATM   31  C15 UNL     1       1.898  11.263  15.616  1.00  0.00     0.014 C 
HETATM   32  C16 UNL     1       2.835  12.313  15.059  1.00  0.00     0.001 C 
HETATM   33  C17 UNL     1       3.686  12.879  16.167  1.00  0.00     0.000 C 
HETATM   34  C18 UNL     1       2.930  13.010  17.460  1.00  0.00     0.001 C 
HETATM   35  C19 UNL     1       2.473  11.657  17.959  1.00  0.00     0.014 C 
ENDBRANCH  28  30
ENDBRANCH  27  28
ENDBRANCH  26  27
ENDBRANCH   5  26
TORSDOF 11
ENDMDL
