MODEL 1
REMARK VINA RESULT: -7.666952179      0.000      0.000
REMARK  8 active torsions:
REMARK  status: ('A' for Active; 'I' for Inactive)
REMARK    1  A    between atoms: N1_2  and  C2_3 
REMARK    2  A    between atoms: N1_2  and  C5_8 
REMARK    3  A    between atoms: C2_3  and  C3_4 
REMARK    4  A    between atoms: C3_4  and  C4_5 
REMARK    5  A    between atoms: C4_5  and  O1_6 
REMARK    6  A    between atoms: C6_11  and  N3_12 
REMARK    7  A    between atoms: C8_20  and  C9_21 
REMARK    8  A    between atoms: C11_28  and  N9_29 
ROOT
HETATM    1  C5  UNL     1      11.524  -9.851 -11.284  1.00  0.00     0.153 A 
HETATM    2  N2  UNL     1      10.681 -10.013 -10.214  1.00  0.00    -0.174 N 
ATOM      3  H2  UNL     1      10.288  -9.177  -9.781  1.00  0.00     0.186 HD
HETATM    4  C6  UNL     1      10.349 -11.190  -9.710  1.00  0.00     0.679 A 
HETATM    5  N4  UNL     1      10.852 -12.286 -10.258  1.00  0.00    -0.174 N 
ATOM      6  H4  UNL     1      10.603 -13.198  -9.875  1.00  0.00     0.186 HD
HETATM    7  C7  UNL     1      11.679 -12.217 -11.301  1.00  0.00     0.153 A 
HETATM    8  N5  UNL     1      12.313 -13.156 -12.001  1.00  0.00    -0.323 N 
ATOM      9  H5  UNL     1      12.245 -14.160 -11.833  1.00  0.00     0.169 HD
HETATM   10  C8  UNL     1      13.062 -12.574 -12.971  1.00  0.00     0.155 A 
HETATM   11  N11 UNL     1      12.880 -11.244 -12.864  1.00  0.00    -0.328 N 
HETATM   12  C12 UNL     1      13.486 -10.293 -13.748  1.00  0.00     0.158 C 
HETATM   13  C13 UNL     1      12.040 -10.975 -11.849  1.00  0.00     0.126 A 
ENDROOT
BRANCH  10  14
HETATM   14  C9  UNL     1      13.890 -13.348 -13.879  1.00  0.00     0.168 A 
HETATM   15  N6  UNL     1      13.517 -13.482 -15.183  1.00  0.00    -0.313 N 
HETATM   16  C10 UNL     1      14.235 -14.205 -16.045  1.00  0.00     0.208 A 
ATOM     17  H6  UNL     1      12.669 -13.018 -15.508  1.00  0.00     0.170 HD
HETATM   18  N7  UNL     1      13.823 -14.333 -17.419  1.00  0.00    -0.063 NA
HETATM   19  N8  UNL     1      15.351 -14.818 -15.629  1.00  0.00    -0.164 N 
HETATM   20  C11 UNL     1      15.778 -14.722 -14.335  1.00  0.00     0.679 A 
ATOM     21  H8  UNL     1      15.894 -15.368 -16.294  1.00  0.00     0.187 HD
HETATM   22  N10 UNL     1      14.998 -13.975 -13.531  1.00  0.00    -0.173 N 
ATOM     23  H10 UNL     1      15.291 -13.885 -12.558  1.00  0.00     0.186 HD
BRANCH  20  24
HETATM   24  N9  UNL     1      16.854 -15.317 -13.942  1.00  0.00    -0.234 N 
ATOM     25  H92 UNL     1      17.483 -15.821 -14.566  1.00  0.00     0.174 HD
ATOM     26  H91 UNL     1      17.133 -15.308 -12.961  1.00  0.00     0.174 HD
ENDBRANCH  20  24
ENDBRANCH  10  14
BRANCH   1  27
HETATM   27  N1  UNL     1      11.821  -8.523 -11.693  1.00  0.00    -0.349 N 
HETATM   28  C1  UNL     1      12.905  -7.837 -11.050  1.00  0.00     0.156 C 
BRANCH  27  29
HETATM   29  C2  UNL     1      10.919  -7.882 -12.574  1.00  0.00     0.067 C 
BRANCH  29  30
HETATM   30  C3  UNL     1      11.206  -6.727 -13.400  1.00  0.00     0.071 C 
BRANCH  30  31
HETATM   31  C4  UNL     1      11.656  -6.903 -14.791  1.00  0.00     0.169 C 
BRANCH  31  32
HETATM   32  O1  UNL     1      11.062  -6.166 -15.772  1.00  0.00    -0.401 OA
ATOM     33  H1  UNL     1      10.968  -6.546 -16.636  1.00  0.00     0.209 HD
ENDBRANCH  31  32
ENDBRANCH  30  31
ENDBRANCH  29  30
ENDBRANCH  27  29
ENDBRANCH   1  27
BRANCH   4  34
HETATM   34  N3  UNL     1       9.538 -11.307  -8.684  1.00  0.00    -0.234 N 
ATOM     35  H32 UNL     1       8.531 -11.287  -8.846  1.00  0.00     0.174 HD
ATOM     36  H31 UNL     1       9.882 -11.417  -7.730  1.00  0.00     0.174 HD
ENDBRANCH   4  34
TORSDOF 8
ENDMDL
MODEL 2
REMARK VINA RESULT: -7.447115946      0.695      1.803
REMARK  8 active torsions:
REMARK  status: ('A' for Active; 'I' for Inactive)
REMARK    1  A    between atoms: N1_2  and  C2_3 
REMARK    2  A    between atoms: N1_2  and  C5_8 
REMARK    3  A    between atoms: C2_3  and  C3_4 
REMARK    4  A    between atoms: C3_4  and  C4_5 
REMARK    5  A    between atoms: C4_5  and  O1_6 
REMARK    6  A    between atoms: C6_11  and  N3_12 
REMARK    7  A    between atoms: C8_20  and  C9_21 
REMARK    8  A    between atoms: C11_28  and  N9_29 
ROOT
HETATM    1  C5  UNL     1      11.491  -9.849 -10.999  1.00  0.00     0.153 A 
HETATM    2  N2  UNL     1      10.678 -10.069  -9.917  1.00  0.00    -0.174 N 
ATOM      3  H2  UNL     1      10.308  -9.258  -9.421  1.00  0.00     0.186 HD
HETATM    4  C6  UNL     1      10.347 -11.272  -9.478  1.00  0.00     0.679 A 
HETATM    5  N4  UNL     1      10.820 -12.337 -10.107  1.00  0.00    -0.174 N 
ATOM      6  H4  UNL     1      10.571 -13.268  -9.775  1.00  0.00     0.186 HD
HETATM    7  C7  UNL     1      11.616 -12.211 -11.168  1.00  0.00     0.153 A 
HETATM    8  N5  UNL     1      12.218 -13.111 -11.944  1.00  0.00    -0.323 N 
ATOM      9  H5  UNL     1      12.143 -14.123 -11.837  1.00  0.00     0.169 HD
HETATM   10  C8  UNL     1      12.945 -12.478 -12.898  1.00  0.00     0.155 A 
HETATM   11  N11 UNL     1      12.783 -11.154 -12.703  1.00  0.00    -0.328 N 
HETATM   12  C12 UNL     1      13.374 -10.157 -13.544  1.00  0.00     0.158 C 
HETATM   13  C13 UNL     1      11.977 -10.941 -11.649  1.00  0.00     0.126 A 
ENDROOT
BRANCH  10  14
HETATM   14  C9  UNL     1      13.737 -13.201 -13.877  1.00  0.00     0.168 A 
HETATM   15  N6  UNL     1      14.937 -13.735 -13.512  1.00  0.00    -0.313 N 
HETATM   16  C10 UNL     1      15.708 -14.386 -14.386  1.00  0.00     0.208 A 
ATOM     17  H6  UNL     1      15.252 -13.635 -12.548  1.00  0.00     0.170 HD
HETATM   18  N7  UNL     1      16.972 -14.943 -13.980  1.00  0.00    -0.063 NA
HETATM   19  N8  UNL     1      15.301 -14.523 -15.655  1.00  0.00    -0.164 N 
HETATM   20  C11 UNL     1      14.110 -14.011 -16.083  1.00  0.00     0.679 A 
ATOM     21  H8  UNL     1      15.896 -15.021 -16.317  1.00  0.00     0.187 HD
HETATM   22  N10 UNL     1      13.393 -13.370 -15.140  1.00  0.00    -0.173 N 
ATOM     23  H10 UNL     1      12.498 -12.976 -15.430  1.00  0.00     0.186 HD
BRANCH  20  24
HETATM   24  N9  UNL     1      13.727 -14.146 -17.308  1.00  0.00    -0.234 N 
ATOM     25  H92 UNL     1      12.764 -14.014 -17.619  1.00  0.00     0.174 HD
ATOM     26  H91 UNL     1      14.388 -14.397 -18.043  1.00  0.00     0.174 HD
ENDBRANCH  20  24
ENDBRANCH  10  14
BRANCH   1  27
HETATM   27  N1  UNL     1      11.792  -8.502 -11.334  1.00  0.00    -0.349 N 
HETATM   28  C1  UNL     1      12.858  -7.846 -10.630  1.00  0.00     0.156 C 
BRANCH  27  29
HETATM   29  C2  UNL     1      10.909  -7.820 -12.203  1.00  0.00     0.067 C 
BRANCH  29  30
HETATM   30  C3  UNL     1      11.279  -6.826 -13.190  1.00  0.00     0.071 C 
BRANCH  30  31
HETATM   31  C4  UNL     1      10.987  -5.402 -12.954  1.00  0.00     0.169 C 
BRANCH  31  32
HETATM   32  O1  UNL     1       9.948  -4.825 -13.621  1.00  0.00    -0.401 OA
ATOM     33  H1  UNL     1       9.727  -3.921 -13.430  1.00  0.00     0.209 HD
ENDBRANCH  31  32
ENDBRANCH  30  31
ENDBRANCH  29  30
ENDBRANCH  27  29
ENDBRANCH   1  27
BRANCH   4  34
HETATM   34  N3  UNL     1       9.565 -11.444  -8.437  1.00  0.00    -0.234 N 
ATOM     35  H32 UNL     1       8.554 -11.416  -8.568  1.00  0.00     0.174 HD
ATOM     36  H31 UNL     1       9.936 -11.606  -7.500  1.00  0.00     0.174 HD
ENDBRANCH   4  34
TORSDOF 8
ENDMDL
MODEL 3
REMARK VINA RESULT: -7.296533194      1.589      1.849
REMARK  8 active torsions:
REMARK  status: ('A' for Active; 'I' for Inactive)
REMARK    1  A    between atoms: N1_2  and  C2_3 
REMARK    2  A    between atoms: N1_2  and  C5_8 
REMARK    3  A    between atoms: C2_3  and  C3_4 
REMARK    4  A    between atoms: C3_4  and  C4_5 
REMARK    5  A    between atoms: C4_5  and  O1_6 
REMARK    6  A    between atoms: C6_11  and  N3_12 
REMARK    7  A    between atoms: C8_20  and  C9_21 
REMARK    8  A    between atoms: C11_28  and  N9_29 
ROOT
HETATM    1  C5  UNL     1      11.995 -10.361 -10.339  1.00  0.00     0.153 A 
HETATM    2  N2  UNL     1      10.700 -10.292  -9.896  1.00  0.00    -0.174 N 
ATOM      3  H2  UNL     1      10.478  -9.621  -9.160  1.00  0.00     0.186 HD
HETATM    4  C6  UNL     1       9.720 -11.047 -10.365  1.00  0.00     0.679 A 
HETATM    5  N4  UNL     1       9.989 -11.927 -11.318  1.00  0.00    -0.174 N 
ATOM      6  H4  UNL     1       9.240 -12.514 -11.685  1.00  0.00     0.186 HD
HETATM    7  C7  UNL     1      11.223 -12.057 -11.805  1.00  0.00     0.153 A 
HETATM    8  N5  UNL     1      11.734 -12.862 -12.734  1.00  0.00    -0.323 N 
ATOM      9  H5  UNL     1      11.208 -13.556 -13.265  1.00  0.00     0.169 HD
HETATM   10  C8  UNL     1      13.063 -12.621 -12.866  1.00  0.00     0.155 A 
HETATM   11  N11 UNL     1      13.372 -11.639 -11.996  1.00  0.00    -0.328 N 
HETATM   12  C12 UNL     1      14.687 -11.085 -11.871  1.00  0.00     0.158 C 
HETATM   13  C13 UNL     1      12.273 -11.262 -11.319  1.00  0.00     0.126 A 
ENDROOT
BRANCH  10  14
HETATM   14  C9  UNL     1      13.899 -13.369 -13.788  1.00  0.00     0.168 A 
HETATM   15  N6  UNL     1      13.545 -13.453 -15.101  1.00  0.00    -0.313 N 
HETATM   16  C10 UNL     1      14.271 -14.151 -15.978  1.00  0.00     0.208 A 
ATOM     17  H6  UNL     1      12.706 -12.971 -15.422  1.00  0.00     0.170 HD
HETATM   18  N7  UNL     1      13.880 -14.227 -17.362  1.00  0.00    -0.063 NA
HETATM   19  N8  UNL     1      15.375 -14.788 -15.566  1.00  0.00    -0.164 N 
HETATM   20  C11 UNL     1      15.783 -14.743 -14.263  1.00  0.00     0.679 A 
ATOM     21  H8  UNL     1      15.924 -15.320 -16.242  1.00  0.00     0.187 HD
HETATM   22  N10 UNL     1      14.996 -14.018 -13.445  1.00  0.00    -0.173 N 
ATOM     23  H10 UNL     1      15.274 -13.965 -12.465  1.00  0.00     0.186 HD
BRANCH  20  24
HETATM   24  N9  UNL     1      16.847 -15.360 -13.875  1.00  0.00    -0.234 N 
ATOM     25  H92 UNL     1      17.766 -15.228 -14.297  1.00  0.00     0.174 HD
ATOM     26  H91 UNL     1      16.818 -16.028 -13.104  1.00  0.00     0.174 HD
ENDBRANCH  20  24
ENDBRANCH  10  14
BRANCH   1  27
HETATM   27  N1  UNL     1      12.951  -9.515  -9.716  1.00  0.00    -0.349 N 
HETATM   28  C1  UNL     1      13.655 -10.011  -8.568  1.00  0.00     0.156 C 
BRANCH  27  29
HETATM   29  C2  UNL     1      13.021  -8.167 -10.139  1.00  0.00     0.067 C 
BRANCH  29  30
HETATM   30  C3  UNL     1      12.572  -7.648 -11.415  1.00  0.00     0.071 C 
BRANCH  30  31
HETATM   31  C4  UNL     1      11.315  -6.885 -11.504  1.00  0.00     0.169 C 
BRANCH  31  32
HETATM   32  O1  UNL     1      10.150  -7.494 -11.145  1.00  0.00    -0.401 OA
ATOM     33  H1  UNL     1       9.503  -7.676 -11.815  1.00  0.00     0.209 HD
ENDBRANCH  31  32
ENDBRANCH  30  31
ENDBRANCH  29  30
ENDBRANCH  27  29
ENDBRANCH   1  27
BRANCH   4  34
HETATM   34  N3  UNL     1       8.489 -10.953  -9.916  1.00  0.00    -0.234 N 
ATOM     35  H32 UNL     1       8.121 -10.034  -9.674  1.00  0.00     0.174 HD
ATOM     36  H31 UNL     1       7.890 -11.771  -9.801  1.00  0.00     0.174 HD
ENDBRANCH   4  34
TORSDOF 8
ENDMDL
MODEL 4
REMARK VINA RESULT: -7.257899523      2.906      3.629
REMARK  8 active torsions:
REMARK  status: ('A' for Active; 'I' for Inactive)
REMARK    1  A    between atoms: N1_2  and  C2_3 
REMARK    2  A    between atoms: N1_2  and  C5_8 
REMARK    3  A    between atoms: C2_3  and  C3_4 
REMARK    4  A    between atoms: C3_4  and  C4_5 
REMARK    5  A    between atoms: C4_5  and  O1_6 
REMARK    6  A    between atoms: C6_11  and  N3_12 
REMARK    7  A    between atoms: C8_20  and  C9_21 
REMARK    8  A    between atoms: C11_28  and  N9_29 
ROOT
HETATM    1  C5  UNL     1      12.139 -10.533 -10.150  1.00  0.00     0.153 A 
HETATM    2  N2  UNL     1      10.838 -10.411  -9.736  1.00  0.00    -0.174 N 
ATOM      3  H2  UNL     1      10.638  -9.783  -8.958  1.00  0.00     0.186 HD
HETATM    4  C6  UNL     1       9.826 -11.061 -10.288  1.00  0.00     0.679 A 
HETATM    5  N4  UNL     1      10.067 -11.883 -11.298  1.00  0.00    -0.174 N 
ATOM      6  H4  UNL     1       9.294 -12.390 -11.728  1.00  0.00     0.186 HD
HETATM    7  C7  UNL     1      11.304 -12.059 -11.761  1.00  0.00     0.153 A 
HETATM    8  N5  UNL     1      11.791 -12.825 -12.735  1.00  0.00    -0.323 N 
ATOM      9  H5  UNL     1      11.237 -13.440 -13.332  1.00  0.00     0.169 HD
HETATM   10  C8  UNL     1      13.136 -12.664 -12.814  1.00  0.00     0.155 A 
HETATM   11  N11 UNL     1      13.481 -11.773 -11.864  1.00  0.00    -0.328 N 
HETATM   12  C12 UNL     1      14.824 -11.319 -11.663  1.00  0.00     0.158 C 
HETATM   13  C13 UNL     1      12.389 -11.375 -11.189  1.00  0.00     0.126 A 
ENDROOT
BRANCH  10  14
HETATM   14  C9  UNL     1      13.950 -13.396 -13.768  1.00  0.00     0.168 A 
HETATM   15  N6  UNL     1      13.560 -13.464 -15.073  1.00  0.00    -0.313 N 
HETATM   16  C10 UNL     1      14.265 -14.147 -15.978  1.00  0.00     0.208 A 
ATOM     17  H6  UNL     1      12.711 -12.981 -15.364  1.00  0.00     0.170 HD
HETATM   18  N7  UNL     1      13.837 -14.205 -17.352  1.00  0.00    -0.063 NA
HETATM   19  N8  UNL     1      15.383 -14.784 -15.605  1.00  0.00    -0.164 N 
HETATM   20  C11 UNL     1      15.826 -14.754 -14.314  1.00  0.00     0.679 A 
ATOM     21  H8  UNL     1      15.915 -15.303 -16.303  1.00  0.00     0.187 HD
HETATM   22  N10 UNL     1      15.058 -14.044 -13.465  1.00  0.00    -0.173 N 
ATOM     23  H10 UNL     1      15.363 -14.004 -12.492  1.00  0.00     0.186 HD
BRANCH  20  24
HETATM   24  N9  UNL     1      16.903 -15.372 -13.963  1.00  0.00    -0.234 N 
ATOM     25  H92 UNL     1      17.796 -15.272 -14.444  1.00  0.00     0.174 HD
ATOM     26  H91 UNL     1      16.911 -16.006 -13.164  1.00  0.00     0.174 HD
ENDBRANCH  20  24
ENDBRANCH  10  14
BRANCH   1  27
HETATM   27  N1  UNL     1      13.128  -9.802  -9.439  1.00  0.00    -0.349 N 
HETATM   28  C1  UNL     1      13.598  -8.566  -9.999  1.00  0.00     0.156 C 
BRANCH  27  29
HETATM   29  C2  UNL     1      13.731 -10.418  -8.319  1.00  0.00     0.067 C 
BRANCH  29  30
HETATM   30  C3  UNL     1      15.150 -10.639  -8.125  1.00  0.00     0.071 C 
BRANCH  30  31
HETATM   31  C4  UNL     1      15.653 -11.984  -7.796  1.00  0.00     0.169 C 
BRANCH  31  32
HETATM   32  O1  UNL     1      16.192 -12.745  -8.790  1.00  0.00    -0.401 OA
ATOM     33  H1  UNL     1      16.320 -13.673  -8.637  1.00  0.00     0.209 HD
ENDBRANCH  31  32
ENDBRANCH  30  31
ENDBRANCH  29  30
ENDBRANCH  27  29
ENDBRANCH   1  27
BRANCH   4  34
HETATM   34  N3  UNL     1       8.591 -10.919  -9.864  1.00  0.00    -0.234 N 
ATOM     35  H32 UNL     1       7.898 -10.510 -10.491  1.00  0.00     0.174 HD
ATOM     36  H31 UNL     1       8.302 -11.204  -8.928  1.00  0.00     0.174 HD
ENDBRANCH   4  34
TORSDOF 8
ENDMDL
MODEL 5
REMARK VINA RESULT: -7.245403444      2.262      2.472
REMARK  8 active torsions:
REMARK  status: ('A' for Active; 'I' for Inactive)
REMARK    1  A    between atoms: N1_2  and  C2_3 
REMARK    2  A    between atoms: N1_2  and  C5_8 
REMARK    3  A    between atoms: C2_3  and  C3_4 
REMARK    4  A    between atoms: C3_4  and  C4_5 
REMARK    5  A    between atoms: C4_5  and  O1_6 
REMARK    6  A    between atoms: C6_11  and  N3_12 
REMARK    7  A    between atoms: C8_20  and  C9_21 
REMARK    8  A    between atoms: C11_28  and  N9_29 
ROOT
HETATM    1  C5  UNL     1      12.084 -10.511 -10.128  1.00  0.00     0.153 A 
HETATM    2  N2  UNL     1      10.782 -10.405  -9.712  1.00  0.00    -0.174 N 
ATOM      3  H2  UNL     1      10.575  -9.775  -8.936  1.00  0.00     0.186 HD
HETATM    4  C6  UNL     1       9.778 -11.072 -10.257  1.00  0.00     0.679 A 
HETATM    5  N4  UNL     1      10.028 -11.896 -11.263  1.00  0.00    -0.174 N 
ATOM      6  H4  UNL     1       9.260 -12.416 -11.689  1.00  0.00     0.186 HD
HETATM    7  C7  UNL     1      11.266 -12.058 -11.728  1.00  0.00     0.153 A 
HETATM    8  N5  UNL     1      11.761 -12.823 -12.699  1.00  0.00    -0.323 N 
ATOM      9  H5  UNL     1      11.214 -13.449 -13.291  1.00  0.00     0.169 HD
HETATM   10  C8  UNL     1      13.104 -12.645 -12.781  1.00  0.00     0.155 A 
HETATM   11  N11 UNL     1      13.439 -11.744 -11.837  1.00  0.00    -0.328 N 
HETATM   12  C12 UNL     1      14.776 -11.270 -11.642  1.00  0.00     0.158 C 
HETATM   13  C13 UNL     1      12.343 -11.356 -11.162  1.00  0.00     0.126 A 
ENDROOT
BRANCH  10  14
HETATM   14  C9  UNL     1      13.925 -13.371 -13.733  1.00  0.00     0.168 A 
HETATM   15  N6  UNL     1      13.548 -13.429 -15.042  1.00  0.00    -0.313 N 
HETATM   16  C10 UNL     1      14.260 -14.106 -15.945  1.00  0.00     0.208 A 
ATOM     17  H6  UNL     1      12.702 -12.943 -15.338  1.00  0.00     0.170 HD
HETATM   18  N7  UNL     1      13.845 -14.154 -17.323  1.00  0.00    -0.063 NA
HETATM   19  N8  UNL     1      15.373 -14.748 -15.566  1.00  0.00    -0.164 N 
HETATM   20  C11 UNL     1      15.804 -14.728 -14.271  1.00  0.00     0.679 A 
ATOM     21  H8  UNL     1      15.912 -15.263 -16.263  1.00  0.00     0.187 HD
HETATM   22  N10 UNL     1      15.030 -14.023 -13.424  1.00  0.00    -0.173 N 
ATOM     23  H10 UNL     1      15.326 -13.990 -12.448  1.00  0.00     0.186 HD
BRANCH  20  24
HETATM   24  N9  UNL     1      16.877 -15.350 -13.914  1.00  0.00    -0.234 N 
ATOM     25  H92 UNL     1      16.878 -16.202 -13.353  1.00  0.00     0.174 HD
ATOM     26  H91 UNL     1      17.799 -15.010 -14.185  1.00  0.00     0.174 HD
ENDBRANCH  20  24
ENDBRANCH  10  14
BRANCH   1  27
HETATM   27  N1  UNL     1      13.064  -9.763  -9.423  1.00  0.00    -0.349 N 
HETATM   28  C1  UNL     1      13.735 -10.386  -8.318  1.00  0.00     0.156 C 
BRANCH  27  29
HETATM   29  C2  UNL     1      13.192  -8.387  -9.724  1.00  0.00     0.067 C 
BRANCH  29  30
HETATM   30  C3  UNL     1      14.009  -7.814 -10.775  1.00  0.00     0.071 C 
BRANCH  30  31
HETATM   31  C4  UNL     1      15.454  -7.617 -10.566  1.00  0.00     0.169 C 
BRANCH  31  32
HETATM   32  O1  UNL     1      16.321  -8.059 -11.521  1.00  0.00    -0.401 OA
ATOM     33  H1  UNL     1      17.254  -7.998 -11.355  1.00  0.00     0.209 HD
ENDBRANCH  31  32
ENDBRANCH  30  31
ENDBRANCH  29  30
ENDBRANCH  27  29
ENDBRANCH   1  27
BRANCH   4  34
HETATM   34  N3  UNL     1       8.542 -10.943  -9.832  1.00  0.00    -0.234 N 
ATOM     35  H32 UNL     1       8.005 -11.783  -9.615  1.00  0.00     0.174 HD
ATOM     36  H31 UNL     1       8.102 -10.031  -9.711  1.00  0.00     0.174 HD
ENDBRANCH   4  34
TORSDOF 8
ENDMDL
