MODEL 1
REMARK VINA RESULT: -6.957623660      0.000      0.000
REMARK  10 active torsions:
REMARK  status: ('A' for Active; 'I' for Inactive)
REMARK    1  A    between atoms: C2_3  and  C3_4 
REMARK    2  A    between atoms: C3_4  and  O1_5 
REMARK    3  A    between atoms: C4_8  and  S1_9 
REMARK    4  A    between atoms: S1_9  and  S2_10 
REMARK    5  A    between atoms: S2_10  and  C5_11 
REMARK    6  A    between atoms: C6_14  and  N3_15 
REMARK    7  A    between atoms: C7_20  and  N5_21 
REMARK    8  A    between atoms: C8_27  and  O4_28 
REMARK    9  A    between atoms: C8_27  and  C9_30 
REMARK   10  A    between atoms: C9_30  and  O5_31 
ROOT
HETATM    1  N1  UNL     1       8.947 -11.919  -9.347  1.00  0.00    -0.197 NA
HETATM    2  C1  UNL     1       9.961 -11.615  -9.819  1.00  0.00     0.064 C 
HETATM    3  C2  UNL     1      11.221 -11.210 -10.399  1.00  0.00     0.198 C 
ENDROOT
BRANCH   3   4
HETATM    4  C3  UNL     1      11.427 -11.655 -11.811  1.00  0.00     0.237 C 
HETATM    5  O2  UNL     1      11.835 -10.587 -12.605  1.00  0.00    -0.309 OA
HETATM    6  C4  UNL     1      13.181 -10.456 -12.397  1.00  0.00     0.344 C 
HETATM    7  O3  UNL     1      13.642 -11.564 -11.673  1.00  0.00    -0.308 OA
HETATM    8  C8  UNL     1      12.655 -12.532 -11.879  1.00  0.00     0.245 C 
BRANCH   4   9
HETATM    9  O1  UNL     1      10.328 -12.313 -12.343  1.00  0.00    -0.360 OA
ATOM     10  H1  UNL     1       9.917 -12.912 -11.731  1.00  0.00     0.213 HD
ENDBRANCH   4   9
BRANCH   6  11
HETATM   11  S1  UNL     1      13.491  -8.892 -11.539  1.00  0.00    -0.029 SA
BRANCH  11  12
HETATM   12  S2  UNL     1      11.781  -7.631 -11.664  1.00  0.00    -0.015 SA
BRANCH  12  13
HETATM   13  C5  UNL     1      11.844  -6.788 -13.241  1.00  0.00     0.185 A 
HETATM   14  N2  UNL     1      12.993  -6.816 -13.939  1.00  0.00    -0.169 N 
HETATM   15  C6  UNL     1      13.099  -6.206 -15.119  1.00  0.00     0.692 A 
ATOM     16  H2  UNL     1      13.799  -7.313 -13.559  1.00  0.00     0.186 HD
HETATM   17  N4  UNL     1      12.022  -5.557 -15.600  1.00  0.00    -0.023 N 
HETATM   18  C7  UNL     1      10.852  -5.502 -14.935  1.00  0.00     0.692 A 
ATOM     19  H4  UNL     1      12.096  -5.088 -16.503  1.00  0.00     0.203 HD
HETATM   20  N6  UNL     1      10.780  -6.127 -13.750  1.00  0.00    -0.169 N 
ATOM     21  H6  UNL     1       9.907  -6.104 -13.224  1.00  0.00     0.186 HD
BRANCH  15  22
HETATM   22  N3  UNL     1      14.215  -6.237 -15.788  1.00  0.00    -0.234 N 
ATOM     23  H32 UNL     1      14.450  -5.499 -16.451  1.00  0.00     0.174 HD
ATOM     24  H31 UNL     1      14.877  -7.003 -15.661  1.00  0.00     0.174 HD
ENDBRANCH  15  22
BRANCH  18  25
HETATM   25  N5  UNL     1       9.810  -4.888 -15.375  1.00  0.00    -0.234 N 
ATOM     26  H52 UNL     1       9.212  -5.361 -16.052  1.00  0.00     0.174 HD
ATOM     27  H51 UNL     1       9.544  -3.947 -15.085  1.00  0.00     0.174 HD
ENDBRANCH  18  25
ENDBRANCH  12  13
ENDBRANCH  11  12
ENDBRANCH   6  11
BRANCH   8  28
HETATM   28  O4  UNL     1      12.647 -13.536 -10.960  1.00  0.00    -0.359 OA
ATOM     29  H4  UNL     1      13.517 -13.843 -10.735  1.00  0.00     0.213 HD
ENDBRANCH   8  28
BRANCH   8  30
HETATM   30  C9  UNL     1      12.769 -13.019 -13.308  1.00  0.00     0.238 C 
BRANCH  30  31
HETATM   31  O5  UNL     1      12.136 -14.234 -13.493  1.00  0.00    -0.395 OA
ATOM     32  H5  UNL     1      11.831 -14.344 -14.386  1.00  0.00     0.209 HD
ENDBRANCH  30  31
ENDBRANCH   8  30
ENDBRANCH   3   4
TORSDOF 10
ENDMDL
MODEL 2
REMARK VINA RESULT: -6.957550762      0.089      1.718
REMARK  10 active torsions:
REMARK  status: ('A' for Active; 'I' for Inactive)
REMARK    1  A    between atoms: C2_3  and  C3_4 
REMARK    2  A    between atoms: C3_4  and  O1_5 
REMARK    3  A    between atoms: C4_8  and  S1_9 
REMARK    4  A    between atoms: S1_9  and  S2_10 
REMARK    5  A    between atoms: S2_10  and  C5_11 
REMARK    6  A    between atoms: C6_14  and  N3_15 
REMARK    7  A    between atoms: C7_20  and  N5_21 
REMARK    8  A    between atoms: C8_27  and  O4_28 
REMARK    9  A    between atoms: C8_27  and  C9_30 
REMARK   10  A    between atoms: C9_30  and  O5_31 
ROOT
HETATM    1  N1  UNL     1       8.983 -12.196  -9.336  1.00  0.00    -0.197 NA
HETATM    2  C1  UNL     1       9.948 -11.767  -9.813  1.00  0.00     0.064 C 
HETATM    3  C2  UNL     1      11.144 -11.206 -10.400  1.00  0.00     0.198 C 
ENDROOT
BRANCH   3   4
HETATM    4  C3  UNL     1      11.410 -11.644 -11.804  1.00  0.00     0.237 C 
HETATM    5  O2  UNL     1      11.848 -10.570 -12.576  1.00  0.00    -0.309 OA
HETATM    6  C4  UNL     1      13.183 -10.436 -12.311  1.00  0.00     0.344 C 
HETATM    7  O3  UNL     1      13.617 -11.546 -11.573  1.00  0.00    -0.308 OA
HETATM    8  C8  UNL     1      12.644 -12.516 -11.825  1.00  0.00     0.245 C 
BRANCH   4   9
HETATM    9  O1  UNL     1      10.338 -12.303 -12.385  1.00  0.00    -0.360 OA
ATOM     10  H1  UNL     1      10.574 -13.142 -12.765  1.00  0.00     0.213 HD
ENDBRANCH   4   9
BRANCH   6  11
HETATM   11  S1  UNL     1      13.450  -8.875 -11.433  1.00  0.00    -0.029 SA
BRANCH  11  12
HETATM   12  S2  UNL     1      11.759  -7.602 -11.660  1.00  0.00    -0.015 SA
BRANCH  12  13
HETATM   13  C5  UNL     1      11.898  -6.795 -13.252  1.00  0.00     0.185 A 
HETATM   14  N2  UNL     1      10.824  -6.149 -13.740  1.00  0.00    -0.169 N 
HETATM   15  C6  UNL     1      10.869  -5.531 -14.920  1.00  0.00     0.692 A 
ATOM     16  H2  UNL     1       9.960  -6.132 -13.199  1.00  0.00     0.186 HD
HETATM   17  N4  UNL     1      12.021  -5.567 -15.615  1.00  0.00    -0.023 N 
HETATM   18  C7  UNL     1      13.120  -6.202 -15.165  1.00  0.00     0.692 A 
ATOM     19  H4  UNL     1      12.062  -5.095 -16.518  1.00  0.00     0.203 HD
HETATM   20  N6  UNL     1      13.040  -6.814 -13.974  1.00  0.00    -0.169 N 
ATOM     21  H6  UNL     1      13.857  -7.303 -13.607  1.00  0.00     0.186 HD
BRANCH  15  22
HETATM   22  N3  UNL     1       9.825  -4.909 -15.386  1.00  0.00    -0.234 N 
ATOM     23  H32 UNL     1       9.838  -3.899 -15.534  1.00  0.00     0.174 HD
ATOM     24  H31 UNL     1       8.971  -5.419 -15.612  1.00  0.00     0.174 HD
ENDBRANCH  15  22
BRANCH  18  25
HETATM   25  N5  UNL     1      14.231  -6.250 -15.812  1.00  0.00    -0.234 N 
ATOM     26  H52 UNL     1      14.240  -6.670 -16.741  1.00  0.00     0.174 HD
ATOM     27  H51 UNL     1      15.114  -5.890 -15.448  1.00  0.00     0.174 HD
ENDBRANCH  18  25
ENDBRANCH  12  13
ENDBRANCH  11  12
ENDBRANCH   6  11
BRANCH   8  28
HETATM   28  O4  UNL     1      12.601 -13.524 -10.912  1.00  0.00    -0.359 OA
ATOM     29  H4  UNL     1      11.777 -13.568 -10.442  1.00  0.00     0.213 HD
ENDBRANCH   8  28
BRANCH   8  30
HETATM   30  C9  UNL     1      12.819 -12.996 -13.250  1.00  0.00     0.238 C 
BRANCH  30  31
HETATM   31  O5  UNL     1      12.149 -14.182 -13.483  1.00  0.00    -0.395 OA
ATOM     32  H5  UNL     1      11.872 -14.599 -12.676  1.00  0.00     0.209 HD
ENDBRANCH  30  31
ENDBRANCH   8  30
ENDBRANCH   3   4
TORSDOF 10
ENDMDL
MODEL 3
REMARK VINA RESULT: -6.852858791      1.732      2.742
REMARK  10 active torsions:
REMARK  status: ('A' for Active; 'I' for Inactive)
REMARK    1  A    between atoms: C2_3  and  C3_4 
REMARK    2  A    between atoms: C3_4  and  O1_5 
REMARK    3  A    between atoms: C4_8  and  S1_9 
REMARK    4  A    between atoms: S1_9  and  S2_10 
REMARK    5  A    between atoms: S2_10  and  C5_11 
REMARK    6  A    between atoms: C6_14  and  N3_15 
REMARK    7  A    between atoms: C7_20  and  N5_21 
REMARK    8  A    between atoms: C8_27  and  O4_28 
REMARK    9  A    between atoms: C8_27  and  C9_30 
REMARK   10  A    between atoms: C9_30  and  O5_31 
ROOT
HETATM    1  N1  UNL     1      13.045 -13.756 -13.981  1.00  0.00    -0.197 NA
HETATM    2  C1  UNL     1      12.794 -12.802 -13.374  1.00  0.00     0.064 C 
HETATM    3  C2  UNL     1      12.504 -11.601 -12.622  1.00  0.00     0.198 C 
ENDROOT
BRANCH   3   4
HETATM    4  C3  UNL     1      12.033 -11.842 -11.224  1.00  0.00     0.237 C 
HETATM    5  O2  UNL     1      12.697 -11.003 -10.334  1.00  0.00    -0.309 OA
HETATM    6  C4  UNL     1      12.052  -9.799 -10.398  1.00  0.00     0.344 C 
HETATM    7  O3  UNL     1      10.869  -9.952 -11.135  1.00  0.00    -0.308 OA
HETATM    8  C8  UNL     1      10.620 -11.326 -11.084  1.00  0.00     0.245 C 
BRANCH   4   9
HETATM    9  O1  UNL     1      12.105 -13.173 -10.844  1.00  0.00    -0.360 OA
ATOM     10  H1  UNL     1      11.864 -13.318  -9.936  1.00  0.00     0.213 HD
ENDBRANCH   4   9
BRANCH   6  11
HETATM   11  S1  UNL     1      13.169  -8.576 -11.130  1.00  0.00    -0.029 SA
BRANCH  11  12
HETATM   12  S2  UNL     1      12.208  -6.680 -11.252  1.00  0.00    -0.015 SA
BRANCH  12  13
HETATM   13  C5  UNL     1      12.090  -6.244 -12.984  1.00  0.00     0.185 A 
HETATM   14  N2  UNL     1      13.168  -6.426 -13.768  1.00  0.00    -0.169 N 
HETATM   15  C6  UNL     1      13.138  -6.119 -15.064  1.00  0.00     0.692 A 
ATOM     16  H2  UNL     1      14.024  -6.805 -13.362  1.00  0.00     0.186 HD
HETATM   17  N4  UNL     1      11.998  -5.620 -15.575  1.00  0.00    -0.023 N 
HETATM   18  C7  UNL     1      10.894  -5.421 -14.828  1.00  0.00     0.692 A 
ATOM     19  H4  UNL     1      11.968  -5.383 -16.567  1.00  0.00     0.203 HD
HETATM   20  N6  UNL     1      10.959  -5.741 -13.527  1.00  0.00    -0.169 N 
ATOM     21  H6  UNL     1      10.139  -5.602 -12.937  1.00  0.00     0.186 HD
BRANCH  15  22
HETATM   22  N3  UNL     1      14.187  -6.297 -15.815  1.00  0.00    -0.234 N 
ATOM     23  H32 UNL     1      14.556  -7.232 -15.987  1.00  0.00     0.174 HD
ATOM     24  H31 UNL     1      14.661  -5.503 -16.246  1.00  0.00     0.174 HD
ENDBRANCH  15  22
BRANCH  18  25
HETATM   25  N5  UNL     1       9.794  -4.946 -15.295  1.00  0.00    -0.234 N 
ATOM     26  H52 UNL     1       9.231  -5.529 -15.914  1.00  0.00     0.174 HD
ATOM     27  H51 UNL     1       9.446  -4.011 -15.082  1.00  0.00     0.174 HD
ENDBRANCH  18  25
ENDBRANCH  12  13
ENDBRANCH  11  12
ENDBRANCH   6  11
BRANCH   8  28
HETATM   28  O4  UNL     1       9.784 -11.785 -12.054  1.00  0.00    -0.359 OA
ATOM     29  H4  UNL     1       9.244 -12.513 -11.769  1.00  0.00     0.213 HD
ENDBRANCH   8  28
BRANCH   8  30
HETATM   30  C9  UNL     1      10.165 -11.667  -9.681  1.00  0.00     0.238 C 
BRANCH  30  31
HETATM   31  O5  UNL     1       9.705 -12.967  -9.587  1.00  0.00    -0.395 OA
ATOM     32  H5  UNL     1       9.731 -13.291  -8.694  1.00  0.00     0.209 HD
ENDBRANCH  30  31
ENDBRANCH   8  30
ENDBRANCH   3   4
TORSDOF 10
ENDMDL
MODEL 4
REMARK VINA RESULT: -6.842519909      1.732      3.235
REMARK  10 active torsions:
REMARK  status: ('A' for Active; 'I' for Inactive)
REMARK    1  A    between atoms: C2_3  and  C3_4 
REMARK    2  A    between atoms: C3_4  and  O1_5 
REMARK    3  A    between atoms: C4_8  and  S1_9 
REMARK    4  A    between atoms: S1_9  and  S2_10 
REMARK    5  A    between atoms: S2_10  and  C5_11 
REMARK    6  A    between atoms: C6_14  and  N3_15 
REMARK    7  A    between atoms: C7_20  and  N5_21 
REMARK    8  A    between atoms: C8_27  and  O4_28 
REMARK    9  A    between atoms: C8_27  and  C9_30 
REMARK   10  A    between atoms: C9_30  and  O5_31 
ROOT
HETATM    1  N1  UNL     1      13.052 -13.746 -13.975  1.00  0.00    -0.197 NA
HETATM    2  C1  UNL     1      12.792 -12.795 -13.366  1.00  0.00     0.064 C 
HETATM    3  C2  UNL     1      12.492 -11.597 -12.614  1.00  0.00     0.198 C 
ENDROOT
BRANCH   3   4
HETATM    4  C3  UNL     1      12.019 -11.844 -11.217  1.00  0.00     0.237 C 
HETATM    5  O2  UNL     1      12.680 -11.006 -10.323  1.00  0.00    -0.309 OA
HETATM    6  C4  UNL     1      12.031  -9.804 -10.385  1.00  0.00     0.344 C 
HETATM    7  O3  UNL     1      10.850  -9.958 -11.123  1.00  0.00    -0.308 OA
HETATM    8  C8  UNL     1      10.605 -11.333 -11.077  1.00  0.00     0.245 C 
BRANCH   4   9
HETATM    9  O1  UNL     1      12.095 -13.176 -10.841  1.00  0.00    -0.360 OA
ATOM     10  H1  UNL     1      12.283 -13.295  -9.917  1.00  0.00     0.213 HD
ENDBRANCH   4   9
BRANCH   6  11
HETATM   11  S1  UNL     1      13.145  -8.575 -11.112  1.00  0.00    -0.029 SA
BRANCH  11  12
HETATM   12  S2  UNL     1      12.159  -6.696 -11.283  1.00  0.00    -0.015 SA
BRANCH  12  13
HETATM   13  C5  UNL     1      12.116  -6.264 -13.019  1.00  0.00     0.185 A 
HETATM   14  N2  UNL     1      10.977  -5.759 -13.527  1.00  0.00    -0.169 N 
HETATM   15  C6  UNL     1      10.887  -5.420 -14.812  1.00  0.00     0.692 A 
ATOM     16  H2  UNL     1      10.169  -5.634 -12.918  1.00  0.00     0.186 HD
HETATM   17  N4  UNL     1      11.967  -5.594 -15.596  1.00  0.00    -0.023 N 
HETATM   18  C7  UNL     1      13.127  -6.096 -15.130  1.00  0.00     0.692 A 
ATOM     19  H4  UNL     1      11.905  -5.336 -16.580  1.00  0.00     0.203 HD
HETATM   20  N6  UNL     1      13.184  -6.427 -13.831  1.00  0.00    -0.169 N 
ATOM     21  H6  UNL     1      14.049  -6.809 -13.450  1.00  0.00     0.186 HD
BRANCH  15  22
HETATM   22  N3  UNL     1       9.780  -4.933 -15.296  1.00  0.00    -0.234 N 
ATOM     23  H32 UNL     1       8.879  -5.160 -14.876  1.00  0.00     0.174 HD
ATOM     24  H31 UNL     1       9.794  -4.314 -16.107  1.00  0.00     0.174 HD
ENDBRANCH  15  22
BRANCH  18  25
HETATM   25  N5  UNL     1      14.172  -6.271 -15.859  1.00  0.00    -0.234 N 
ATOM     26  H52 UNL     1      14.193  -5.861 -16.793  1.00  0.00     0.174 HD
ATOM     27  H51 UNL     1      14.990  -6.802 -15.558  1.00  0.00     0.174 HD
ENDBRANCH  18  25
ENDBRANCH  12  13
ENDBRANCH  11  12
ENDBRANCH   6  11
BRANCH   8  28
HETATM   28  O4  UNL     1       9.771 -11.791 -12.050  1.00  0.00    -0.359 OA
ATOM     29  H4  UNL     1       9.373 -11.096 -12.559  1.00  0.00     0.213 HD
ENDBRANCH   8  28
BRANCH   8  30
HETATM   30  C9  UNL     1      10.149 -11.680  -9.676  1.00  0.00     0.238 C 
BRANCH  30  31
HETATM   31  O5  UNL     1       9.691 -12.981  -9.587  1.00  0.00    -0.395 OA
ATOM     32  H5  UNL     1       9.680 -13.294  -8.690  1.00  0.00     0.209 HD
ENDBRANCH  30  31
ENDBRANCH   8  30
ENDBRANCH   3   4
TORSDOF 10
ENDMDL
MODEL 5
REMARK VINA RESULT: -6.833407995      2.029      3.121
REMARK  10 active torsions:
REMARK  status: ('A' for Active; 'I' for Inactive)
REMARK    1  A    between atoms: C2_3  and  C3_4 
REMARK    2  A    between atoms: C3_4  and  O1_5 
REMARK    3  A    between atoms: C4_8  and  S1_9 
REMARK    4  A    between atoms: S1_9  and  S2_10 
REMARK    5  A    between atoms: S2_10  and  C5_11 
REMARK    6  A    between atoms: C6_14  and  N3_15 
REMARK    7  A    between atoms: C7_20  and  N5_21 
REMARK    8  A    between atoms: C8_27  and  O4_28 
REMARK    9  A    between atoms: C8_27  and  C9_30 
REMARK   10  A    between atoms: C9_30  and  O5_31 
ROOT
HETATM    1  N1  UNL     1      15.810 -12.179  -9.740  1.00  0.00    -0.197 NA
HETATM    2  C1  UNL     1      15.094 -11.526 -10.374  1.00  0.00     0.064 C 
HETATM    3  C2  UNL     1      14.212 -10.687 -11.156  1.00  0.00     0.198 C 
ENDROOT
BRANCH   3   4
HETATM    4  C3  UNL     1      12.765 -11.052 -11.062  1.00  0.00     0.237 C 
HETATM    5  O2  UNL     1      12.074 -10.116 -10.298  1.00  0.00    -0.309 OA
HETATM    6  C4  UNL     1      11.808  -9.068 -11.136  1.00  0.00     0.344 C 
HETATM    7  O3  UNL     1      12.118  -9.443 -12.451  1.00  0.00    -0.308 OA
HETATM    8  C8  UNL     1      12.114 -10.840 -12.409  1.00  0.00     0.245 C 
BRANCH   4   9
HETATM    9  O1  UNL     1      12.555 -12.349 -10.619  1.00  0.00    -0.360 OA
ATOM     10  H1  UNL     1      11.865 -12.416  -9.968  1.00  0.00     0.213 HD
ENDBRANCH   4   9
BRANCH   6  11
HETATM   11  S1  UNL     1      12.755  -7.625 -10.588  1.00  0.00    -0.029 SA
BRANCH  11  12
HETATM   12  S2  UNL     1      11.858  -5.836 -11.312  1.00  0.00    -0.015 SA
BRANCH  12  13
HETATM   13  C5  UNL     1      11.734  -5.975 -13.092  1.00  0.00     0.185 A 
HETATM   14  N2  UNL     1      10.728  -5.337 -13.718  1.00  0.00    -0.169 N 
HETATM   15  C6  UNL     1      10.586  -5.405 -15.040  1.00  0.00     0.692 A 
ATOM     16  H2  UNL     1      10.062  -4.792 -13.169  1.00  0.00     0.186 HD
HETATM   17  N4  UNL     1      11.477  -6.130 -15.741  1.00  0.00    -0.023 N 
HETATM   18  C7  UNL     1      12.499  -6.785 -15.157  1.00  0.00     0.692 A 
ATOM     19  H4  UNL     1      11.374  -6.185 -16.755  1.00  0.00     0.203 HD
HETATM   20  N6  UNL     1      12.612  -6.695 -13.824  1.00  0.00    -0.169 N 
ATOM     21  H6  UNL     1      13.377  -7.180 -13.353  1.00  0.00     0.186 HD
BRANCH  15  22
HETATM   22  N3  UNL     1       9.609  -4.785 -15.638  1.00  0.00    -0.234 N 
ATOM     23  H32 UNL     1       9.714  -4.436 -16.591  1.00  0.00     0.174 HD
ATOM     24  H31 UNL     1       8.718  -4.635 -15.163  1.00  0.00     0.174 HD
ENDBRANCH  15  22
BRANCH  18  25
HETATM   25  N5  UNL     1      13.362  -7.483 -15.806  1.00  0.00    -0.234 N 
ATOM     26  H52 UNL     1      13.033  -8.112 -16.539  1.00  0.00     0.174 HD
ATOM     27  H51 UNL     1      14.366  -7.448 -15.630  1.00  0.00     0.174 HD
ENDBRANCH  18  25
ENDBRANCH  12  13
ENDBRANCH  11  12
ENDBRANCH   6  11
BRANCH   8  28
HETATM   28  O4  UNL     1      12.788 -11.438 -13.429  1.00  0.00    -0.359 OA
ATOM     29  H4  UNL     1      12.329 -11.390 -14.259  1.00  0.00     0.213 HD
ENDBRANCH   8  28
BRANCH   8  30
HETATM   30  C9  UNL     1      10.678 -11.300 -12.280  1.00  0.00     0.238 C 
BRANCH  30  31
HETATM   31  O5  UNL     1      10.557 -12.669 -12.424  1.00  0.00    -0.395 OA
ATOM     32  H5  UNL     1       9.649 -12.942 -12.487  1.00  0.00     0.209 HD
ENDBRANCH  30  31
ENDBRANCH   8  30
ENDBRANCH   3   4
TORSDOF 10
ENDMDL
