MODEL 1
REMARK VINA RESULT: -7.127319430      0.000      0.000
REMARK  8 active torsions:
REMARK  status: ('A' for Active; 'I' for Inactive)
REMARK    1  A    between atoms: C2_2  and  N1_3 
REMARK    2  A    between atoms: N1_3  and  C3_4 
REMARK    3  A    between atoms: N1_3  and  C10_30 
REMARK    4  A    between atoms: C3_4  and  C4_5 
REMARK    5  A    between atoms: C4_5  and  O1_6 
REMARK    6  A    between atoms: N2_9  and  O2_10 
REMARK    7  A    between atoms: C8_16  and  N5_17 
REMARK    8  A    between atoms: C8_16  and  C9_21 
ROOT
HETATM    1  C4  UNL     1      12.415 -11.906 -11.612  1.00  0.00     0.152 C 
HETATM    2  C5  UNL     1      12.731 -10.685 -10.805  1.00  0.00     0.203 C 
HETATM    3  N2  UNL     1      13.122  -9.578 -11.661  1.00  0.00    -0.227 N 
HETATM    4  C7  UNL     1      13.092  -9.661 -13.081  1.00  0.00     0.212 C 
HETATM    5  N3  UNL     1      12.905  -8.524 -13.931  1.00  0.00    -0.062 NA
HETATM    6  N4  UNL     1      13.258 -10.842 -13.611  1.00  0.00    -0.321 N 
ATOM      7  H4  UNL     1      13.247 -10.960 -14.624  1.00  0.00     0.165 HD
HETATM    8  C8  UNL     1      13.456 -11.955 -12.759  1.00  0.00     0.292 C 
ENDROOT
BRANCH   1   9
HETATM    9  C3  UNL     1      11.050 -11.939 -12.181  1.00  0.00     0.185 C 
BRANCH   9  10
HETATM   10  N1  UNL     1       9.989 -11.332 -11.462  1.00  0.00    -0.212 N 
BRANCH  10  11
HETATM   11  C2  UNL     1       9.389 -10.149 -12.055  1.00  0.00     0.137 C 
HETATM   12  C1  UNL     1       9.684  -8.919 -11.194  1.00  0.00     0.027 C 
ENDBRANCH  10  11
BRANCH  10  13
HETATM   13  C10 UNL     1       9.435 -11.754 -10.230  1.00  0.00     0.711 A 
HETATM   14  N10 UNL     1       8.423 -11.458  -9.410  1.00  0.00    -0.116 N 
HETATM   15  N11 UNL     1       8.773 -12.374  -8.541  1.00  0.00    -0.214 N 
ATOM     16  H10 UNL     1       7.665 -10.777  -9.447  1.00  0.00     0.207 HD
HETATM   17  N12 UNL     1       9.783 -12.698  -9.319  1.00  0.00    -0.116 N 
ATOM     18  H11 UNL     1       8.415 -12.699  -7.643  1.00  0.00     0.209 HD
ATOM     19  H12 UNL     1      10.533 -13.387  -9.261  1.00  0.00     0.207 HD
ENDBRANCH  10  13
ENDBRANCH   9  10
ENDBRANCH   1   9
BRANCH   1  20
HETATM   20  O1  UNL     1      12.667 -13.110 -10.935  1.00  0.00    -0.381 OA
ATOM     21  H1  UNL     1      13.299 -12.955 -10.243  1.00  0.00     0.211 HD
ENDBRANCH   1  20
BRANCH   8  22
HETATM   22  N5  UNL     1      14.751 -11.901 -12.135  1.00  0.00    -0.042 N 
ATOM     23  H53 UNL     1      14.821 -12.480 -11.297  1.00  0.00     0.278 HD
ATOM     24  H52 UNL     1      15.479 -12.369 -12.673  1.00  0.00     0.278 HD
ATOM     25  H51 UNL     1      14.946 -10.915 -11.962  1.00  0.00     0.278 HD
ENDBRANCH   8  22
BRANCH   8  26
HETATM   26  C9  UNL     1      13.287 -13.241 -13.496  1.00  0.00     0.174 A 
HETATM   27  N6  UNL     1      12.894 -14.419 -13.012  1.00  0.00    -0.268 N 
HETATM   28  N7  UNL     1      12.900 -15.270 -14.014  1.00  0.00    -0.227 N 
ATOM     29  H6  UNL     1      12.637 -14.622 -12.046  1.00  0.00     0.190 HD
HETATM   30  N8  UNL     1      13.284 -14.669 -15.124  1.00  0.00    -0.227 N 
ATOM     31  H7  UNL     1      12.643 -16.255 -13.944  1.00  0.00     0.210 HD
HETATM   32  N9  UNL     1      13.524 -13.417 -14.805  1.00  0.00    -0.268 N 
ATOM     33  H8  UNL     1      13.377 -15.093 -16.048  1.00  0.00     0.210 HD
ATOM     34  H9  UNL     1      13.840 -12.693 -15.451  1.00  0.00     0.190 HD
ENDBRANCH   8  26
BRANCH   3  35
HETATM   35  O2  UNL     1      13.531  -8.402 -11.129  1.00  0.00    -0.281 OA
HETATM   36  C6  UNL     1      14.888  -8.300 -10.942  1.00  0.00     0.238 C 
ENDBRANCH   3  35
TORSDOF 8
ENDMDL
MODEL 2
REMARK VINA RESULT: -6.936802517      1.649      5.084
REMARK  8 active torsions:
REMARK  status: ('A' for Active; 'I' for Inactive)
REMARK    1  A    between atoms: C2_2  and  N1_3 
REMARK    2  A    between atoms: N1_3  and  C3_4 
REMARK    3  A    between atoms: N1_3  and  C10_30 
REMARK    4  A    between atoms: C3_4  and  C4_5 
REMARK    5  A    between atoms: C4_5  and  O1_6 
REMARK    6  A    between atoms: N2_9  and  O2_10 
REMARK    7  A    between atoms: C8_16  and  N5_17 
REMARK    8  A    between atoms: C8_16  and  C9_21 
ROOT
HETATM    1  C4  UNL     1      11.377 -11.317 -11.844  1.00  0.00     0.152 C 
HETATM    2  C5  UNL     1      11.845 -10.562 -13.049  1.00  0.00     0.203 C 
HETATM    3  N2  UNL     1      12.407  -9.275 -12.675  1.00  0.00    -0.227 N 
HETATM    4  C7  UNL     1      12.564  -8.874 -11.319  1.00  0.00     0.212 C 
HETATM    5  N3  UNL     1      13.569  -7.952 -10.884  1.00  0.00    -0.062 NA
HETATM    6  N4  UNL     1      11.730  -9.375 -10.450  1.00  0.00    -0.321 N 
ATOM      7  H4  UNL     1      11.795  -9.122  -9.464  1.00  0.00     0.165 HD
HETATM    8  C8  UNL     1      10.732 -10.275 -10.896  1.00  0.00     0.292 C 
ENDROOT
BRANCH   1   9
HETATM    9  C3  UNL     1      12.437 -12.054 -11.121  1.00  0.00     0.185 C 
BRANCH   9  10
HETATM   10  N1  UNL     1      13.488 -12.652 -11.862  1.00  0.00    -0.212 N 
BRANCH  10  11
HETATM   11  C2  UNL     1      14.824 -12.122 -11.644  1.00  0.00     0.137 C 
HETATM   12  C1  UNL     1      14.954 -11.588 -10.217  1.00  0.00     0.027 C 
ENDBRANCH  10  11
BRANCH  10  13
HETATM   13  C10 UNL     1      13.389 -13.718 -12.786  1.00  0.00     0.711 A 
HETATM   14  N10 UNL     1      14.174 -14.549 -13.476  1.00  0.00    -0.116 N 
HETATM   15  N11 UNL     1      13.156 -15.135 -14.057  1.00  0.00    -0.214 N 
ATOM     16  H10 UNL     1      15.185 -14.679 -13.530  1.00  0.00     0.207 HD
HETATM   17  N12 UNL     1      12.346 -14.336 -13.397  1.00  0.00    -0.116 N 
ATOM     18  H11 UNL     1      13.041 -15.889 -14.734  1.00  0.00     0.209 HD
ATOM     19  H12 UNL     1      11.333 -14.224 -13.359  1.00  0.00     0.207 HD
ENDBRANCH  10  13
ENDBRANCH   9  10
ENDBRANCH   1   9
BRANCH   1  20
HETATM   20  O1  UNL     1      10.302 -12.183 -12.103  1.00  0.00    -0.381 OA
ATOM     21  H1  UNL     1       9.703 -11.766 -12.711  1.00  0.00     0.211 HD
ENDBRANCH   1  20
BRANCH   8  22
HETATM   22  N5  UNL     1       9.730  -9.590 -11.668  1.00  0.00    -0.042 N 
ATOM     23  H53 UNL     1      10.117  -8.894 -12.307  1.00  0.00     0.278 HD
ATOM     24  H52 UNL     1       9.291 -10.179 -12.375  1.00  0.00     0.278 HD
ATOM     25  H51 UNL     1       9.068  -9.199 -10.998  1.00  0.00     0.278 HD
ENDBRANCH   8  22
BRANCH   8  26
HETATM   26  C9  UNL     1      10.103 -10.999  -9.754  1.00  0.00     0.174 A 
HETATM   27  N6  UNL     1       8.958 -11.682  -9.745  1.00  0.00    -0.268 N 
HETATM   28  N7  UNL     1       8.792 -12.142  -8.525  1.00  0.00    -0.227 N 
ATOM     29  H6  UNL     1       8.330 -11.820 -10.536  1.00  0.00     0.190 HD
HETATM   30  N8  UNL     1       9.798 -11.774  -7.754  1.00  0.00    -0.227 N 
ATOM     31  H7  UNL     1       7.998 -12.704  -8.217  1.00  0.00     0.210 HD
HETATM   32  N9  UNL     1      10.607 -11.068  -8.512  1.00  0.00    -0.268 N 
ATOM     33  H8  UNL     1       9.922 -11.994  -6.766  1.00  0.00     0.210 HD
ATOM     34  H9  UNL     1      11.480 -10.640  -8.205  1.00  0.00     0.190 HD
ENDBRANCH   8  26
BRANCH   3  35
HETATM   35  O2  UNL     1      12.813  -8.396 -13.621  1.00  0.00    -0.281 OA
HETATM   36  C6  UNL     1      11.798  -7.696 -14.225  1.00  0.00     0.238 C 
ENDBRANCH   3  35
TORSDOF 8
ENDMDL
MODEL 3
REMARK VINA RESULT: -6.899501210      1.633      2.037
REMARK  8 active torsions:
REMARK  status: ('A' for Active; 'I' for Inactive)
REMARK    1  A    between atoms: C2_2  and  N1_3 
REMARK    2  A    between atoms: N1_3  and  C3_4 
REMARK    3  A    between atoms: N1_3  and  C10_30 
REMARK    4  A    between atoms: C3_4  and  C4_5 
REMARK    5  A    between atoms: C4_5  and  O1_6 
REMARK    6  A    between atoms: N2_9  and  O2_10 
REMARK    7  A    between atoms: C8_16  and  N5_17 
REMARK    8  A    between atoms: C8_16  and  C9_21 
ROOT
HETATM    1  C4  UNL     1      12.163 -11.401 -10.995  1.00  0.00     0.152 C 
HETATM    2  C5  UNL     1      12.409 -10.565  -9.777  1.00  0.00     0.203 C 
HETATM    3  N2  UNL     1      13.596  -9.742  -9.938  1.00  0.00    -0.227 N 
HETATM    4  C7  UNL     1      14.335  -9.695 -11.152  1.00  0.00     0.212 C 
HETATM    5  N3  UNL     1      15.104  -8.558 -11.560  1.00  0.00    -0.062 NA
HETATM    6  N4  UNL     1      14.306 -10.758 -11.908  1.00  0.00    -0.321 N 
ATOM      7  H4  UNL     1      14.818 -10.780 -12.790  1.00  0.00     0.165 HD
HETATM    8  C8  UNL     1      13.553 -11.880 -11.486  1.00  0.00     0.292 C 
ENDROOT
BRANCH   1   9
HETATM    9  C3  UNL     1      11.462 -10.705 -12.095  1.00  0.00     0.185 C 
BRANCH   9  10
HETATM   10  N1  UNL     1      10.576  -9.642 -11.785  1.00  0.00    -0.212 N 
BRANCH  10  11
HETATM   11  C2  UNL     1      10.783  -8.390 -12.493  1.00  0.00     0.137 C 
HETATM   12  C1  UNL     1      11.689  -8.614 -13.706  1.00  0.00     0.027 C 
ENDBRANCH  10  11
BRANCH  10  13
HETATM   13  C10 UNL     1       9.499  -9.662 -10.867  1.00  0.00     0.711 A 
HETATM   14  N10 UNL     1       8.759  -8.820 -10.142  1.00  0.00    -0.116 N 
HETATM   15  N11 UNL     1       8.057  -9.790  -9.610  1.00  0.00    -0.214 N 
ATOM     16  H10 UNL     1       8.746  -7.805 -10.040  1.00  0.00     0.207 HD
HETATM   17  N12 UNL     1       8.762 -10.655 -10.307  1.00  0.00    -0.116 N 
ATOM     18  H11 UNL     1       7.290  -9.850  -8.940  1.00  0.00     0.209 HD
ATOM     19  H12 UNL     1       8.757 -11.671 -10.393  1.00  0.00     0.207 HD
ENDBRANCH  10  13
ENDBRANCH   9  10
ENDBRANCH   1   9
BRANCH   1  20
HETATM   20  O1  UNL     1      11.514 -12.616 -10.722  1.00  0.00    -0.381 OA
ATOM     21  H1  UNL     1      11.603 -12.820  -9.799  1.00  0.00     0.211 HD
ENDBRANCH   1  20
BRANCH   8  22
HETATM   22  N5  UNL     1      14.179 -12.527 -10.364  1.00  0.00    -0.042 N 
ATOM     23  H53 UNL     1      13.520 -12.803  -9.636  1.00  0.00     0.278 HD
ATOM     24  H52 UNL     1      14.529 -13.460 -10.579  1.00  0.00     0.278 HD
ATOM     25  H51 UNL     1      14.904 -11.890 -10.033  1.00  0.00     0.278 HD
ENDBRANCH   8  22
BRANCH   8  26
HETATM   26  C9  UNL     1      13.351 -12.850 -12.601  1.00  0.00     0.174 A 
HETATM   27  N6  UNL     1      12.952 -14.120 -12.522  1.00  0.00    -0.268 N 
HETATM   28  N7  UNL     1      12.927 -14.594 -13.748  1.00  0.00    -0.227 N 
ATOM     29  H6  UNL     1      12.712 -14.627 -11.670  1.00  0.00     0.190 HD
HETATM   30  N8  UNL     1      13.297 -13.664 -14.607  1.00  0.00    -0.227 N 
ATOM     31  H7  UNL     1      12.658 -15.546 -13.999  1.00  0.00     0.210 HD
HETATM   32  N9  UNL     1      13.560 -12.588 -13.900  1.00  0.00    -0.268 N 
ATOM     33  H8  UNL     1      13.366 -13.761 -15.621  1.00  0.00     0.210 HD
ATOM     34  H9  UNL     1      13.873 -11.694 -14.279  1.00  0.00     0.190 HD
ENDBRANCH   8  26
BRANCH   3  35
HETATM   35  O2  UNL     1      14.047  -8.972  -8.920  1.00  0.00    -0.281 OA
HETATM   36  C6  UNL     1      14.907  -9.607  -8.059  1.00  0.00     0.238 C 
ENDBRANCH   3  35
TORSDOF 8
ENDMDL
MODEL 4
REMARK VINA RESULT: -6.814883640      2.639      6.302
REMARK  8 active torsions:
REMARK  status: ('A' for Active; 'I' for Inactive)
REMARK    1  A    between atoms: C2_2  and  N1_3 
REMARK    2  A    between atoms: N1_3  and  C3_4 
REMARK    3  A    between atoms: N1_3  and  C10_30 
REMARK    4  A    between atoms: C3_4  and  C4_5 
REMARK    5  A    between atoms: C4_5  and  O1_6 
REMARK    6  A    between atoms: N2_9  and  O2_10 
REMARK    7  A    between atoms: C8_16  and  N5_17 
REMARK    8  A    between atoms: C8_16  and  C9_21 
ROOT
HETATM    1  C4  UNL     1      12.639  -8.941 -12.612  1.00  0.00     0.152 C 
HETATM    2  C5  UNL     1      12.587 -10.245 -13.345  1.00  0.00     0.203 C 
HETATM    3  N2  UNL     1      11.903 -11.260 -12.562  1.00  0.00    -0.227 N 
HETATM    4  C7  UNL     1      11.288 -10.974 -11.311  1.00  0.00     0.212 C 
HETATM    5  N3  UNL     1      10.173 -11.711 -10.797  1.00  0.00    -0.062 NA
HETATM    6  N4  UNL     1      11.792  -9.996 -10.610  1.00  0.00    -0.321 N 
ATOM      7  H4  UNL     1      11.391  -9.748  -9.706  1.00  0.00     0.165 HD
HETATM    8  C8  UNL     1      12.902  -9.284 -11.124  1.00  0.00     0.292 C 
ENDROOT
BRANCH   1   9
HETATM    9  C3  UNL     1      11.416  -8.117 -12.721  1.00  0.00     0.185 C 
BRANCH   9  10
HETATM   10  N1  UNL     1      11.473  -6.888 -13.426  1.00  0.00    -0.212 N 
BRANCH  10  11
HETATM   11  C2  UNL     1      11.262  -5.678 -12.648  1.00  0.00     0.137 C 
HETATM   12  C1  UNL     1      12.543  -4.842 -12.615  1.00  0.00     0.027 C 
ENDBRANCH  10  11
BRANCH  10  13
HETATM   13  C10 UNL     1      11.725  -6.700 -14.805  1.00  0.00     0.711 A 
HETATM   14  N10 UNL     1      11.139  -6.186 -15.890  1.00  0.00    -0.116 N 
HETATM   15  N11 UNL     1      12.141  -6.516 -16.667  1.00  0.00    -0.214 N 
ATOM     16  H10 UNL     1      10.249  -5.716 -16.052  1.00  0.00     0.207 HD
HETATM   17  N12 UNL     1      12.753  -7.034 -15.625  1.00  0.00    -0.116 N 
ATOM     18  H11 UNL     1      12.355  -6.414 -17.660  1.00  0.00     0.209 HD
ATOM     19  H12 UNL     1      13.649  -7.501 -15.487  1.00  0.00     0.207 HD
ENDBRANCH  10  13
ENDBRANCH   9  10
ENDBRANCH   1   9
BRANCH   1  20
HETATM   20  O1  UNL     1      13.759  -8.157 -12.935  1.00  0.00    -0.381 OA
ATOM     21  H1  UNL     1      14.527  -8.514 -12.506  1.00  0.00     0.211 HD
ENDBRANCH   1  20
BRANCH   8  22
HETATM   22  N5  UNL     1      14.089 -10.096 -11.099  1.00  0.00    -0.042 N 
ATOM     23  H53 UNL     1      14.269 -10.523 -10.189  1.00  0.00     0.278 HD
ATOM     24  H52 UNL     1      13.998 -10.963 -11.628  1.00  0.00     0.278 HD
ATOM     25  H51 UNL     1      14.852  -9.502 -11.424  1.00  0.00     0.278 HD
ENDBRANCH   8  22
BRANCH   8  26
HETATM   26  C9  UNL     1      13.126  -8.012 -10.378  1.00  0.00     0.174 A 
HETATM   27  N6  UNL     1      14.236  -7.276 -10.324  1.00  0.00    -0.268 N 
HETATM   28  N7  UNL     1      13.982  -6.251  -9.541  1.00  0.00    -0.227 N 
ATOM     29  H6  UNL     1      15.116  -7.471 -10.802  1.00  0.00     0.190 HD
HETATM   30  N8  UNL     1      12.743  -6.311  -9.093  1.00  0.00    -0.227 N 
ATOM     31  H7  UNL     1      14.649  -5.514  -9.311  1.00  0.00     0.210 HD
HETATM   32  N9  UNL     1      12.214  -7.398  -9.609  1.00  0.00    -0.268 N 
ATOM     33  H8  UNL     1      12.285  -5.645  -8.470  1.00  0.00     0.210 HD
ATOM     34  H9  UNL     1      11.260  -7.723  -9.449  1.00  0.00     0.190 HD
ENDBRANCH   8  26
BRANCH   3  35
HETATM   35  O2  UNL     1      11.819 -12.536 -13.004  1.00  0.00    -0.281 OA
HETATM   36  C6  UNL     1      12.971 -13.269 -12.859  1.00  0.00     0.238 C 
ENDBRANCH   3  35
TORSDOF 8
ENDMDL
MODEL 5
REMARK VINA RESULT: -6.792321099      2.368      3.757
REMARK  8 active torsions:
REMARK  status: ('A' for Active; 'I' for Inactive)
REMARK    1  A    between atoms: C2_2  and  N1_3 
REMARK    2  A    between atoms: N1_3  and  C3_4 
REMARK    3  A    between atoms: N1_3  and  C10_30 
REMARK    4  A    between atoms: C3_4  and  C4_5 
REMARK    5  A    between atoms: C4_5  and  O1_6 
REMARK    6  A    between atoms: N2_9  and  O2_10 
REMARK    7  A    between atoms: C8_16  and  N5_17 
REMARK    8  A    between atoms: C8_16  and  C9_21 
ROOT
HETATM    1  C4  UNL     1      12.272 -11.695 -12.196  1.00  0.00     0.152 C 
HETATM    2  C5  UNL     1      12.083 -11.165 -10.808  1.00  0.00     0.203 C 
HETATM    3  N2  UNL     1      13.344 -11.123 -10.087  1.00  0.00    -0.227 N 
HETATM    4  C7  UNL     1      14.585 -11.455 -10.698  1.00  0.00     0.212 C 
HETATM    5  N3  UNL     1      15.840 -10.915 -10.270  1.00  0.00    -0.062 NA
HETATM    6  N4  UNL     1      14.553 -12.306 -11.686  1.00  0.00    -0.321 N 
ATOM      7  H4  UNL     1      15.413 -12.580 -12.161  1.00  0.00     0.165 HD
HETATM    8  C8  UNL     1      13.307 -12.843 -12.090  1.00  0.00     0.292 C 
ENDROOT
BRANCH   1   9
HETATM    9  C3  UNL     1      12.738 -10.698 -13.184  1.00  0.00     0.185 C 
BRANCH   9  10
HETATM   10  N1  UNL     1      12.514  -9.320 -12.931  1.00  0.00    -0.212 N 
BRANCH  10  11
HETATM   11  C2  UNL     1      11.332  -8.728 -13.535  1.00  0.00     0.137 C 
HETATM   12  C1  UNL     1      11.737  -7.621 -14.510  1.00  0.00     0.027 C 
ENDBRANCH  10  11
BRANCH  10  13
HETATM   13  C10 UNL     1      13.307  -8.452 -12.144  1.00  0.00     0.711 A 
HETATM   14  N10 UNL     1      14.591  -8.155 -11.929  1.00  0.00    -0.116 N 
HETATM   15  N11 UNL     1      14.300  -7.260 -11.018  1.00  0.00    -0.214 N 
ATOM     16  H10 UNL     1      15.467  -8.496 -12.325  1.00  0.00     0.207 HD
HETATM   17  N12 UNL     1      13.023  -7.522 -11.197  1.00  0.00    -0.116 N 
ATOM     18  H11 UNL     1      14.835  -6.629 -10.421  1.00  0.00     0.209 HD
ATOM     19  H12 UNL     1      12.160  -7.166 -10.787  1.00  0.00     0.207 HD
ENDBRANCH  10  13
ENDBRANCH   9  10
ENDBRANCH   1   9
BRANCH   1  20
HETATM   20  O1  UNL     1      11.145 -12.362 -12.703  1.00  0.00    -0.381 OA
ATOM     21  H1  UNL     1      11.066 -13.211 -12.283  1.00  0.00     0.211 HD
ENDBRANCH   1  20
BRANCH   8  22
HETATM   22  N5  UNL     1      12.799 -13.759 -11.104  1.00  0.00    -0.042 N 
ATOM     23  H53 UNL     1      12.936 -13.439 -10.145  1.00  0.00     0.278 HD
ATOM     24  H52 UNL     1      11.780 -13.801 -11.079  1.00  0.00     0.278 HD
ATOM     25  H51 UNL     1      13.236 -14.660 -11.296  1.00  0.00     0.278 HD
ENDBRANCH   8  22
BRANCH   8  26
HETATM   26  C9  UNL     1      13.409 -13.512 -13.419  1.00  0.00     0.174 A 
HETATM   27  N6  UNL     1      13.812 -12.985 -14.575  1.00  0.00    -0.268 N 
HETATM   28  N7  UNL     1      13.729 -13.933 -15.482  1.00  0.00    -0.227 N 
ATOM     29  H6  UNL     1      14.125 -12.026 -14.727  1.00  0.00     0.190 HD
HETATM   30  N8  UNL     1      13.285 -15.050 -14.939  1.00  0.00    -0.227 N 
ATOM     31  H7  UNL     1      13.973 -13.821 -16.467  1.00  0.00     0.210 HD
HETATM   32  N9  UNL     1      13.087 -14.791 -13.666  1.00  0.00    -0.268 N 
ATOM     33  H8  UNL     1      13.128 -15.940 -15.413  1.00  0.00     0.210 HD
ATOM     34  H9  UNL     1      12.742 -15.457 -12.975  1.00  0.00     0.190 HD
ENDBRANCH   8  26
BRANCH   3  35
HETATM   35  O2  UNL     1      13.385 -10.756  -8.785  1.00  0.00    -0.281 OA
HETATM   36  C6  UNL     1      12.435  -9.833  -8.421  1.00  0.00     0.238 C 
ENDBRANCH   3  35
TORSDOF 8
ENDMDL
