MODEL 1
REMARK VINA RESULT: -8.633171762      0.000      0.000
REMARK  9 active torsions:
REMARK  status: ('A' for Active; 'I' for Inactive)
REMARK    1  A    between atoms: C2_2  and  C3_3 
REMARK    2  A    between atoms: C3_3  and  O1_4 
REMARK    3  A    between atoms: N1_7  and  C5_8 
REMARK    4  A    between atoms: C6_11  and  N3_12 
REMARK    5  A    between atoms: C7_15  and  N4_16 
REMARK    6  A    between atoms: N4_16  and  N5_18 
REMARK    7  A    between atoms: C8_21  and  N6_22 
REMARK    8  A    between atoms: N6_22  and  C9_24 
REMARK    9  A    between atoms: C9_24  and  C10_25 
ROOT
HETATM    1  C5  UNL     1      13.192 -12.581 -13.116  1.00  0.00     0.683 A 
HETATM    2  N2  UNL     1      12.573 -12.993 -12.000  1.00  0.00    -0.175 N 
ATOM      3  H2  UNL     1      12.803 -13.906 -11.606  1.00  0.00     0.186 HD
HETATM    4  C6  UNL     1      11.653 -12.224 -11.392  1.00  0.00     0.146 A 
HETATM    5  C7  UNL     1      11.302 -10.962 -11.894  1.00  0.00     0.136 A 
HETATM    6  C8  UNL     1      11.948 -10.552 -13.044  1.00  0.00     0.149 A 
HETATM    7  N11 UNL     1      12.879 -11.385 -13.618  1.00  0.00    -0.174 N 
ATOM      8  H11 UNL     1      13.352 -11.075 -14.466  1.00  0.00     0.186 HD
ENDROOT
BRANCH   6   9
HETATM    9  N6  UNL     1      11.673  -9.306 -13.641  1.00  0.00    -0.367 N 
ATOM     10  H6  UNL     1      10.911  -9.203 -14.311  1.00  0.00     0.161 HD
BRANCH   9  11
HETATM   11  C9  UNL     1      12.511  -8.165 -13.275  1.00  0.00     0.200 C 
BRANCH  11  12
HETATM   12  C10 UNL     1      12.916  -7.357 -14.436  1.00  0.00     0.131 A 
HETATM   13  N7  UNL     1      12.112  -6.862 -15.364  1.00  0.00    -0.271 N 
HETATM   14  N8  UNL     1      12.851  -6.177 -16.251  1.00  0.00    -0.227 N 
ATOM     15  H7  UNL     1      11.099  -6.982 -15.399  1.00  0.00     0.190 HD
HETATM   16  N9  UNL     1      14.105  -6.250 -15.868  1.00  0.00    -0.227 N 
ATOM     17  H8  UNL     1      12.501  -5.688 -17.075  1.00  0.00     0.210 HD
HETATM   18  N10 UNL     1      14.181  -6.960 -14.767  1.00  0.00    -0.271 N 
ATOM     19  H9  UNL     1      14.896  -5.822 -16.349  1.00  0.00     0.210 HD
ATOM     20  H10 UNL     1      15.033  -7.178 -14.251  1.00  0.00     0.190 HD
ENDBRANCH  11  12
ENDBRANCH   9  11
ENDBRANCH   6   9
BRANCH   5  21
HETATM   21  N4  UNL     1      10.334 -10.233 -11.196  1.00  0.00    -0.301 N 
ATOM     22  H4  UNL     1      10.703  -9.685 -10.419  1.00  0.00     0.186 HD
BRANCH  21  23
HETATM   23  N5  UNL     1       8.979 -10.123 -11.367  1.00  0.00    -0.344 N 
ATOM     24  H52 UNL     1       8.715  -9.321 -11.939  1.00  0.00     0.176 HD
ATOM     25  H51 UNL     1       8.206 -10.694 -11.027  1.00  0.00     0.176 HD
ENDBRANCH  21  23
ENDBRANCH   5  21
BRANCH   4  26
HETATM   26  N3  UNL     1      11.073 -12.637 -10.324  1.00  0.00    -0.383 N 
ATOM     27  H32 UNL     1      11.333 -13.552  -9.956  1.00  0.00     0.157 HD
ATOM     28  H31 UNL     1      10.372 -12.055  -9.866  1.00  0.00     0.157 HD
ENDBRANCH   4  26
BRANCH   1  29
HETATM   29  N1  UNL     1      14.135 -13.404 -13.743  1.00  0.00    -0.213 N 
HETATM   30  C4  UNL     1      13.846 -14.386 -14.767  1.00  0.00     0.181 C 
HETATM   31  C2  UNL     1      14.897 -14.533 -15.810  1.00  0.00     0.095 C 
HETATM   32  C1  UNL     1      14.637 -13.547 -16.958  1.00  0.00     0.050 C 
HETATM   33  O2  UNL     1      16.175 -14.324 -15.331  1.00  0.00    -0.375 OA
HETATM   34  C12 UNL     1      16.190 -14.552 -13.961  1.00  0.00     0.189 C 
HETATM   35  C11 UNL     1      15.555 -13.296 -13.345  1.00  0.00     0.167 C 
BRANCH  31  36
HETATM   36  C3  UNL     1      14.875 -15.944 -16.413  1.00  0.00     0.203 C 
BRANCH  36  37
HETATM   37  O1  UNL     1      16.175 -16.242 -16.868  1.00  0.00    -0.398 OA
ATOM     38  H1  UNL     1      16.180 -17.142 -17.171  1.00  0.00     0.209 HD
ENDBRANCH  36  37
ENDBRANCH  31  36
ENDBRANCH   1  29
TORSDOF 9
ENDMDL
MODEL 2
REMARK VINA RESULT: -8.219087155      1.049      1.340
REMARK  9 active torsions:
REMARK  status: ('A' for Active; 'I' for Inactive)
REMARK    1  A    between atoms: C2_2  and  C3_3 
REMARK    2  A    between atoms: C3_3  and  O1_4 
REMARK    3  A    between atoms: N1_7  and  C5_8 
REMARK    4  A    between atoms: C6_11  and  N3_12 
REMARK    5  A    between atoms: C7_15  and  N4_16 
REMARK    6  A    between atoms: N4_16  and  N5_18 
REMARK    7  A    between atoms: C8_21  and  N6_22 
REMARK    8  A    between atoms: N6_22  and  C9_24 
REMARK    9  A    between atoms: C9_24  and  C10_25 
ROOT
HETATM    1  C5  UNL     1      12.936 -12.494 -12.916  1.00  0.00     0.683 A 
HETATM    2  N2  UNL     1      12.366 -12.883 -11.765  1.00  0.00    -0.175 N 
ATOM      3  H2  UNL     1      12.666 -13.753 -11.324  1.00  0.00     0.186 HD
HETATM    4  C6  UNL     1      11.406 -12.144 -11.183  1.00  0.00     0.146 A 
HETATM    5  C7  UNL     1      10.959 -10.941 -11.749  1.00  0.00     0.136 A 
HETATM    6  C8  UNL     1      11.555 -10.554 -12.933  1.00  0.00     0.149 A 
HETATM    7  N11 UNL     1      12.532 -11.354 -13.478  1.00  0.00    -0.174 N 
ATOM      8  H11 UNL     1      12.968 -11.062 -14.352  1.00  0.00     0.186 HD
ENDROOT
BRANCH   6   9
HETATM    9  N6  UNL     1      11.184  -9.367 -13.594  1.00  0.00    -0.367 N 
ATOM     10  H6  UNL     1      10.428  -9.363 -14.278  1.00  0.00     0.161 HD
BRANCH   9  11
HETATM   11  C9  UNL     1      11.913  -8.141 -13.273  1.00  0.00     0.200 C 
BRANCH  11  12
HETATM   12  C10 UNL     1      11.349  -6.951 -13.930  1.00  0.00     0.131 A 
HETATM   13  N7  UNL     1      11.294  -6.731 -15.235  1.00  0.00    -0.271 N 
HETATM   14  N8  UNL     1      10.703  -5.544 -15.444  1.00  0.00    -0.227 N 
ATOM     15  H7  UNL     1      11.643  -7.359 -15.960  1.00  0.00     0.190 HD
HETATM   16  N9  UNL     1      10.395  -5.038 -14.271  1.00  0.00    -0.227 N 
ATOM     17  H8  UNL     1      10.525  -5.112 -16.350  1.00  0.00     0.210 HD
HETATM   18  N10 UNL     1      10.774  -5.868 -13.329  1.00  0.00    -0.271 N 
ATOM     19  H9  UNL     1       9.934  -4.141 -14.117  1.00  0.00     0.210 HD
ATOM     20  H10 UNL     1      10.660  -5.729 -12.325  1.00  0.00     0.190 HD
ENDBRANCH  11  12
ENDBRANCH   9  11
ENDBRANCH   6   9
BRANCH   5  21
HETATM   21  N4  UNL     1       9.954 -10.240 -11.073  1.00  0.00    -0.301 N 
ATOM     22  H4  UNL     1      10.299  -9.600 -10.358  1.00  0.00     0.186 HD
BRANCH  21  23
HETATM   23  N5  UNL     1       8.591 -10.259 -11.198  1.00  0.00    -0.344 N 
ATOM     24  H52 UNL     1       8.109 -10.187 -10.302  1.00  0.00     0.176 HD
ATOM     25  H51 UNL     1       7.987 -10.332 -12.016  1.00  0.00     0.176 HD
ENDBRANCH  21  23
ENDBRANCH   5  21
BRANCH   4  26
HETATM   26  N3  UNL     1      10.874 -12.533 -10.081  1.00  0.00    -0.383 N 
ATOM     27  H32 UNL     1      10.029 -12.061  -9.759  1.00  0.00     0.157 HD
ATOM     28  H31 UNL     1      11.296 -13.295  -9.551  1.00  0.00     0.157 HD
ENDBRANCH   4  26
BRANCH   1  29
HETATM   29  N1  UNL     1      13.924 -13.286 -13.514  1.00  0.00    -0.213 N 
HETATM   30  C4  UNL     1      13.710 -14.218 -14.601  1.00  0.00     0.181 C 
HETATM   31  C2  UNL     1      14.831 -14.314 -15.574  1.00  0.00     0.095 C 
HETATM   32  C1  UNL     1      14.648 -13.275 -16.690  1.00  0.00     0.050 C 
HETATM   33  O2  UNL     1      16.073 -14.128 -14.998  1.00  0.00    -0.375 OA
HETATM   34  C12 UNL     1      15.994 -14.421 -13.644  1.00  0.00     0.189 C 
HETATM   35  C11 UNL     1      15.312 -13.197 -13.014  1.00  0.00     0.167 C 
BRANCH  31  36
HETATM   36  C3  UNL     1      14.857 -15.695 -16.244  1.00  0.00     0.203 C 
BRANCH  36  37
HETATM   37  O1  UNL     1      16.180 -15.955 -16.651  1.00  0.00    -0.398 OA
ATOM     38  H1  UNL     1      16.321 -16.894 -16.608  1.00  0.00     0.209 HD
ENDBRANCH  36  37
ENDBRANCH  31  36
ENDBRANCH   1  29
TORSDOF 9
ENDMDL
MODEL 3
REMARK VINA RESULT: -8.205049033      3.472      7.204
REMARK  9 active torsions:
REMARK  status: ('A' for Active; 'I' for Inactive)
REMARK    1  A    between atoms: C2_2  and  C3_3 
REMARK    2  A    between atoms: C3_3  and  O1_4 
REMARK    3  A    between atoms: N1_7  and  C5_8 
REMARK    4  A    between atoms: C6_11  and  N3_12 
REMARK    5  A    between atoms: C7_15  and  N4_16 
REMARK    6  A    between atoms: N4_16  and  N5_18 
REMARK    7  A    between atoms: C8_21  and  N6_22 
REMARK    8  A    between atoms: N6_22  and  C9_24 
REMARK    9  A    between atoms: C9_24  and  C10_25 
ROOT
HETATM    1  C5  UNL     1      12.757  -9.964 -13.675  1.00  0.00     0.683 A 
HETATM    2  N2  UNL     1      11.808 -10.515 -12.902  1.00  0.00    -0.175 N 
ATOM      3  H2  UNL     1      11.098  -9.918 -12.477  1.00  0.00     0.186 HD
HETATM    4  C6  UNL     1      11.779 -11.840 -12.678  1.00  0.00     0.146 A 
HETATM    5  C7  UNL     1      12.733 -12.702 -13.239  1.00  0.00     0.136 A 
HETATM    6  C8  UNL     1      13.702 -12.121 -14.033  1.00  0.00     0.149 A 
HETATM    7  N11 UNL     1      13.677 -10.759 -14.224  1.00  0.00    -0.174 N 
ATOM      8  H11 UNL     1      14.396 -10.337 -14.811  1.00  0.00     0.186 HD
ENDROOT
BRANCH   6   9
HETATM    9  N6  UNL     1      14.713 -12.887 -14.646  1.00  0.00    -0.367 N 
ATOM     10  H6  UNL     1      15.529 -13.195 -14.118  1.00  0.00     0.161 HD
BRANCH   9  11
HETATM   11  C9  UNL     1      14.560 -13.227 -16.060  1.00  0.00     0.200 C 
BRANCH  11  12
HETATM   12  C10 UNL     1      14.995 -14.599 -16.368  1.00  0.00     0.131 A 
HETATM   13  N7  UNL     1      14.583 -15.340 -17.385  1.00  0.00    -0.271 N 
HETATM   14  N8  UNL     1      15.212 -16.525 -17.334  1.00  0.00    -0.227 N 
ATOM     15  H7  UNL     1      13.901 -15.057 -18.090  1.00  0.00     0.190 HD
HETATM   16  N9  UNL     1      16.009 -16.510 -16.290  1.00  0.00    -0.227 N 
ATOM     17  H8  UNL     1      15.092 -17.297 -17.989  1.00  0.00     0.210 HD
HETATM   18  N10 UNL     1      15.901 -15.354 -15.680  1.00  0.00    -0.271 N 
ATOM     19  H9  UNL     1      16.615 -17.278 -15.998  1.00  0.00     0.210 HD
ATOM     20  H10 UNL     1      16.405 -15.070 -14.840  1.00  0.00     0.190 HD
ENDBRANCH  11  12
ENDBRANCH   9  11
ENDBRANCH   6   9
BRANCH   5  21
HETATM   21  N4  UNL     1      12.624 -14.066 -12.950  1.00  0.00    -0.301 N 
ATOM     22  H4  UNL     1      12.466 -14.273 -11.964  1.00  0.00     0.186 HD
BRANCH  21  23
HETATM   23  N5  UNL     1      12.691 -15.174 -13.751  1.00  0.00    -0.344 N 
ATOM     24  H52 UNL     1      13.543 -15.208 -14.311  1.00  0.00     0.176 HD
ATOM     25  H51 UNL     1      12.049 -15.956 -13.882  1.00  0.00     0.176 HD
ENDBRANCH  21  23
ENDBRANCH   5  21
BRANCH   4  26
HETATM   26  N3  UNL     1      10.863 -12.347 -11.936  1.00  0.00    -0.383 N 
ATOM     27  H32 UNL     1      10.609 -11.856 -11.078  1.00  0.00     0.157 HD
ATOM     28  H31 UNL     1      10.409 -13.218 -12.208  1.00  0.00     0.157 HD
ENDBRANCH   4  26
BRANCH   1  29
HETATM   29  N1  UNL     1      12.779  -8.580 -13.884  1.00  0.00    -0.213 N 
HETATM   30  C4  UNL     1      11.648  -7.773 -14.292  1.00  0.00     0.181 C 
HETATM   31  C2  UNL     1      11.606  -6.408 -13.701  1.00  0.00     0.095 C 
HETATM   32  C1  UNL     1      10.850  -6.438 -12.365  1.00  0.00     0.050 C 
HETATM   33  O2  UNL     1      12.858  -5.866 -13.488  1.00  0.00    -0.375 OA
HETATM   34  C12 UNL     1      13.770  -6.481 -14.333  1.00  0.00     0.189 C 
HETATM   35  C11 UNL     1      14.048  -7.847 -13.688  1.00  0.00     0.167 C 
BRANCH  31  36
HETATM   36  C3  UNL     1      10.854  -5.437 -14.623  1.00  0.00     0.203 C 
BRANCH  36  37
HETATM   37  O1  UNL     1      10.683  -6.068 -15.870  1.00  0.00    -0.398 OA
ATOM     38  H1  UNL     1      11.516  -6.447 -16.124  1.00  0.00     0.209 HD
ENDBRANCH  36  37
ENDBRANCH  31  36
ENDBRANCH   1  29
TORSDOF 9
ENDMDL
MODEL 4
REMARK VINA RESULT: -8.059853004      1.219      1.542
REMARK  9 active torsions:
REMARK  status: ('A' for Active; 'I' for Inactive)
REMARK    1  A    between atoms: C2_2  and  C3_3 
REMARK    2  A    between atoms: C3_3  and  O1_4 
REMARK    3  A    between atoms: N1_7  and  C5_8 
REMARK    4  A    between atoms: C6_11  and  N3_12 
REMARK    5  A    between atoms: C7_15  and  N4_16 
REMARK    6  A    between atoms: N4_16  and  N5_18 
REMARK    7  A    between atoms: C8_21  and  N6_22 
REMARK    8  A    between atoms: N6_22  and  C9_24 
REMARK    9  A    between atoms: C9_24  and  C10_25 
ROOT
HETATM    1  C5  UNL     1      13.172 -12.381 -13.514  1.00  0.00     0.683 A 
HETATM    2  N2  UNL     1      12.082 -12.774 -12.838  1.00  0.00    -0.175 N 
ATOM      3  H2  UNL     1      11.921 -13.769 -12.680  1.00  0.00     0.186 HD
HETATM    4  C6  UNL     1      11.199 -11.878 -12.364  1.00  0.00     0.146 A 
HETATM    5  C7  UNL     1      11.376 -10.500 -12.555  1.00  0.00     0.136 A 
HETATM    6  C8  UNL     1      12.502 -10.111 -13.252  1.00  0.00     0.149 A 
HETATM    7  N11 UNL     1      13.367 -11.076 -13.711  1.00  0.00    -0.174 N 
ATOM      8  H11 UNL     1      14.197 -10.781 -14.225  1.00  0.00     0.186 HD
ENDROOT
BRANCH   6   9
HETATM    9  N6  UNL     1      12.781  -8.754 -13.507  1.00  0.00    -0.367 N 
ATOM     10  H6  UNL     1      13.188  -8.158 -12.786  1.00  0.00     0.161 HD
BRANCH   9  11
HETATM   11  C9  UNL     1      12.472  -8.222 -14.834  1.00  0.00     0.200 C 
BRANCH  11  12
HETATM   12  C10 UNL     1      11.621  -7.022 -14.785  1.00  0.00     0.131 A 
HETATM   13  N7  UNL     1      11.221  -6.391 -13.693  1.00  0.00    -0.271 N 
HETATM   14  N8  UNL     1      10.469  -5.340 -14.056  1.00  0.00    -0.227 N 
ATOM     15  H7  UNL     1      11.447  -6.659 -12.734  1.00  0.00     0.190 HD
HETATM   16  N9  UNL     1      10.410  -5.325 -15.368  1.00  0.00    -0.227 N 
ATOM     17  H8  UNL     1      10.025  -4.673 -13.426  1.00  0.00     0.210 HD
HETATM   18  N10 UNL     1      11.099  -6.335 -15.844  1.00  0.00    -0.271 N 
ATOM     19  H9  UNL     1       9.906  -4.638 -15.929  1.00  0.00     0.210 HD
ATOM     20  H10 UNL     1      11.223  -6.566 -16.829  1.00  0.00     0.190 HD
ENDBRANCH  11  12
ENDBRANCH   9  11
ENDBRANCH   6   9
BRANCH   5  21
HETATM   21  N4  UNL     1      10.404  -9.643 -12.027  1.00  0.00    -0.301 N 
ATOM     22  H4  UNL     1       9.524  -9.642 -12.542  1.00  0.00     0.186 HD
BRANCH  21  23
HETATM   23  N5  UNL     1      10.422  -8.804 -10.945  1.00  0.00    -0.344 N 
ATOM     24  H52 UNL     1      11.350  -8.429 -10.749  1.00  0.00     0.176 HD
ATOM     25  H51 UNL     1       9.682  -8.497 -10.314  1.00  0.00     0.176 HD
ENDBRANCH  21  23
ENDBRANCH   5  21
BRANCH   4  26
HETATM   26  N3  UNL     1      10.163 -12.275 -11.718  1.00  0.00    -0.383 N 
ATOM     27  H32 UNL     1       9.286 -12.382 -12.229  1.00  0.00     0.157 HD
ATOM     28  H31 UNL     1      10.229 -12.476 -10.721  1.00  0.00     0.157 HD
ENDBRANCH   4  26
BRANCH   1  29
HETATM   29  N1  UNL     1      14.071 -13.331 -14.013  1.00  0.00    -0.213 N 
HETATM   30  C4  UNL     1      13.742 -14.399 -14.933  1.00  0.00     0.181 C 
HETATM   31  C2  UNL     1      14.809 -14.731 -15.916  1.00  0.00     0.095 C 
HETATM   32  C1  UNL     1      14.653 -13.864 -17.173  1.00  0.00     0.050 C 
HETATM   33  O2  UNL     1      16.085 -14.558 -15.416  1.00  0.00    -0.375 OA
HETATM   34  C12 UNL     1      16.045 -14.632 -14.031  1.00  0.00     0.189 C 
HETATM   35  C11 UNL     1      15.483 -13.276 -13.579  1.00  0.00     0.167 C 
BRANCH  31  36
HETATM   36  C3  UNL     1      14.704 -16.196 -16.362  1.00  0.00     0.203 C 
BRANCH  36  37
HETATM   37  O1  UNL     1      15.995 -16.636 -16.715  1.00  0.00    -0.398 OA
ATOM     38  H1  UNL     1      16.625 -16.075 -16.278  1.00  0.00     0.209 HD
ENDBRANCH  36  37
ENDBRANCH  31  36
ENDBRANCH   1  29
TORSDOF 9
ENDMDL
MODEL 5
REMARK VINA RESULT: -7.972759827      3.511      7.321
REMARK  9 active torsions:
REMARK  status: ('A' for Active; 'I' for Inactive)
REMARK    1  A    between atoms: C2_2  and  C3_3 
REMARK    2  A    between atoms: C3_3  and  O1_4 
REMARK    3  A    between atoms: N1_7  and  C5_8 
REMARK    4  A    between atoms: C6_11  and  N3_12 
REMARK    5  A    between atoms: C7_15  and  N4_16 
REMARK    6  A    between atoms: N4_16  and  N5_18 
REMARK    7  A    between atoms: C8_21  and  N6_22 
REMARK    8  A    between atoms: N6_22  and  C9_24 
REMARK    9  A    between atoms: C9_24  and  C10_25 
ROOT
HETATM    1  C5  UNL     1      12.104  -9.023 -13.807  1.00  0.00     0.683 A 
HETATM    2  N2  UNL     1      11.019  -9.319 -13.076  1.00  0.00    -0.175 N 
ATOM      3  H2  UNL     1      10.286  -8.619 -12.959  1.00  0.00     0.186 HD
HETATM    4  C6  UNL     1      10.882 -10.524 -12.494  1.00  0.00     0.146 A 
HETATM    5  C7  UNL     1      11.861 -11.519 -12.625  1.00  0.00     0.136 A 
HETATM    6  C8  UNL     1      12.972 -11.200 -13.381  1.00  0.00     0.149 A 
HETATM    7  N11 UNL     1      13.053  -9.950 -13.949  1.00  0.00    -0.174 N 
ATOM      8  H11 UNL     1      13.876  -9.722 -14.507  1.00  0.00     0.186 HD
ENDROOT
BRANCH   6   9
HETATM    9  N6  UNL     1      14.021 -12.119 -13.577  1.00  0.00    -0.367 N 
ATOM     10  H6  UNL     1      14.901 -12.026 -13.070  1.00  0.00     0.161 HD
BRANCH   9  11
HETATM   11  C9  UNL     1      13.815 -13.209 -14.529  1.00  0.00     0.200 C 
BRANCH  11  12
HETATM   12  C10 UNL     1      14.973 -14.111 -14.626  1.00  0.00     0.131 A 
HETATM   13  N7  UNL     1      15.895 -14.303 -13.695  1.00  0.00    -0.271 N 
HETATM   14  N8  UNL     1      16.781 -15.204 -14.149  1.00  0.00    -0.227 N 
ATOM     15  H7  UNL     1      15.925 -13.844 -12.784  1.00  0.00     0.190 HD
HETATM   16  N9  UNL     1      16.404 -15.564 -15.354  1.00  0.00    -0.227 N 
ATOM     17  H8  UNL     1      17.600 -15.546 -13.647  1.00  0.00     0.210 HD
HETATM   18  N10 UNL     1      15.309 -14.918 -15.676  1.00  0.00    -0.271 N 
ATOM     19  H9  UNL     1      16.888 -16.238 -15.948  1.00  0.00     0.210 HD
ATOM     20  H10 UNL     1      14.798 -15.003 -16.554  1.00  0.00     0.190 HD
ENDBRANCH  11  12
ENDBRANCH   9  11
ENDBRANCH   6   9
BRANCH   5  21
HETATM   21  N4  UNL     1      11.633 -12.741 -11.983  1.00  0.00    -0.301 N 
ATOM     22  H4  UNL     1      10.934 -13.328 -12.438  1.00  0.00     0.186 HD
BRANCH  21  23
HETATM   23  N5  UNL     1      12.180 -13.291 -10.854  1.00  0.00    -0.344 N 
ATOM     24  H52 UNL     1      12.617 -12.598 -10.246  1.00  0.00     0.176 HD
ATOM     25  H51 UNL     1      12.224 -14.255 -10.524  1.00  0.00     0.176 HD
ENDBRANCH  21  23
ENDBRANCH   5  21
BRANCH   4  26
HETATM   26  N3  UNL     1       9.835 -10.787 -11.800  1.00  0.00    -0.383 N 
ATOM     27  H32 UNL     1       9.955 -11.025 -10.815  1.00  0.00     0.157 HD
ATOM     28  H31 UNL     1       8.913 -10.756 -12.234  1.00  0.00     0.157 HD
ENDBRANCH   4  26
BRANCH   1  29
HETATM   29  N1  UNL     1      12.235  -7.758 -14.391  1.00  0.00    -0.213 N 
HETATM   30  C4  UNL     1      11.258  -6.692 -14.317  1.00  0.00     0.181 C 
HETATM   31  C2  UNL     1      11.830  -5.321 -14.240  1.00  0.00     0.095 C 
HETATM   32  C1  UNL     1      12.073  -4.935 -12.774  1.00  0.00     0.050 C 
HETATM   33  O2  UNL     1      13.016  -5.184 -14.934  1.00  0.00    -0.375 OA
HETATM   34  C12 UNL     1      13.084  -6.163 -15.916  1.00  0.00     0.189 C 
HETATM   35  C11 UNL     1      13.457  -7.450 -15.165  1.00  0.00     0.167 C 
BRANCH  31  36
HETATM   36  C3  UNL     1      10.855  -4.288 -14.823  1.00  0.00     0.203 C 
BRANCH  36  37
HETATM   37  O1  UNL     1       9.885  -4.983 -15.572  1.00  0.00    -0.398 OA
ATOM     38  H1  UNL     1      10.176  -5.007 -16.476  1.00  0.00     0.209 HD
ENDBRANCH  36  37
ENDBRANCH  31  36
ENDBRANCH   1  29
TORSDOF 9
ENDMDL
