MODEL 1
REMARK VINA RESULT: -8.310463528      0.000      0.000
REMARK  7 active torsions:
REMARK  status: ('A' for Active; 'I' for Inactive)
REMARK    1  A    between atoms: N1_1  and  C1_4 
REMARK    2  A    between atoms: C3_11  and  C4_12 
REMARK    3  A    between atoms: C4_12  and  O2_13 
REMARK    4  A    between atoms: C5_15  and  C6_16 
REMARK    5  A    between atoms: C8_21  and  N5_22 
REMARK    6  A    between atoms: N5_22  and  O4_24 
REMARK    7  A    between atoms: C9_26  and  C10_27 
ROOT
HETATM    1  C6  UNL     1      13.888 -12.822 -14.694  1.00  0.00     0.124 A 
HETATM    2  N4  UNL     1      12.966 -13.177 -13.722  1.00  0.00    -0.307 N 
ATOM      3  H4  UNL     1      12.802 -14.171 -13.561  1.00  0.00     0.170 HD
HETATM    4  C7  UNL     1      12.285 -12.311 -12.988  1.00  0.00     0.278 A 
HETATM    5  O3  UNL     1      11.450 -12.632 -12.107  1.00  0.00    -0.265 OA
HETATM    6  C8  UNL     1      12.478 -10.947 -13.177  1.00  0.00     0.152 A 
HETATM    7  C9  UNL     1      13.383 -10.561 -14.132  1.00  0.00     0.115 A 
HETATM    8  N10 UNL     1      14.039 -11.527 -14.840  1.00  0.00    -0.336 N 
ATOM      9  H10 UNL     1      14.706 -11.214 -15.546  1.00  0.00     0.168 HD
ENDROOT
BRANCH   1  10
HETATM   10  C5  UNL     1      14.603 -13.911 -15.348  1.00  0.00     0.076 A 
HETATM   11  C1  UNL     1      14.156 -14.268 -16.640  1.00  0.00     0.118 A 
HETATM   12  N2  UNL     1      14.657 -15.289 -17.329  1.00  0.00    -0.294 N 
HETATM   13  C2  UNL     1      15.626 -16.012 -16.778  1.00  0.00     0.326 A 
ATOM     14  H2  UNL     1      14.305 -15.513 -18.260  1.00  0.00     0.172 HD
HETATM   15  O1  UNL     1      16.107 -16.987 -17.434  1.00  0.00    -0.247 OA
HETATM   16  N3  UNL     1      16.080 -15.710 -15.559  1.00  0.00    -0.309 N 
HETATM   17  C3  UNL     1      15.595 -14.669 -14.813  1.00  0.00     0.054 A 
ATOM     18  H3  UNL     1      16.826 -16.283 -15.164  1.00  0.00     0.170 HD
BRANCH  11  19
HETATM   19  N1  UNL     1      13.210 -13.527 -17.143  1.00  0.00    -0.385 N 
ATOM     20  H12 UNL     1      12.939 -13.738 -18.104  1.00  0.00     0.157 HD
ATOM     21  H11 UNL     1      12.775 -12.789 -16.588  1.00  0.00     0.157 HD
ENDBRANCH  11  19
BRANCH  17  22
HETATM   22  C4  UNL     1      16.162 -14.411 -13.479  1.00  0.00     0.222 C 
BRANCH  22  23
HETATM   23  O2  UNL     1      17.237 -15.331 -13.286  1.00  0.00    -0.395 OA
ATOM     24  H2  UNL     1      17.962 -14.847 -12.908  1.00  0.00     0.209 HD
ENDBRANCH  22  23
ENDBRANCH  17  22
ENDBRANCH   1  10
BRANCH   7  25
HETATM   25  C10 UNL     1      13.648  -9.152 -14.396  1.00  0.00     0.161 A 
HETATM   26  N6  UNL     1      13.994  -8.219 -13.494  1.00  0.00    -0.268 N 
HETATM   27  N7  UNL     1      14.151  -7.043 -14.119  1.00  0.00    -0.007 NA
ATOM     28  H6  UNL     1      14.117  -8.379 -12.494  1.00  0.00     0.185 HD
HETATM   29  N8  UNL     1      13.907  -7.230 -15.405  1.00  0.00    -0.007 NA
HETATM   30  N9  UNL     1      13.600  -8.522 -15.575  1.00  0.00    -0.268 N 
ATOM     31  H9  UNL     1      13.364  -8.958 -16.466  1.00  0.00     0.185 HD
ENDBRANCH   7  25
BRANCH   6  32
HETATM   32  N5  UNL     1      11.761 -10.008 -12.402  1.00  0.00    -0.262 N 
ATOM     33  H5  UNL     1      10.920  -9.577 -12.787  1.00  0.00     0.194 HD
BRANCH  32  34
HETATM   34  O4  UNL     1      12.134  -9.702 -11.268  1.00  0.00    -0.289 OA
ATOM     35  H4  UNL     1      12.624  -8.903 -11.113  1.00  0.00     0.244 HD
ENDBRANCH  32  34
ENDBRANCH   6  32
TORSDOF 7
ENDMDL
MODEL 2
REMARK VINA RESULT: -8.046535978      1.669      3.204
REMARK  7 active torsions:
REMARK  status: ('A' for Active; 'I' for Inactive)
REMARK    1  A    between atoms: N1_1  and  C1_4 
REMARK    2  A    between atoms: C3_11  and  C4_12 
REMARK    3  A    between atoms: C4_12  and  O2_13 
REMARK    4  A    between atoms: C5_15  and  C6_16 
REMARK    5  A    between atoms: C8_21  and  N5_22 
REMARK    6  A    between atoms: N5_22  and  O4_24 
REMARK    7  A    between atoms: C9_26  and  C10_27 
ROOT
HETATM    1  C6  UNL     1      14.024 -12.776 -14.728  1.00  0.00     0.124 A 
HETATM    2  N4  UNL     1      14.188 -11.544 -15.340  1.00  0.00    -0.307 N 
ATOM      3  H4  UNL     1      14.797 -11.495 -16.157  1.00  0.00     0.170 HD
HETATM    4  C7  UNL     1      13.607 -10.425 -14.934  1.00  0.00     0.278 A 
HETATM    5  O3  UNL     1      13.755  -9.309 -15.489  1.00  0.00    -0.265 OA
HETATM    6  C8  UNL     1      12.771 -10.449 -13.824  1.00  0.00     0.152 A 
HETATM    7  C9  UNL     1      12.587 -11.653 -13.193  1.00  0.00     0.115 A 
HETATM    8  N10 UNL     1      13.230 -12.754 -13.685  1.00  0.00    -0.336 N 
ATOM      9  H10 UNL     1      13.077 -13.636 -13.197  1.00  0.00     0.168 HD
ENDROOT
BRANCH   1  10
HETATM   10  C5  UNL     1      14.679 -13.915 -15.361  1.00  0.00     0.076 A 
HETATM   11  C1  UNL     1      14.183 -14.301 -16.626  1.00  0.00     0.118 A 
HETATM   12  N2  UNL     1      14.627 -15.364 -17.290  1.00  0.00    -0.294 N 
HETATM   13  C2  UNL     1      15.584 -16.102 -16.739  1.00  0.00     0.326 A 
ATOM     14  H2  UNL     1      14.241 -15.607 -18.203  1.00  0.00     0.172 HD
HETATM   15  O1  UNL     1      16.010 -17.118 -17.371  1.00  0.00    -0.247 OA
HETATM   16  N3  UNL     1      16.083 -15.774 -15.545  1.00  0.00    -0.309 N 
HETATM   17  C3  UNL     1      15.657 -14.689 -14.825  1.00  0.00     0.054 A 
ATOM     18  H3  UNL     1      16.819 -16.360 -15.149  1.00  0.00     0.170 HD
BRANCH  11  19
HETATM   19  N1  UNL     1      13.251 -13.543 -17.130  1.00  0.00    -0.385 N 
ATOM     20  H12 UNL     1      12.731 -13.936 -17.916  1.00  0.00     0.157 HD
ATOM     21  H11 UNL     1      13.065 -12.618 -16.743  1.00  0.00     0.157 HD
ENDBRANCH  11  19
BRANCH  17  22
HETATM   22  C4  UNL     1      16.271 -14.406 -13.517  1.00  0.00     0.222 C 
BRANCH  22  23
HETATM   23  O2  UNL     1      17.418 -15.248 -13.390  1.00  0.00    -0.395 OA
ATOM     24  H2  UNL     1      17.189 -16.097 -13.749  1.00  0.00     0.209 HD
ENDBRANCH  22  23
ENDBRANCH  17  22
ENDBRANCH   1  10
BRANCH   7  25
HETATM   25  C10 UNL     1      11.727 -11.769 -12.022  1.00  0.00     0.161 A 
HETATM   26  N6  UNL     1      12.118 -11.759 -10.737  1.00  0.00    -0.268 N 
HETATM   27  N7  UNL     1      11.039 -11.888  -9.951  1.00  0.00    -0.007 NA
ATOM     28  H6  UNL     1      13.080 -11.666 -10.412  1.00  0.00     0.185 HD
HETATM   29  N8  UNL     1       9.976 -11.980 -10.731  1.00  0.00    -0.007 NA
HETATM   30  N9  UNL     1      10.397 -11.907 -12.000  1.00  0.00    -0.268 N 
ATOM     31  H9  UNL     1       9.796 -11.949 -12.822  1.00  0.00     0.185 HD
ENDBRANCH   7  25
BRANCH   6  32
HETATM   32  N5  UNL     1      12.141  -9.266 -13.377  1.00  0.00    -0.262 N 
ATOM     33  H5  UNL     1      12.474  -8.809 -12.528  1.00  0.00     0.194 HD
BRANCH  32  34
HETATM   34  O4  UNL     1      11.195  -8.776 -13.997  1.00  0.00    -0.289 OA
ATOM     35  H4  UNL     1      10.302  -8.886 -13.693  1.00  0.00     0.244 HD
ENDBRANCH  32  34
ENDBRANCH   6  32
TORSDOF 7
ENDMDL
MODEL 3
REMARK VINA RESULT: -7.945131989      2.103      6.492
REMARK  7 active torsions:
REMARK  status: ('A' for Active; 'I' for Inactive)
REMARK    1  A    between atoms: N1_1  and  C1_4 
REMARK    2  A    between atoms: C3_11  and  C4_12 
REMARK    3  A    between atoms: C4_12  and  O2_13 
REMARK    4  A    between atoms: C5_15  and  C6_16 
REMARK    5  A    between atoms: C8_21  and  N5_22 
REMARK    6  A    between atoms: N5_22  and  O4_24 
REMARK    7  A    between atoms: C9_26  and  C10_27 
ROOT
HETATM    1  C6  UNL     1      13.354 -10.297 -13.702  1.00  0.00     0.124 A 
HETATM    2  N4  UNL     1      12.190 -10.787 -13.133  1.00  0.00    -0.307 N 
ATOM      3  H4  UNL     1      11.471 -10.115 -12.863  1.00  0.00     0.170 HD
HETATM    4  C7  UNL     1      11.948 -12.071 -12.915  1.00  0.00     0.278 A 
HETATM    5  O3  UNL     1      10.893 -12.515 -12.399  1.00  0.00    -0.265 OA
HETATM    6  C8  UNL     1      12.902 -13.019 -13.266  1.00  0.00     0.152 A 
HETATM    7  C9  UNL     1      14.067 -12.567 -13.831  1.00  0.00     0.115 A 
HETATM    8  N10 UNL     1      14.227 -11.224 -14.017  1.00  0.00    -0.336 N 
ATOM      9  H10 UNL     1      15.103 -10.914 -14.438  1.00  0.00     0.168 HD
ENDROOT
BRANCH   1  10
HETATM   10  C5  UNL     1      13.413  -8.860 -13.939  1.00  0.00     0.076 A 
HETATM   11  C1  UNL     1      13.613  -8.451 -15.277  1.00  0.00     0.118 A 
HETATM   12  N2  UNL     1      13.765  -7.180 -15.637  1.00  0.00    -0.294 N 
HETATM   13  C2  UNL     1      13.727  -6.245 -14.695  1.00  0.00     0.326 A 
ATOM     14  H2  UNL     1      13.906  -6.929 -16.615  1.00  0.00     0.172 HD
HETATM   15  O1  UNL     1      13.870  -5.030 -15.035  1.00  0.00    -0.247 OA
HETATM   16  N3  UNL     1      13.539  -6.585 -13.417  1.00  0.00    -0.309 N 
HETATM   17  C3  UNL     1      13.379  -7.880 -12.999  1.00  0.00     0.054 A 
ATOM     18  H3  UNL     1      13.513  -5.843 -12.717  1.00  0.00     0.170 HD
BRANCH  11  19
HETATM   19  N1  UNL     1      13.636  -9.402 -16.167  1.00  0.00    -0.385 N 
ATOM     20  H12 UNL     1      12.972  -9.309 -16.938  1.00  0.00     0.157 HD
ATOM     21  H11 UNL     1      14.290 -10.179 -16.083  1.00  0.00     0.157 HD
ENDBRANCH  11  19
BRANCH  17  22
HETATM   22  C4  UNL     1      13.173  -8.155 -11.568  1.00  0.00     0.222 C 
BRANCH  22  23
HETATM   23  O2  UNL     1      11.767  -8.277 -11.352  1.00  0.00    -0.395 OA
ATOM     24  H2  UNL     1      11.639  -8.907 -10.653  1.00  0.00     0.209 HD
ENDBRANCH  22  23
ENDBRANCH  17  22
ENDBRANCH   1  10
BRANCH   7  25
HETATM   25  C10 UNL     1      15.121 -13.492 -14.230  1.00  0.00     0.161 A 
HETATM   26  N6  UNL     1      15.276 -14.058 -15.438  1.00  0.00    -0.268 N 
HETATM   27  N7  UNL     1      16.360 -14.848 -15.416  1.00  0.00    -0.007 NA
ATOM     28  H6  UNL     1      14.667 -13.911 -16.243  1.00  0.00     0.185 HD
HETATM   29  N8  UNL     1      16.887 -14.782 -14.205  1.00  0.00    -0.007 NA
HETATM   30  N9  UNL     1      16.128 -13.951 -13.479  1.00  0.00    -0.268 N 
ATOM     31  H9  UNL     1      16.293 -13.707 -12.502  1.00  0.00     0.185 HD
ENDBRANCH   7  25
BRANCH   6  32
HETATM   32  N5  UNL     1      12.661 -14.393 -13.042  1.00  0.00    -0.262 N 
ATOM     33  H5  UNL     1      12.602 -14.743 -12.086  1.00  0.00     0.194 HD
BRANCH  32  34
HETATM   34  O4  UNL     1      12.523 -15.175 -13.984  1.00  0.00    -0.289 OA
ATOM     35  H4  UNL     1      12.272 -16.079 -13.837  1.00  0.00     0.244 HD
ENDBRANCH  32  34
ENDBRANCH   6  32
TORSDOF 7
ENDMDL
MODEL 4
REMARK VINA RESULT: -7.868304898      4.765      6.910
REMARK  7 active torsions:
REMARK  status: ('A' for Active; 'I' for Inactive)
REMARK    1  A    between atoms: N1_1  and  C1_4 
REMARK    2  A    between atoms: C3_11  and  C4_12 
REMARK    3  A    between atoms: C4_12  and  O2_13 
REMARK    4  A    between atoms: C5_15  and  C6_16 
REMARK    5  A    between atoms: C8_21  and  N5_22 
REMARK    6  A    between atoms: N5_22  and  O4_24 
REMARK    7  A    between atoms: C9_26  and  C10_27 
ROOT
HETATM    1  C6  UNL     1      12.142  -9.290 -12.691  1.00  0.00     0.124 A 
HETATM    2  N4  UNL     1      10.974 -10.018 -12.852  1.00  0.00    -0.307 N 
ATOM      3  H4  UNL     1      10.323  -9.720 -13.578  1.00  0.00     0.170 HD
HETATM    4  C7  UNL     1      10.647 -11.075 -12.123  1.00  0.00     0.278 A 
HETATM    5  O3  UNL     1       9.589 -11.735 -12.269  1.00  0.00    -0.265 OA
HETATM    6  C8  UNL     1      11.506 -11.511 -11.121  1.00  0.00     0.152 A 
HETATM    7  C9  UNL     1      12.671 -10.812 -10.935  1.00  0.00     0.115 A 
HETATM    8  N10 UNL     1      12.922  -9.734 -11.735  1.00  0.00    -0.336 N 
ATOM      9  H10 UNL     1      13.795  -9.231 -11.575  1.00  0.00     0.168 HD
ENDROOT
BRANCH   1  10
HETATM   10  C5  UNL     1      12.373  -8.204 -13.636  1.00  0.00     0.076 A 
HETATM   11  C1  UNL     1      13.145  -8.518 -14.777  1.00  0.00     0.118 A 
HETATM   12  N2  UNL     1      13.502  -7.616 -15.686  1.00  0.00    -0.294 N 
HETATM   13  C2  UNL     1      13.117  -6.357 -15.517  1.00  0.00     0.326 A 
ATOM     14  H2  UNL     1      14.060  -7.886 -16.497  1.00  0.00     0.172 HD
HETATM   15  O1  UNL     1      13.456  -5.493 -16.385  1.00  0.00    -0.247 OA
HETATM   16  N3  UNL     1      12.385  -6.015 -14.454  1.00  0.00    -0.309 N 
HETATM   17  C3  UNL     1      11.994  -6.908 -13.492  1.00  0.00     0.054 A 
ATOM     18  H3  UNL     1      12.103  -5.039 -14.353  1.00  0.00     0.170 HD
BRANCH  11  19
HETATM   19  N1  UNL     1      13.493  -9.766 -14.905  1.00  0.00    -0.385 N 
ATOM     20  H12 UNL     1      13.640 -10.282 -14.037  1.00  0.00     0.157 HD
ATOM     21  H11 UNL     1      13.601 -10.185 -15.829  1.00  0.00     0.157 HD
ENDBRANCH  11  19
BRANCH  17  22
HETATM   22  C4  UNL     1      11.184  -6.436 -12.356  1.00  0.00     0.222 C 
BRANCH  22  23
HETATM   23  O2  UNL     1      10.274  -5.456 -12.856  1.00  0.00    -0.395 OA
ATOM     24  H2  UNL     1       9.524  -5.441 -12.275  1.00  0.00     0.209 HD
ENDBRANCH  22  23
ENDBRANCH  17  22
ENDBRANCH   1  10
BRANCH   7  25
HETATM   25  C10 UNL     1      13.629 -11.201  -9.907  1.00  0.00     0.161 A 
HETATM   26  N6  UNL     1      13.714 -10.705  -8.662  1.00  0.00    -0.268 N 
HETATM   27  N7  UNL     1      14.720 -11.312  -8.016  1.00  0.00    -0.007 NA
ATOM     28  H6  UNL     1      13.109  -9.982  -8.270  1.00  0.00     0.185 HD
HETATM   29  N8  UNL     1      15.267 -12.185  -8.845  1.00  0.00    -0.007 NA
HETATM   30  N9  UNL     1      14.599 -12.117 -10.003  1.00  0.00    -0.268 N 
ATOM     31  H9  UNL     1      14.799 -12.678 -10.831  1.00  0.00     0.185 HD
ENDBRANCH   7  25
BRANCH   6  32
HETATM   32  N5  UNL     1      11.174 -12.638 -10.335  1.00  0.00    -0.262 N 
ATOM     33  H5  UNL     1      11.763 -13.469 -10.376  1.00  0.00     0.194 HD
BRANCH  32  34
HETATM   34  O4  UNL     1      10.185 -12.631  -9.601  1.00  0.00    -0.289 OA
ATOM     35  H4  UNL     1      10.249 -12.354  -8.695  1.00  0.00     0.244 HD
ENDBRANCH  32  34
ENDBRANCH   6  32
TORSDOF 7
ENDMDL
MODEL 5
REMARK VINA RESULT: -7.608536243      1.773      6.616
REMARK  7 active torsions:
REMARK  status: ('A' for Active; 'I' for Inactive)
REMARK    1  A    between atoms: N1_1  and  C1_4 
REMARK    2  A    between atoms: C3_11  and  C4_12 
REMARK    3  A    between atoms: C4_12  and  O2_13 
REMARK    4  A    between atoms: C5_15  and  C6_16 
REMARK    5  A    between atoms: C8_21  and  N5_22 
REMARK    6  A    between atoms: N5_22  and  O4_24 
REMARK    7  A    between atoms: C9_26  and  C10_27 
ROOT
HETATM    1  C6  UNL     1      13.324 -11.484 -13.301  1.00  0.00     0.124 A 
HETATM    2  N4  UNL     1      14.083 -11.916 -12.224  1.00  0.00    -0.307 N 
ATOM      3  H4  UNL     1      13.971 -11.427 -11.336  1.00  0.00     0.170 HD
HETATM    4  C7  UNL     1      14.943 -12.921 -12.273  1.00  0.00     0.278 A 
HETATM    5  O3  UNL     1      15.629 -13.314 -11.298  1.00  0.00    -0.265 OA
HETATM    6  C8  UNL     1      15.126 -13.612 -13.465  1.00  0.00     0.152 A 
HETATM    7  C9  UNL     1      14.392 -13.209 -14.551  1.00  0.00     0.115 A 
HETATM    8  N10 UNL     1      13.528 -12.161 -14.405  1.00  0.00    -0.336 N 
ATOM      9  H10 UNL     1      12.995 -11.880 -15.228  1.00  0.00     0.168 HD
ENDROOT
BRANCH   1  10
HETATM   10  C5  UNL     1      12.370 -10.412 -13.042  1.00  0.00     0.076 A 
HETATM   11  C1  UNL     1      12.767  -9.112 -13.428  1.00  0.00     0.118 A 
HETATM   12  N2  UNL     1      12.038  -8.026 -13.187  1.00  0.00    -0.294 N 
HETATM   13  C2  UNL     1      10.880  -8.166 -12.553  1.00  0.00     0.326 A 
ATOM     14  H2  UNL     1      12.361  -7.105 -13.484  1.00  0.00     0.172 HD
HETATM   15  O1  UNL     1      10.181  -7.131 -12.322  1.00  0.00    -0.247 OA
HETATM   16  N3  UNL     1      10.465  -9.377 -12.170  1.00  0.00    -0.309 N 
HETATM   17  C3  UNL     1      11.181 -10.523 -12.395  1.00  0.00     0.054 A 
ATOM     18  H3  UNL     1       9.569  -9.452 -11.687  1.00  0.00     0.170 HD
BRANCH  11  19
HETATM   19  N1  UNL     1      13.905  -9.023 -14.053  1.00  0.00    -0.385 N 
ATOM     20  H12 UNL     1      14.603  -9.729 -13.815  1.00  0.00     0.157 HD
ATOM     21  H11 UNL     1      14.066  -8.288 -14.742  1.00  0.00     0.157 HD
ENDBRANCH  11  19
BRANCH  17  22
HETATM   22  C4  UNL     1      10.639 -11.813 -11.939  1.00  0.00     0.222 C 
BRANCH  22  23
HETATM   23  O2  UNL     1      11.302 -12.150 -10.721  1.00  0.00    -0.395 OA
ATOM     24  H2  UNL     1      11.615 -11.341 -10.332  1.00  0.00     0.209 HD
ENDBRANCH  22  23
ENDBRANCH  17  22
ENDBRANCH   1  10
BRANCH   7  25
HETATM   25  C10 UNL     1      14.520 -13.877 -15.840  1.00  0.00     0.161 A 
HETATM   26  N6  UNL     1      14.129 -13.400 -17.033  1.00  0.00    -0.268 N 
HETATM   27  N7  UNL     1      14.415 -14.303 -17.982  1.00  0.00    -0.007 NA
ATOM     28  H6  UNL     1      13.686 -12.495 -17.192  1.00  0.00     0.185 HD
HETATM   29  N8  UNL     1      14.982 -15.344 -17.395  1.00  0.00    -0.007 NA
HETATM   30  N9  UNL     1      15.047 -15.083 -16.083  1.00  0.00    -0.268 N 
ATOM     31  H9  UNL     1      15.437 -15.707 -15.378  1.00  0.00     0.185 HD
ENDBRANCH   7  25
BRANCH   6  32
HETATM   32  N5  UNL     1      16.038 -14.689 -13.536  1.00  0.00    -0.262 N 
ATOM     33  H5  UNL     1      15.719 -15.632 -13.318  1.00  0.00     0.194 HD
BRANCH  32  34
HETATM   34  O4  UNL     1      17.214 -14.505 -13.857  1.00  0.00    -0.289 OA
ATOM     35  H4  UNL     1      17.862 -15.191 -13.754  1.00  0.00     0.244 HD
ENDBRANCH  32  34
ENDBRANCH   6  32
TORSDOF 7
ENDMDL
