MODEL 1
REMARK VINA RESULT: -8.876926481      0.000      0.000
REMARK  9 active torsions:
REMARK  status: ('A' for Active; 'I' for Inactive)
REMARK    1  A    between atoms: N1_1  and  C1_4 
REMARK    2  A    between atoms: C2_7  and  N3_8 
REMARK    3  A    between atoms: N6_16  and  C4_17 
REMARK    4  A    between atoms: C4_17  and  C5_18 
REMARK    5  A    between atoms: C5_18  and  O1_19 
REMARK    6  A    between atoms: C5_18  and  C6_21 
REMARK    7  A    between atoms: C6_21  and  N7_22 
REMARK    8  A    between atoms: C7_25  and  N9_26 
REMARK    9  A    between atoms: C8_31  and  N11_32 
ROOT
HETATM    1  C1  UNL     1      11.541  -7.624 -12.966  1.00  0.00     0.679 A 
HETATM    2  N2  UNL     1      11.875  -6.856 -14.032  1.00  0.00    -0.175 N 
ATOM      3  H2  UNL     1      11.557  -5.888 -14.070  1.00  0.00     0.186 HD
HETATM    4  C2  UNL     1      12.616  -7.349 -15.040  1.00  0.00     0.147 A 
HETATM    5  C3  UNL     1      13.011  -8.672 -14.920  1.00  0.00     0.140 A 
HETATM    6  N4  UNL     1      13.727  -9.462 -15.705  1.00  0.00    -0.279 N 
ATOM      7  H4  UNL     1      14.136  -9.187 -16.598  1.00  0.00     0.189 HD
HETATM    8  N5  UNL     1      13.834 -10.656 -15.158  1.00  0.00    -0.238 N 
ATOM      9  H5  UNL     1      14.337 -11.442 -15.570  1.00  0.00     0.208 HD
HETATM   10  N6  UNL     1      13.207 -10.692 -14.021  1.00  0.00    -0.257 N 
HETATM   11  C9  UNL     1      12.670  -9.452 -13.835  1.00  0.00     0.171 A 
HETATM   12  N12 UNL     1      11.921  -8.909 -12.843  1.00  0.00    -0.173 N 
ATOM     13  H12 UNL     1      11.653  -9.459 -12.028  1.00  0.00     0.186 HD
ENDROOT
BRANCH  10  14
HETATM   14  C4  UNL     1      13.041 -11.760 -13.057  1.00  0.00     0.185 C 
BRANCH  14  15
HETATM   15  C5  UNL     1      13.150 -13.120 -13.654  1.00  0.00     0.158 C 
BRANCH  15  16
HETATM   16  O1  UNL     1      12.054 -13.889 -13.352  1.00  0.00    -0.392 OA
ATOM     17  H1  UNL     1      12.033 -14.683 -13.874  1.00  0.00     0.210 HD
ENDBRANCH  15  16
BRANCH  15  18
HETATM   18  C6  UNL     1      14.444 -13.833 -13.405  1.00  0.00     0.201 C 
BRANCH  18  19
HETATM   19  N7  UNL     1      14.942 -14.546 -14.558  1.00  0.00    -0.119 N 
HETATM   20  N8  UNL     1      14.324 -14.750 -15.690  1.00  0.00    -0.249 N 
HETATM   21  C7  UNL     1      15.059 -15.445 -16.557  1.00  0.00     0.279 A 
ATOM     22  H8  UNL     1      13.382 -14.413 -15.889  1.00  0.00     0.191 HD
HETATM   23  N10 UNL     1      16.238 -15.708 -15.931  1.00  0.00    -0.153 N 
HETATM   24  C8  UNL     1      16.153 -15.154 -14.711  1.00  0.00     0.695 A 
ATOM     25  H10 UNL     1      17.030 -16.224 -16.313  1.00  0.00     0.187 HD
BRANCH  21  26
HETATM   26  N9  UNL     1      14.705 -15.847 -17.881  1.00  0.00    -0.077 N 
HETATM   27  O2  UNL     1      13.541 -16.063 -18.217  1.00  0.00    -0.529 OA
HETATM   28  O3  UNL     1      15.707 -15.994 -18.796  1.00  0.00    -0.529 OA
ENDBRANCH  21  26
BRANCH  24  29
HETATM   29  N11 UNL     1      17.073 -15.179 -13.800  1.00  0.00    -0.233 N 
ATOM     30 2H11 UNL     1      17.069 -14.647 -12.930  1.00  0.00     0.174 HD
ATOM     31 1H11 UNL     1      17.918 -15.748 -13.856  1.00  0.00     0.174 HD
ENDBRANCH  24  29
ENDBRANCH  18  19
ENDBRANCH  15  18
ENDBRANCH  14  15
ENDBRANCH  10  14
BRANCH   4  32
HETATM   32  N3  UNL     1      12.925  -6.604 -16.047  1.00  0.00    -0.383 N 
ATOM     33  H32 UNL     1      13.535  -5.789 -15.976  1.00  0.00     0.157 HD
ATOM     34  H31 UNL     1      12.557  -6.813 -16.975  1.00  0.00     0.157 HD
ENDBRANCH   4  32
BRANCH   1  35
HETATM   35  N1  UNL     1      10.830  -7.084 -12.040  1.00  0.00    -0.234 N 
ATOM     36  H12 UNL     1      10.115  -6.402 -12.291  1.00  0.00     0.174 HD
ATOM     37  H11 UNL     1      11.014  -7.365 -11.077  1.00  0.00     0.174 HD
ENDBRANCH   1  35
TORSDOF 9
ENDMDL
MODEL 2
REMARK VINA RESULT: -8.512297387      3.383      8.138
REMARK  9 active torsions:
REMARK  status: ('A' for Active; 'I' for Inactive)
REMARK    1  A    between atoms: N1_1  and  C1_4 
REMARK    2  A    between atoms: C2_7  and  N3_8 
REMARK    3  A    between atoms: N6_16  and  C4_17 
REMARK    4  A    between atoms: C4_17  and  C5_18 
REMARK    5  A    between atoms: C5_18  and  O1_19 
REMARK    6  A    between atoms: C5_18  and  C6_21 
REMARK    7  A    between atoms: C6_21  and  N7_22 
REMARK    8  A    between atoms: C7_25  and  N9_26 
REMARK    9  A    between atoms: C8_31  and  N11_32 
ROOT
HETATM    1  C1  UNL     1      14.497 -13.684 -16.147  1.00  0.00     0.679 A 
HETATM    2  N2  UNL     1      15.454 -14.501 -15.643  1.00  0.00    -0.175 N 
ATOM      3  H2  UNL     1      15.889 -15.195 -16.250  1.00  0.00     0.186 HD
HETATM    4  C2  UNL     1      15.838 -14.414 -14.357  1.00  0.00     0.147 A 
HETATM    5  C3  UNL     1      15.202 -13.449 -13.592  1.00  0.00     0.140 A 
HETATM    6  N4  UNL     1      15.325 -13.096 -12.322  1.00  0.00    -0.279 N 
ATOM      7  H4  UNL     1      15.970 -13.520 -11.655  1.00  0.00     0.189 HD
HETATM    8  N5  UNL     1      14.491 -12.113 -12.049  1.00  0.00    -0.238 N 
ATOM      9  H5  UNL     1      14.395 -11.667 -11.137  1.00  0.00     0.208 HD
HETATM   10  N6  UNL     1      13.806 -11.793 -13.106  1.00  0.00    -0.257 N 
HETATM   11  C9  UNL     1      14.228 -12.619 -14.106  1.00  0.00     0.171 A 
HETATM   12  N12 UNL     1      13.875 -12.746 -15.409  1.00  0.00    -0.173 N 
ATOM     13  H12 UNL     1      13.159 -12.146 -15.819  1.00  0.00     0.186 HD
ENDROOT
BRANCH  10  14
HETATM   14  C4  UNL     1      12.785 -10.787 -13.311  1.00  0.00     0.185 C 
BRANCH  14  15
HETATM   15  C5  UNL     1      13.333  -9.415 -13.504  1.00  0.00     0.158 C 
BRANCH  15  16
HETATM   16  O1  UNL     1      12.910  -8.562 -12.516  1.00  0.00    -0.392 OA
ATOM     17  H1  UNL     1      12.076  -8.837 -12.155  1.00  0.00     0.210 HD
ENDBRANCH  15  16
BRANCH  15  18
HETATM   18  C6  UNL     1      13.165  -8.840 -14.877  1.00  0.00     0.201 C 
BRANCH  18  19
HETATM   19  N7  UNL     1      12.657  -7.488 -14.879  1.00  0.00    -0.119 N 
HETATM   20  N8  UNL     1      11.495  -7.079 -14.446  1.00  0.00    -0.249 N 
HETATM   21  C7  UNL     1      11.331  -5.764 -14.586  1.00  0.00     0.279 A 
ATOM     22  H8  UNL     1      10.791  -7.697 -14.043  1.00  0.00     0.191 HD
HETATM   23  N10 UNL     1      12.475  -5.297 -15.155  1.00  0.00    -0.153 N 
HETATM   24  C8  UNL     1      13.276  -6.359 -15.329  1.00  0.00     0.695 A 
ATOM     25  H10 UNL     1      12.683  -4.329 -15.400  1.00  0.00     0.187 HD
BRANCH  21  26
HETATM   26  N9  UNL     1      10.193  -4.980 -14.223  1.00  0.00    -0.077 N 
HETATM   27  O2  UNL     1      10.135  -4.349 -13.168  1.00  0.00    -0.529 OA
HETATM   28  O3  UNL     1       9.140  -4.939 -15.090  1.00  0.00    -0.529 OA
ENDBRANCH  21  26
BRANCH  24  29
HETATM   29  N11 UNL     1      14.465  -6.338 -15.843  1.00  0.00    -0.233 N 
ATOM     30 2H11 UNL     1      15.188  -7.045 -15.707  1.00  0.00     0.174 HD
ATOM     31 1H11 UNL     1      14.811  -5.598 -16.453  1.00  0.00     0.174 HD
ENDBRANCH  24  29
ENDBRANCH  18  19
ENDBRANCH  15  18
ENDBRANCH  14  15
ENDBRANCH  10  14
BRANCH   4  32
HETATM   32  N3  UNL     1      16.751 -15.199 -13.894  1.00  0.00    -0.383 N 
ATOM     33  H32 UNL     1      17.726 -15.164 -14.194  1.00  0.00     0.157 HD
ATOM     34  H31 UNL     1      16.519 -15.902 -13.193  1.00  0.00     0.157 HD
ENDBRANCH   4  32
BRANCH   1  35
HETATM   35  N1  UNL     1      14.181 -13.826 -17.385  1.00  0.00    -0.234 N 
ATOM     36  H12 UNL     1      14.661 -13.268 -18.092  1.00  0.00     0.174 HD
ATOM     37  H11 UNL     1      13.452 -14.502 -17.614  1.00  0.00     0.174 HD
ENDBRANCH   1  35
TORSDOF 9
ENDMDL
MODEL 3
REMARK VINA RESULT: -8.484446055      2.231      3.366
REMARK  9 active torsions:
REMARK  status: ('A' for Active; 'I' for Inactive)
REMARK    1  A    between atoms: N1_1  and  C1_4 
REMARK    2  A    between atoms: C2_7  and  N3_8 
REMARK    3  A    between atoms: N6_16  and  C4_17 
REMARK    4  A    between atoms: C4_17  and  C5_18 
REMARK    5  A    between atoms: C5_18  and  O1_19 
REMARK    6  A    between atoms: C5_18  and  C6_21 
REMARK    7  A    between atoms: C6_21  and  N7_22 
REMARK    8  A    between atoms: C7_25  and  N9_26 
REMARK    9  A    between atoms: C8_31  and  N11_32 
ROOT
HETATM    1  C1  UNL     1      10.513  -8.735 -11.719  1.00  0.00     0.679 A 
HETATM    2  N2  UNL     1       9.634  -8.976 -10.716  1.00  0.00    -0.175 N 
ATOM      3  H2  UNL     1       8.980  -8.246 -10.437  1.00  0.00     0.186 HD
HETATM    4  C2  UNL     1       9.610 -10.162 -10.081  1.00  0.00     0.147 A 
HETATM    5  C3  UNL     1      10.529 -11.106 -10.513  1.00  0.00     0.140 A 
HETATM    6  N4  UNL     1      10.781 -12.346 -10.123  1.00  0.00    -0.279 N 
ATOM      7  H4  UNL     1      10.289 -12.838  -9.377  1.00  0.00     0.189 HD
HETATM    8  N5  UNL     1      11.764 -12.849 -10.843  1.00  0.00    -0.238 N 
ATOM      9  H5  UNL     1      12.143 -13.789 -10.734  1.00  0.00     0.208 HD
HETATM   10  N6  UNL     1      12.181 -11.978 -11.712  1.00  0.00    -0.257 N 
HETATM   11  C9  UNL     1      11.423 -10.859 -11.533  1.00  0.00     0.171 A 
HETATM   12  N12 UNL     1      11.407  -9.647 -12.143  1.00  0.00    -0.173 N 
ATOM     13  H12 UNL     1      12.054  -9.433 -12.901  1.00  0.00     0.186 HD
ENDROOT
BRANCH  10  14
HETATM   14  C4  UNL     1      13.220 -12.057 -12.717  1.00  0.00     0.185 C 
BRANCH  14  15
HETATM   15  C5  UNL     1      13.184 -13.317 -13.511  1.00  0.00     0.158 C 
BRANCH  15  16
HETATM   16  O1  UNL     1      11.962 -13.936 -13.415  1.00  0.00    -0.392 OA
ATOM     17  H1  UNL     1      11.467 -13.854 -14.221  1.00  0.00     0.210 HD
ENDBRANCH  15  16
BRANCH  15  18
HETATM   18  C6  UNL     1      14.329 -14.256 -13.285  1.00  0.00     0.201 C 
BRANCH  18  19
HETATM   19  N7  UNL     1      14.886 -14.792 -14.506  1.00  0.00    -0.119 N 
HETATM   20  N8  UNL     1      14.259 -15.019 -15.628  1.00  0.00    -0.249 N 
HETATM   21  C7  UNL     1      15.060 -15.516 -16.570  1.00  0.00     0.279 A 
ATOM     22  H8  UNL     1      13.266 -14.836 -15.769  1.00  0.00     0.191 HD
HETATM   23  N10 UNL     1      16.294 -15.616 -16.006  1.00  0.00    -0.153 N 
HETATM   24  C8  UNL     1      16.174 -15.171 -14.745  1.00  0.00     0.695 A 
ATOM     25  H10 UNL     1      17.143 -15.961 -16.453  1.00  0.00     0.187 HD
BRANCH  21  26
HETATM   26  N9  UNL     1      14.718 -15.880 -17.908  1.00  0.00    -0.077 N 
HETATM   27  O2  UNL     1      13.562 -16.126 -18.251  1.00  0.00    -0.529 OA
HETATM   28  O3  UNL     1      15.723 -15.954 -18.829  1.00  0.00    -0.529 OA
ENDBRANCH  21  26
BRANCH  24  29
HETATM   29  N11 UNL     1      17.126 -15.101 -13.870  1.00  0.00    -0.233 N 
ATOM     30 2H11 UNL     1      17.104 -15.493 -12.929  1.00  0.00     0.174 HD
ATOM     31 1H11 UNL     1      18.020 -14.638 -14.033  1.00  0.00     0.174 HD
ENDBRANCH  24  29
ENDBRANCH  18  19
ENDBRANCH  15  18
ENDBRANCH  14  15
ENDBRANCH  10  14
BRANCH   4  32
HETATM   32  N3  UNL     1       8.766 -10.375  -9.129  1.00  0.00    -0.383 N 
ATOM     33  H32 UNL     1       8.970 -10.962  -8.319  1.00  0.00     0.157 HD
ATOM     34  H31 UNL     1       7.839  -9.951  -9.157  1.00  0.00     0.157 HD
ENDBRANCH   4  32
BRANCH   1  35
HETATM   35  N1  UNL     1      10.477  -7.578 -12.279  1.00  0.00    -0.234 N 
ATOM     36  H12 UNL     1      10.186  -7.501 -13.254  1.00  0.00     0.174 HD
ATOM     37  H11 UNL     1      10.745  -6.770 -11.716  1.00  0.00     0.174 HD
ENDBRANCH   1  35
TORSDOF 9
ENDMDL
MODEL 4
REMARK VINA RESULT: -8.334506537      2.527      3.422
REMARK  9 active torsions:
REMARK  status: ('A' for Active; 'I' for Inactive)
REMARK    1  A    between atoms: N1_1  and  C1_4 
REMARK    2  A    between atoms: C2_7  and  N3_8 
REMARK    3  A    between atoms: N6_16  and  C4_17 
REMARK    4  A    between atoms: C4_17  and  C5_18 
REMARK    5  A    between atoms: C5_18  and  O1_19 
REMARK    6  A    between atoms: C5_18  and  C6_21 
REMARK    7  A    between atoms: C6_21  and  N7_22 
REMARK    8  A    between atoms: C7_25  and  N9_26 
REMARK    9  A    between atoms: C8_31  and  N11_32 
ROOT
HETATM    1  C1  UNL     1       9.543 -11.559  -9.404  1.00  0.00     0.679 A 
HETATM    2  N2  UNL     1       9.212 -10.255  -9.571  1.00  0.00    -0.175 N 
ATOM      3  H2  UNL     1       8.485  -9.845  -8.985  1.00  0.00     0.186 HD
HETATM    4  C2  UNL     1       9.826  -9.493 -10.493  1.00  0.00     0.147 A 
HETATM    5  C3  UNL     1      10.803 -10.119 -11.252  1.00  0.00     0.140 A 
HETATM    6  N4  UNL     1      11.588  -9.685 -12.226  1.00  0.00    -0.279 N 
ATOM      7  H4  UNL     1      11.591  -8.735 -12.597  1.00  0.00     0.189 HD
HETATM    8  N5  UNL     1      12.363 -10.665 -12.645  1.00  0.00    -0.238 N 
ATOM      9  H5  UNL     1      13.055 -10.582 -13.389  1.00  0.00     0.208 HD
HETATM   10  N6  UNL     1      12.122 -11.752 -11.975  1.00  0.00    -0.257 N 
HETATM   11  C9  UNL     1      11.137 -11.446 -11.082  1.00  0.00     0.171 A 
HETATM   12  N12 UNL     1      10.490 -12.172 -10.138  1.00  0.00    -0.173 N 
ATOM     13  H12 UNL     1      10.714 -13.156  -9.987  1.00  0.00     0.186 HD
ENDROOT
BRANCH  10  14
HETATM   14  C4  UNL     1      12.709 -13.072 -12.059  1.00  0.00     0.185 C 
BRANCH  14  15
HETATM   15  C5  UNL     1      13.099 -13.463 -13.442  1.00  0.00     0.158 C 
BRANCH  15  16
HETATM   16  O1  UNL     1      12.566 -14.679 -13.790  1.00  0.00    -0.392 OA
ATOM     17  H1  UNL     1      12.617 -14.825 -14.727  1.00  0.00     0.210 HD
ENDBRANCH  15  16
BRANCH  15  18
HETATM   18  C6  UNL     1      14.560 -13.360 -13.755  1.00  0.00     0.201 C 
BRANCH  18  19
HETATM   19  N7  UNL     1      14.996 -14.270 -14.788  1.00  0.00    -0.119 N 
HETATM   20  N8  UNL     1      14.435 -14.476 -15.949  1.00  0.00    -0.249 N 
HETATM   21  C7  UNL     1      15.086 -15.381 -16.679  1.00  0.00     0.279 A 
ATOM     22  H8  UNL     1      13.592 -13.996 -16.264  1.00  0.00     0.191 HD
HETATM   23  N10 UNL     1      16.143 -15.787 -15.925  1.00  0.00    -0.153 N 
HETATM   24  C8  UNL     1      16.077 -15.101 -14.774  1.00  0.00     0.695 A 
ATOM     25  H10 UNL     1      16.848 -16.477 -16.185  1.00  0.00     0.187 HD
BRANCH  21  26
HETATM   26  N9  UNL     1      14.759 -15.850 -17.988  1.00  0.00    -0.077 N 
HETATM   27  O2  UNL     1      13.621 -16.197 -18.301  1.00  0.00    -0.529 OA
HETATM   28  O3  UNL     1      15.759 -15.909 -18.916  1.00  0.00    -0.529 OA
ENDBRANCH  21  26
BRANCH  24  29
HETATM   29  N11 UNL     1      16.906 -15.198 -13.783  1.00  0.00    -0.233 N 
ATOM     30 2H11 UNL     1      17.202 -14.434 -13.175  1.00  0.00     0.174 HD
ATOM     31 1H11 UNL     1      17.359 -16.066 -13.500  1.00  0.00     0.174 HD
ENDBRANCH  24  29
ENDBRANCH  18  19
ENDBRANCH  15  18
ENDBRANCH  14  15
ENDBRANCH  10  14
BRANCH   4  32
HETATM   32  N3  UNL     1       9.500  -8.254 -10.638  1.00  0.00    -0.383 N 
ATOM     33  H32 UNL     1      10.075  -7.479 -10.304  1.00  0.00     0.157 HD
ATOM     34  H31 UNL     1       8.629  -8.001 -11.104  1.00  0.00     0.157 HD
ENDBRANCH   4  32
BRANCH   1  35
HETATM   35  N1  UNL     1       8.912 -12.224  -8.502  1.00  0.00    -0.234 N 
ATOM     36  H12 UNL     1       7.981 -11.923  -8.216  1.00  0.00     0.174 HD
ATOM     37  H11 UNL     1       9.378 -13.040  -8.102  1.00  0.00     0.174 HD
ENDBRANCH   1  35
TORSDOF 9
ENDMDL
MODEL 5
REMARK VINA RESULT: -8.307516576      2.160      3.235
REMARK  9 active torsions:
REMARK  status: ('A' for Active; 'I' for Inactive)
REMARK    1  A    between atoms: N1_1  and  C1_4 
REMARK    2  A    between atoms: C2_7  and  N3_8 
REMARK    3  A    between atoms: N6_16  and  C4_17 
REMARK    4  A    between atoms: C4_17  and  C5_18 
REMARK    5  A    between atoms: C5_18  and  O1_19 
REMARK    6  A    between atoms: C5_18  and  C6_21 
REMARK    7  A    between atoms: C6_21  and  N7_22 
REMARK    8  A    between atoms: C7_25  and  N9_26 
REMARK    9  A    between atoms: C8_31  and  N11_32 
ROOT
HETATM    1  C1  UNL     1      11.302  -8.811 -12.560  1.00  0.00     0.679 A 
HETATM    2  N2  UNL     1      10.201  -8.462 -11.851  1.00  0.00    -0.175 N 
ATOM      3  H2  UNL     1       9.792  -7.538 -11.986  1.00  0.00     0.186 HD
HETATM    4  C2  UNL     1       9.640  -9.311 -10.972  1.00  0.00     0.147 A 
HETATM    5  C3  UNL     1      10.251 -10.548 -10.841  1.00  0.00     0.140 A 
HETATM    6  N4  UNL     1       9.976 -11.601 -10.087  1.00  0.00    -0.279 N 
ATOM      7  H4  UNL     1       9.199 -11.665  -9.430  1.00  0.00     0.189 HD
HETATM    8  N5  UNL     1      10.858 -12.554 -10.313  1.00  0.00    -0.238 N 
ATOM      9  H5  UNL     1      10.862 -13.464  -9.853  1.00  0.00     0.208 HD
HETATM   10  N6  UNL     1      11.723 -12.170 -11.203  1.00  0.00    -0.257 N 
HETATM   11  C9  UNL     1      11.372 -10.902 -11.562  1.00  0.00     0.171 A 
HETATM   12  N12 UNL     1      11.901 -10.010 -12.436  1.00  0.00    -0.173 N 
ATOM     13  H12 UNL     1      12.728 -10.242 -12.985  1.00  0.00     0.186 HD
ENDROOT
BRANCH  10  14
HETATM   14  C4  UNL     1      12.862 -12.851 -11.781  1.00  0.00     0.185 C 
BRANCH  14  15
HETATM   15  C5  UNL     1      12.733 -13.085 -13.247  1.00  0.00     0.158 C 
BRANCH  15  16
HETATM   16  O1  UNL     1      12.327 -14.368 -13.517  1.00  0.00    -0.392 OA
ATOM     17  H1  UNL     1      11.797 -14.720 -12.812  1.00  0.00     0.210 HD
ENDBRANCH  15  16
BRANCH  15  18
HETATM   18  C6  UNL     1      13.909 -12.663 -14.074  1.00  0.00     0.201 C 
BRANCH  18  19
HETATM   19  N7  UNL     1      14.563 -13.758 -14.750  1.00  0.00    -0.119 N 
HETATM   20  N8  UNL     1      14.345 -14.181 -15.966  1.00  0.00    -0.249 N 
HETATM   21  C7  UNL     1      15.119 -15.215 -16.295  1.00  0.00     0.279 A 
ATOM     22  H8  UNL     1      13.659 -13.765 -16.595  1.00  0.00     0.191 HD
HETATM   23  N10 UNL     1      15.890 -15.475 -15.205  1.00  0.00    -0.153 N 
HETATM   24  C8  UNL     1      15.541 -14.579 -14.269  1.00  0.00     0.695 A 
ATOM     25  H10 UNL     1      16.595 -16.206 -15.117  1.00  0.00     0.187 HD
BRANCH  21  26
HETATM   26  N9  UNL     1      15.151 -15.926 -17.534  1.00  0.00    -0.077 N 
HETATM   27  O2  UNL     1      14.179 -15.986 -18.286  1.00  0.00    -0.529 OA
HETATM   28  O3  UNL     1      16.311 -16.556 -17.881  1.00  0.00    -0.529 OA
ENDBRANCH  21  26
BRANCH  24  29
HETATM   29  N11 UNL     1      16.045 -14.487 -13.079  1.00  0.00    -0.233 N 
ATOM     30 2H11 UNL     1      15.718 -13.869 -12.337  1.00  0.00     0.174 HD
ATOM     31 1H11 UNL     1      16.839 -15.036 -12.751  1.00  0.00     0.174 HD
ENDBRANCH  24  29
ENDBRANCH  18  19
ENDBRANCH  15  18
ENDBRANCH  14  15
ENDBRANCH  10  14
BRANCH   4  32
HETATM   32  N3  UNL     1       8.591  -8.963 -10.307  1.00  0.00    -0.383 N 
ATOM     33  H32 UNL     1       8.259  -8.000 -10.246  1.00  0.00     0.157 HD
ATOM     34  H31 UNL     1       8.045  -9.661  -9.803  1.00  0.00     0.157 HD
ENDBRANCH   4  32
BRANCH   1  35
HETATM   35  N1  UNL     1      11.783  -7.946 -13.381  1.00  0.00    -0.234 N 
ATOM     36  H12 UNL     1      12.072  -7.032 -13.035  1.00  0.00     0.174 HD
ATOM     37  H11 UNL     1      11.857  -8.215 -14.363  1.00  0.00     0.174 HD
ENDBRANCH   1  35
TORSDOF 9
ENDMDL
