MODEL 1
REMARK VINA RESULT: -8.366934934      0.000      0.000
REMARK  9 active torsions:
REMARK  status: ('A' for Active; 'I' for Inactive)
REMARK    1  A    between atoms: N1_1  and  C1_4 
REMARK    2  A    between atoms: C2_7  and  C3_8 
REMARK    3  A    between atoms: C3_8  and  N3_10 
REMARK    4  A    between atoms: N3_10  and  O1_12 
REMARK    5  A    between atoms: O1_12  and  C4_13 
REMARK    6  A    between atoms: C4_13  and  C5_14 
REMARK    7  A    between atoms: N4_16  and  C7_17 
REMARK    8  A    between atoms: C8_23  and  N7_24 
REMARK    9  A    between atoms: C9_33  and  N11_34 
ROOT
HETATM    1  N3  UNL     1      12.043 -12.806 -12.080  1.00  0.00    -0.252 N 
ATOM      2  H3  UNL     1      11.662 -13.468 -11.404  1.00  0.00     0.195 HD
ENDROOT
BRANCH   1   3
HETATM    3  C3  UNL     1      13.444 -12.654 -12.206  1.00  0.00     0.166 C 
HETATM    4  S1  UNL     1      14.274 -11.920 -11.034  1.00  0.00    -0.054 SA
BRANCH   3   5
HETATM    5  C2  UNL     1      14.177 -13.142 -13.369  1.00  0.00     0.176 A 
HETATM    6  N2  UNL     1      13.849 -12.828 -14.634  1.00  0.00    -0.173 N 
HETATM    7  C1  UNL     1      14.571 -13.314 -15.675  1.00  0.00     0.692 A 
ATOM      8  H2  UNL     1      13.051 -12.219 -14.813  1.00  0.00     0.186 HD
HETATM    9  N12 UNL     1      15.630 -14.121 -15.440  1.00  0.00    -0.023 N 
HETATM   10  C9  UNL     1      15.967 -14.439 -14.197  1.00  0.00     0.692 A 
ATOM     11  H12 UNL     1      16.173 -14.487 -16.222  1.00  0.00     0.203 HD
HETATM   12  N10 UNL     1      15.231 -13.943 -13.173  1.00  0.00    -0.173 N 
ATOM     13  H10 UNL     1      15.491 -14.188 -12.218  1.00  0.00     0.186 HD
BRANCH   7  14
HETATM   14  N1  UNL     1      14.290 -13.038 -16.904  1.00  0.00    -0.234 N 
ATOM     15  H12 UNL     1      15.064 -12.801 -17.525  1.00  0.00     0.174 HD
ATOM     16  H11 UNL     1      13.336 -13.049 -17.265  1.00  0.00     0.174 HD
ENDBRANCH   7  14
BRANCH  10  17
HETATM   17  N11 UNL     1      16.961 -15.196 -13.965  1.00  0.00    -0.234 N 
ATOM     18 2H11 UNL     1      16.824 -16.146 -13.618  1.00  0.00     0.174 HD
ATOM     19 1H11 UNL     1      17.911 -14.862 -14.123  1.00  0.00     0.174 HD
ENDBRANCH  10  17
ENDBRANCH   3   5
ENDBRANCH   1   3
BRANCH   1  20
HETATM   20  O1  UNL     1      11.209 -12.079 -12.851  1.00  0.00    -0.273 OA
BRANCH  20  21
HETATM   21  C4  UNL     1      10.502 -11.127 -12.133  1.00  0.00     0.261 C 
BRANCH  21  22
HETATM   22  C5  UNL     1      10.853  -9.760 -12.563  1.00  0.00     0.070 A 
HETATM   23  C6  UNL     1      11.726  -9.394 -13.566  1.00  0.00     0.148 A 
HETATM   24  N4  UNL     1      11.778  -8.049 -13.654  1.00  0.00    -0.230 N 
HETATM   25  N8  UNL     1      10.956  -7.598 -12.728  1.00  0.00    -0.234 N 
HETATM   26  N9  UNL     1      10.391  -8.591 -12.062  1.00  0.00    -0.286 N 
ATOM     27  H8  UNL     1      10.779  -6.610 -12.547  1.00  0.00     0.209 HD
ATOM     28  H9  UNL     1       9.720  -8.492 -11.300  1.00  0.00     0.188 HD
BRANCH  24  29
HETATM   29  C7  UNL     1      12.557  -7.279 -14.559  1.00  0.00     0.195 A 
HETATM   30  N5  UNL     1      13.898  -7.202 -14.599  1.00  0.00    -0.220 N 
HETATM   31  O2  UNL     1      14.228  -6.392 -15.568  1.00  0.00    -0.153 OA
ATOM     32  H5  UNL     1      14.545  -7.691 -13.981  1.00  0.00     0.198 HD
HETATM   33  N6  UNL     1      13.156  -5.937 -16.165  1.00  0.00    -0.222 N 
HETATM   34  C8  UNL     1      12.087  -6.464 -15.567  1.00  0.00     0.169 A 
ATOM     35  H6  UNL     1      13.141  -5.288 -16.953  1.00  0.00     0.198 HD
BRANCH  34  36
HETATM   36  N7  UNL     1      10.843  -6.238 -15.891  1.00  0.00    -0.381 N 
ATOM     37  H72 UNL     1      10.496  -6.055 -16.833  1.00  0.00     0.157 HD
ATOM     38  H71 UNL     1      10.035  -6.208 -15.269  1.00  0.00     0.157 HD
ENDBRANCH  34  36
ENDBRANCH  24  29
ENDBRANCH  21  22
ENDBRANCH  20  21
ENDBRANCH   1  20
TORSDOF 9
ENDMDL
MODEL 2
REMARK VINA RESULT: -8.270752777      0.090      1.612
REMARK  9 active torsions:
REMARK  status: ('A' for Active; 'I' for Inactive)
REMARK    1  A    between atoms: N1_1  and  C1_4 
REMARK    2  A    between atoms: C2_7  and  C3_8 
REMARK    3  A    between atoms: C3_8  and  N3_10 
REMARK    4  A    between atoms: N3_10  and  O1_12 
REMARK    5  A    between atoms: O1_12  and  C4_13 
REMARK    6  A    between atoms: C4_13  and  C5_14 
REMARK    7  A    between atoms: N4_16  and  C7_17 
REMARK    8  A    between atoms: C8_23  and  N7_24 
REMARK    9  A    between atoms: C9_33  and  N11_34 
ROOT
HETATM    1  N3  UNL     1      11.997 -12.784 -12.157  1.00  0.00    -0.252 N 
ATOM      2  H3  UNL     1      11.598 -13.495 -11.544  1.00  0.00     0.195 HD
ENDROOT
BRANCH   1   3
HETATM    3  C3  UNL     1      13.402 -12.618 -12.224  1.00  0.00     0.166 C 
HETATM    4  S1  UNL     1      14.161 -11.791 -11.067  1.00  0.00    -0.054 SA
BRANCH   3   5
HETATM    5  C2  UNL     1      14.198 -13.174 -13.312  1.00  0.00     0.176 A 
HETATM    6  N2  UNL     1      15.273 -13.958 -13.116  1.00  0.00    -0.173 N 
HETATM    7  C1  UNL     1      15.974 -14.444 -14.170  1.00  0.00     0.692 A 
ATOM      8  H2  UNL     1      15.563 -14.189 -12.166  1.00  0.00     0.186 HD
HETATM    9  N12 UNL     1      15.590 -14.140 -15.431  1.00  0.00    -0.023 N 
HETATM   10  C9  UNL     1      14.532 -13.368 -15.641  1.00  0.00     0.692 A 
ATOM     11  H12 UNL     1      16.117 -14.505 -16.225  1.00  0.00     0.203 HD
HETATM   12  N10 UNL     1      13.847 -12.893 -14.572  1.00  0.00    -0.173 N 
ATOM     13  H10 UNL     1      13.034 -12.300 -14.735  1.00  0.00     0.186 HD
BRANCH   7  14
HETATM   14  N1  UNL     1      17.011 -15.199 -14.026  1.00  0.00    -0.234 N 
ATOM     15  H12 UNL     1      16.981 -15.910 -13.295  1.00  0.00     0.174 HD
ATOM     16  H11 UNL     1      17.842 -15.107 -14.610  1.00  0.00     0.174 HD
ENDBRANCH   7  14
BRANCH  10  17
HETATM   17  N11 UNL     1      14.162 -13.076 -16.821  1.00  0.00    -0.234 N 
ATOM     18 2H11 UNL     1      14.744 -13.313 -17.624  1.00  0.00     0.174 HD
ATOM     19 1H11 UNL     1      13.275 -12.598 -16.979  1.00  0.00     0.174 HD
ENDBRANCH  10  17
ENDBRANCH   3   5
ENDBRANCH   1   3
BRANCH   1  20
HETATM   20  O1  UNL     1      11.185 -12.005 -12.901  1.00  0.00    -0.273 OA
BRANCH  20  21
HETATM   21  C4  UNL     1      10.512 -11.055 -12.150  1.00  0.00     0.261 C 
BRANCH  21  22
HETATM   22  C5  UNL     1      10.879  -9.686 -12.563  1.00  0.00     0.070 A 
HETATM   23  C6  UNL     1      11.730  -9.318 -13.584  1.00  0.00     0.148 A 
HETATM   24  N4  UNL     1      11.807  -7.972 -13.646  1.00  0.00    -0.230 N 
HETATM   25  N8  UNL     1      11.021  -7.524 -12.687  1.00  0.00    -0.234 N 
HETATM   26  N9  UNL     1      10.455  -8.519 -12.025  1.00  0.00    -0.286 N 
ATOM     27  H8  UNL     1      10.870  -6.536 -12.482  1.00  0.00     0.209 HD
ATOM     28  H9  UNL     1       9.809  -8.423 -11.242  1.00  0.00     0.188 HD
BRANCH  24  29
HETATM   29  C7  UNL     1      12.575  -7.199 -14.557  1.00  0.00     0.195 A 
HETATM   30  N5  UNL     1      13.914  -7.089 -14.587  1.00  0.00    -0.220 N 
HETATM   31  O2  UNL     1      14.233  -6.289 -15.568  1.00  0.00    -0.153 OA
ATOM     32  H5  UNL     1      14.567  -7.550 -13.953  1.00  0.00     0.198 HD
HETATM   33  N6  UNL     1      13.157  -5.871 -16.182  1.00  0.00    -0.222 N 
HETATM   34  C8  UNL     1      12.095  -6.415 -15.585  1.00  0.00     0.169 A 
ATOM     35  H6  UNL     1      13.133  -5.238 -16.982  1.00  0.00     0.198 HD
BRANCH  34  36
HETATM   36  N7  UNL     1      10.849  -6.226 -15.924  1.00  0.00    -0.381 N 
ATOM     37  H72 UNL     1      10.040  -6.353 -15.316  1.00  0.00     0.157 HD
ATOM     38  H71 UNL     1      10.491  -5.930 -16.832  1.00  0.00     0.157 HD
ENDBRANCH  34  36
ENDBRANCH  24  29
ENDBRANCH  21  22
ENDBRANCH  20  21
ENDBRANCH   1  20
TORSDOF 9
ENDMDL
MODEL 3
REMARK VINA RESULT: -8.224656541      2.425      7.200
REMARK  9 active torsions:
REMARK  status: ('A' for Active; 'I' for Inactive)
REMARK    1  A    between atoms: N1_1  and  C1_4 
REMARK    2  A    between atoms: C2_7  and  C3_8 
REMARK    3  A    between atoms: C3_8  and  N3_10 
REMARK    4  A    between atoms: N3_10  and  O1_12 
REMARK    5  A    between atoms: O1_12  and  C4_13 
REMARK    6  A    between atoms: C4_13  and  C5_14 
REMARK    7  A    between atoms: N4_16  and  C7_17 
REMARK    8  A    between atoms: C8_23  and  N7_24 
REMARK    9  A    between atoms: C9_33  and  N11_34 
ROOT
HETATM    1  N3  UNL     1      12.452 -10.521 -13.524  1.00  0.00    -0.252 N 
ATOM      2  H3  UNL     1      12.150 -11.272 -14.144  1.00  0.00     0.195 HD
ENDROOT
BRANCH   1   3
HETATM    3  C3  UNL     1      11.642  -9.370 -13.364  1.00  0.00     0.166 C 
HETATM    4  S1  UNL     1      10.444  -9.384 -12.285  1.00  0.00    -0.054 SA
BRANCH   3   5
HETATM    5  C2  UNL     1      11.852  -8.158 -14.147  1.00  0.00     0.176 A 
HETATM    6  N2  UNL     1      10.858  -7.325 -14.501  1.00  0.00    -0.173 N 
HETATM    7  C1  UNL     1      11.117  -6.211 -15.231  1.00  0.00     0.692 A 
ATOM      8  H2  UNL     1       9.900  -7.532 -14.218  1.00  0.00     0.186 HD
HETATM    9  N12 UNL     1      12.387  -5.934 -15.606  1.00  0.00    -0.023 N 
HETATM   10  C9  UNL     1      13.379  -6.746 -15.264  1.00  0.00     0.692 A 
ATOM     11  H12 UNL     1      12.583  -5.097 -16.155  1.00  0.00     0.203 HD
HETATM   12  N10 UNL     1      13.096  -7.852 -14.536  1.00  0.00    -0.173 N 
ATOM     13  H10 UNL     1      13.859  -8.476 -14.274  1.00  0.00     0.186 HD
BRANCH   7  14
HETATM   14  N1  UNL     1      10.193  -5.387 -15.591  1.00  0.00    -0.234 N 
ATOM     15  H12 UNL     1       9.739  -4.835 -14.862  1.00  0.00     0.174 HD
ATOM     16  H11 UNL     1       9.908  -5.272 -16.564  1.00  0.00     0.174 HD
ENDBRANCH   7  14
BRANCH  10  17
HETATM   17  N11 UNL     1      14.575  -6.495 -15.612  1.00  0.00    -0.234 N 
ATOM     18 2H11 UNL     1      15.317  -6.422 -14.916  1.00  0.00     0.174 HD
ATOM     19 1H11 UNL     1      14.808  -6.361 -16.595  1.00  0.00     0.174 HD
ENDBRANCH  10  17
ENDBRANCH   3   5
ENDBRANCH   1   3
BRANCH   1  20
HETATM   20  O1  UNL     1      13.621 -10.626 -12.860  1.00  0.00    -0.273 OA
BRANCH  20  21
HETATM   21  C4  UNL     1      13.719 -11.796 -12.123  1.00  0.00     0.261 C 
BRANCH  21  22
HETATM   22  C5  UNL     1      13.703 -12.985 -12.998  1.00  0.00     0.070 A 
HETATM   23  C6  UNL     1      14.567 -13.276 -14.033  1.00  0.00     0.148 A 
HETATM   24  N4  UNL     1      14.224 -14.455 -14.591  1.00  0.00    -0.230 N 
HETATM   25  N8  UNL     1      13.174 -14.879 -13.916  1.00  0.00    -0.234 N 
HETATM   26  N9  UNL     1      12.841 -14.027 -12.962  1.00  0.00    -0.286 N 
ATOM     27  H8  UNL     1      12.683 -15.753 -14.105  1.00  0.00     0.209 HD
ATOM     28  H9  UNL     1      12.064 -14.136 -12.309  1.00  0.00     0.188 HD
BRANCH  24  29
HETATM   29  C7  UNL     1      14.862 -15.105 -15.682  1.00  0.00     0.195 A 
HETATM   30  N5  UNL     1      15.865 -15.996 -15.610  1.00  0.00    -0.220 N 
HETATM   31  O2  UNL     1      16.173 -16.359 -16.825  1.00  0.00    -0.153 OA
ATOM     32  H5  UNL     1      16.309 -16.331 -14.755  1.00  0.00     0.198 HD
HETATM   33  N6  UNL     1      15.410 -15.741 -17.691  1.00  0.00    -0.222 N 
HETATM   34  C8  UNL     1      14.574 -14.946 -17.021  1.00  0.00     0.169 A 
ATOM     35  H6  UNL     1      15.448 -15.850 -18.704  1.00  0.00     0.198 HD
BRANCH  34  36
HETATM   36  N7  UNL     1      13.666 -14.174 -17.552  1.00  0.00    -0.381 N 
ATOM     37  H72 UNL     1      13.836 -13.267 -17.989  1.00  0.00     0.157 HD
ATOM     38  H71 UNL     1      12.663 -14.347 -17.615  1.00  0.00     0.157 HD
ENDBRANCH  34  36
ENDBRANCH  24  29
ENDBRANCH  21  22
ENDBRANCH  20  21
ENDBRANCH   1  20
TORSDOF 9
ENDMDL
MODEL 4
REMARK VINA RESULT: -8.219295117      2.465      7.403
REMARK  9 active torsions:
REMARK  status: ('A' for Active; 'I' for Inactive)
REMARK    1  A    between atoms: N1_1  and  C1_4 
REMARK    2  A    between atoms: C2_7  and  C3_8 
REMARK    3  A    between atoms: C3_8  and  N3_10 
REMARK    4  A    between atoms: N3_10  and  O1_12 
REMARK    5  A    between atoms: O1_12  and  C4_13 
REMARK    6  A    between atoms: C4_13  and  C5_14 
REMARK    7  A    between atoms: N4_16  and  C7_17 
REMARK    8  A    between atoms: C8_23  and  N7_24 
REMARK    9  A    between atoms: C9_33  and  N11_34 
ROOT
HETATM    1  N3  UNL     1      12.336 -10.500 -13.550  1.00  0.00    -0.252 N 
ATOM      2  H3  UNL     1      11.920 -11.230 -14.128  1.00  0.00     0.195 HD
ENDROOT
BRANCH   1   3
HETATM    3  C3  UNL     1      11.648  -9.278 -13.353  1.00  0.00     0.166 C 
HETATM    4  S1  UNL     1      10.495  -9.185 -12.230  1.00  0.00    -0.054 SA
BRANCH   3   5
HETATM    5  C2  UNL     1      11.946  -8.084 -14.137  1.00  0.00     0.176 A 
HETATM    6  N2  UNL     1      13.183  -7.762 -14.553  1.00  0.00    -0.173 N 
HETATM    7  C1  UNL     1      13.396  -6.637 -15.280  1.00  0.00     0.692 A 
ATOM      8  H2  UNL     1      13.968  -8.370 -14.320  1.00  0.00     0.186 HD
HETATM    9  N12 UNL     1      12.355  -5.831 -15.591  1.00  0.00    -0.023 N 
HETATM   10  C9  UNL     1      11.128  -6.135 -15.188  1.00  0.00     0.692 A 
ATOM     11  H12 UNL     1      12.514  -4.984 -16.137  1.00  0.00     0.203 HD
HETATM   12  N10 UNL     1      10.940  -7.264 -14.463  1.00  0.00    -0.173 N 
ATOM     13  H10 UNL     1       9.997  -7.497 -14.153  1.00  0.00     0.186 HD
BRANCH   7  14
HETATM   14  N1  UNL     1      14.566  -6.291 -15.698  1.00  0.00    -0.234 N 
ATOM     15  H12 UNL     1      14.796  -6.482 -16.673  1.00  0.00     0.174 HD
ATOM     16  H11 UNL     1      15.254  -5.841 -15.094  1.00  0.00     0.174 HD
ENDBRANCH   7  14
BRANCH  10  17
HETATM   17  N11 UNL     1      10.143  -5.385 -15.474  1.00  0.00    -0.234 N 
ATOM     18 2H11 UNL     1       9.426  -5.177 -14.781  1.00  0.00     0.174 HD
ATOM     19 1H11 UNL     1      10.059  -4.980 -16.407  1.00  0.00     0.174 HD
ENDBRANCH  10  17
ENDBRANCH   3   5
ENDBRANCH   1   3
BRANCH   1  20
HETATM   20  O1  UNL     1      13.540 -10.702 -12.975  1.00  0.00    -0.273 OA
BRANCH  20  21
HETATM   21  C4  UNL     1      13.601 -11.882 -12.252  1.00  0.00     0.261 C 
BRANCH  21  22
HETATM   22  C5  UNL     1      13.615 -13.058 -13.144  1.00  0.00     0.070 A 
HETATM   23  C6  UNL     1      14.558 -13.375 -14.099  1.00  0.00     0.148 A 
HETATM   24  N4  UNL     1      14.217 -14.531 -14.706  1.00  0.00    -0.230 N 
HETATM   25  N8  UNL     1      13.092 -14.916 -14.138  1.00  0.00    -0.234 N 
HETATM   26  N9  UNL     1      12.708 -14.061 -13.205  1.00  0.00    -0.286 N 
ATOM     27  H8  UNL     1      12.582 -15.764 -14.386  1.00  0.00     0.209 HD
ATOM     28  H9  UNL     1      11.871 -14.144 -12.628  1.00  0.00     0.188 HD
BRANCH  24  29
HETATM   29  C7  UNL     1      14.925 -15.195 -15.743  1.00  0.00     0.195 A 
HETATM   30  N5  UNL     1      15.970 -16.027 -15.597  1.00  0.00    -0.220 N 
HETATM   31  O2  UNL     1      16.337 -16.429 -16.784  1.00  0.00    -0.153 OA
ATOM     32  H5  UNL     1      16.401 -16.298 -14.713  1.00  0.00     0.198 HD
HETATM   33  N6  UNL     1      15.573 -15.893 -17.701  1.00  0.00    -0.222 N 
HETATM   34  C8  UNL     1      14.675 -15.114 -17.097  1.00  0.00     0.169 A 
ATOM     35  H6  UNL     1      15.652 -16.046 -18.707  1.00  0.00     0.198 HD
BRANCH  34  36
HETATM   36  N7  UNL     1      13.747 -14.417 -17.693  1.00  0.00    -0.381 N 
ATOM     37  H72 UNL     1      12.983 -13.923 -17.231  1.00  0.00     0.157 HD
ATOM     38  H71 UNL     1      13.637 -14.258 -18.695  1.00  0.00     0.157 HD
ENDBRANCH  34  36
ENDBRANCH  24  29
ENDBRANCH  21  22
ENDBRANCH  20  21
ENDBRANCH   1  20
TORSDOF 9
ENDMDL
MODEL 5
REMARK VINA RESULT: -8.133835008      1.365      2.331
REMARK  9 active torsions:
REMARK  status: ('A' for Active; 'I' for Inactive)
REMARK    1  A    between atoms: N1_1  and  C1_4 
REMARK    2  A    between atoms: C2_7  and  C3_8 
REMARK    3  A    between atoms: C3_8  and  N3_10 
REMARK    4  A    between atoms: N3_10  and  O1_12 
REMARK    5  A    between atoms: O1_12  and  C4_13 
REMARK    6  A    between atoms: C4_13  and  C5_14 
REMARK    7  A    between atoms: N4_16  and  C7_17 
REMARK    8  A    between atoms: C8_23  and  N7_24 
REMARK    9  A    between atoms: C9_33  and  N11_34 
ROOT
HETATM    1  N3  UNL     1      12.316 -13.083 -12.130  1.00  0.00    -0.252 N 
ATOM      2  H3  UNL     1      12.002 -13.778 -11.453  1.00  0.00     0.195 HD
ENDROOT
BRANCH   1   3
HETATM    3  C3  UNL     1      13.701 -12.841 -12.300  1.00  0.00     0.166 C 
HETATM    4  S1  UNL     1      14.511 -12.025 -11.171  1.00  0.00    -0.054 SA
BRANCH   3   5
HETATM    5  C2  UNL     1      14.432 -13.307 -13.473  1.00  0.00     0.176 A 
HETATM    6  N2  UNL     1      15.675 -13.815 -13.416  1.00  0.00    -0.173 N 
HETATM    7  C1  UNL     1      16.304 -14.232 -14.543  1.00  0.00     0.692 A 
ATOM      8  H2  UNL     1      16.150 -13.887 -12.516  1.00  0.00     0.186 HD
HETATM    9  N12 UNL     1      15.675 -14.137 -15.738  1.00  0.00    -0.023 N 
HETATM   10  C9  UNL     1      14.448 -13.639 -15.811  1.00  0.00     0.692 A 
ATOM     11  H12 UNL     1      16.147 -14.450 -16.586  1.00  0.00     0.203 HD
HETATM   12  N10 UNL     1      13.840 -13.228 -14.671  1.00  0.00    -0.173 N 
ATOM     13  H10 UNL     1      12.897 -12.845 -14.729  1.00  0.00     0.186 HD
BRANCH   7  14
HETATM   14  N1  UNL     1      17.496 -14.724 -14.532  1.00  0.00    -0.234 N 
ATOM     15  H12 UNL     1      17.589 -15.740 -14.516  1.00  0.00     0.174 HD
ATOM     16  H11 UNL     1      18.332 -14.139 -14.539  1.00  0.00     0.174 HD
ENDBRANCH   7  14
BRANCH  10  17
HETATM   17  N11 UNL     1      13.848 -13.545 -16.927  1.00  0.00    -0.234 N 
ATOM     18 2H11 UNL     1      12.906 -13.160 -16.983  1.00  0.00     0.174 HD
ATOM     19 1H11 UNL     1      14.304 -13.858 -17.784  1.00  0.00     0.174 HD
ENDBRANCH  10  17
ENDBRANCH   3   5
ENDBRANCH   1   3
BRANCH   1  20
HETATM   20  O1  UNL     1      11.412 -12.399 -12.860  1.00  0.00    -0.273 OA
BRANCH  20  21
HETATM   21  C4  UNL     1      10.932 -11.274 -12.209  1.00  0.00     0.261 C 
BRANCH  21  22
HETATM   22  C5  UNL     1      11.318 -10.038 -12.916  1.00  0.00     0.070 A 
HETATM   23  C6  UNL     1      10.736  -8.792 -12.807  1.00  0.00     0.148 A 
HETATM   24  N4  UNL     1      11.374  -7.921 -13.616  1.00  0.00    -0.230 N 
HETATM   25  N8  UNL     1      12.326  -8.615 -14.209  1.00  0.00    -0.234 N 
HETATM   26  N9  UNL     1      12.318  -9.876 -13.814  1.00  0.00    -0.286 N 
ATOM     27  H8  UNL     1      12.983  -8.227 -14.886  1.00  0.00     0.209 HD
ATOM     28  H9  UNL     1      12.959 -10.604 -14.131  1.00  0.00     0.188 HD
BRANCH  24  29
HETATM   29  C7  UNL     1      11.080  -6.543 -13.793  1.00  0.00     0.195 A 
HETATM   30  N5  UNL     1      10.744  -5.664 -12.834  1.00  0.00    -0.220 N 
HETATM   31  O2  UNL     1      10.554  -4.502 -13.397  1.00  0.00    -0.153 OA
ATOM     32  H5  UNL     1      10.653  -5.869 -11.839  1.00  0.00     0.198 HD
HETATM   33  N6  UNL     1      10.752  -4.585 -14.688  1.00  0.00    -0.222 N 
HETATM   34  C8  UNL     1      11.084  -5.843 -14.981  1.00  0.00     0.169 A 
ATOM     35  H6  UNL     1      10.669  -3.818 -15.355  1.00  0.00     0.198 HD
BRANCH  34  36
HETATM   36  N7  UNL     1      11.356  -6.302 -16.172  1.00  0.00    -0.381 N 
ATOM     37  H72 UNL     1      11.976  -7.085 -16.383  1.00  0.00     0.157 HD
ATOM     38  H71 UNL     1      11.003  -5.959 -17.065  1.00  0.00     0.157 HD
ENDBRANCH  34  36
ENDBRANCH  24  29
ENDBRANCH  21  22
ENDBRANCH  20  21
ENDBRANCH   1  20
TORSDOF 9
ENDMDL
