MODEL 1
REMARK VINA RESULT: -6.975901782      0.000      0.000
REMARK  1 active torsions:
REMARK  status: ('A' for Active; 'I' for Inactive)
REMARK    1  A    between atoms: N1_1  and  C1_4 
ROOT
HETATM    1  C1  UNL     1      10.799 -10.980  40.170  1.00  0.00     0.144 A 
HETATM    2  N2  UNL     1      10.151 -11.982  39.551  1.00  0.00    -0.281 N 
ATOM      3  H2  UNL     1      10.604 -12.888  39.440  1.00  0.00     0.188 HD
HETATM    4  N3  UNL     1       8.926 -11.796  39.085  1.00  0.00    -0.263 N 
ATOM      5  H3  UNL     1       8.461 -12.575  38.619  1.00  0.00     0.190 HD
HETATM    6  C2  UNL     1       8.270 -10.638  39.194  1.00  0.00     0.290 A 
HETATM    7  O1  UNL     1       7.103 -10.467  38.749  1.00  0.00    -0.264 OA
HETATM    8  C3  UNL     1       8.864  -9.565  39.815  1.00  0.00     0.151 A 
HETATM    9  N4  UNL     1       8.508  -8.296  40.092  1.00  0.00    -0.279 N 
ATOM     10  H4  UNL     1       7.619  -7.854  39.858  1.00  0.00     0.189 HD
HETATM   11  N5  UNL     1       9.522  -7.730  40.721  1.00  0.00    -0.241 N 
ATOM     12  H5  UNL     1       9.542  -6.766  41.056  1.00  0.00     0.208 HD
HETATM   13  N6  UNL     1      10.499  -8.593  40.851  1.00  0.00    -0.280 N 
ATOM     14  H6  UNL     1      11.394  -8.402  41.302  1.00  0.00     0.188 HD
HETATM   15  C4  UNL     1      10.147  -9.767  40.300  1.00  0.00     0.128 A 
ENDROOT
BRANCH   1  16
HETATM   16  N1  UNL     1      11.992 -11.118  40.639  1.00  0.00    -0.382 N 
ATOM     17  H12 UNL     1      12.434 -12.037  40.634  1.00  0.00     0.157 HD
ATOM     18  H11 UNL     1      12.522 -10.334  41.020  1.00  0.00     0.157 HD
ENDBRANCH   1  16
TORSDOF 1
ENDMDL
MODEL 2
REMARK VINA RESULT: -6.848775762      1.134      2.858
REMARK  1 active torsions:
REMARK  status: ('A' for Active; 'I' for Inactive)
REMARK    1  A    between atoms: N1_1  and  C1_4 
ROOT
HETATM    1  C1  UNL     1      11.387 -10.140  40.675  1.00  0.00     0.144 A 
HETATM    2  N2  UNL     1      11.179  -8.864  41.044  1.00  0.00    -0.281 N 
ATOM      3  H2  UNL     1      11.914  -8.350  41.529  1.00  0.00     0.188 HD
HETATM    4  N3  UNL     1      10.025  -8.273  40.782  1.00  0.00    -0.263 N 
ATOM      5  H3  UNL     1       9.897  -7.305  41.076  1.00  0.00     0.190 HD
HETATM    6  C2  UNL     1       9.019  -8.883  40.150  1.00  0.00     0.290 A 
HETATM    7  O1  UNL     1       7.921  -8.314  39.901  1.00  0.00    -0.264 OA
HETATM    8  C3  UNL     1       9.152 -10.188  39.738  1.00  0.00     0.151 A 
HETATM    9  N4  UNL     1       8.371 -11.079  39.099  1.00  0.00    -0.279 N 
ATOM     10  H4  UNL     1       7.420 -10.919  38.765  1.00  0.00     0.189 HD
HETATM   11  N5  UNL     1       9.063 -12.199  38.984  1.00  0.00    -0.241 N 
ATOM     12  H5  UNL     1       8.727 -13.055  38.541  1.00  0.00     0.208 HD
HETATM   13  N6  UNL     1      10.246 -12.045  39.525  1.00  0.00    -0.280 N 
ATOM     14  H6  UNL     1      10.969 -12.763  39.566  1.00  0.00     0.188 HD
HETATM   15  C4  UNL     1      10.364 -10.801  40.018  1.00  0.00     0.128 A 
ENDROOT
BRANCH   1  16
HETATM   16  N1  UNL     1      12.495 -10.754  40.911  1.00  0.00    -0.382 N 
ATOM     17  H12 UNL     1      13.324 -10.219  41.170  1.00  0.00     0.157 HD
ATOM     18  H11 UNL     1      12.581 -11.768  40.850  1.00  0.00     0.157 HD
ENDBRANCH   1  16
TORSDOF 1
ENDMDL
MODEL 3
REMARK VINA RESULT: -6.837777573      1.715      2.808
REMARK  1 active torsions:
REMARK  status: ('A' for Active; 'I' for Inactive)
REMARK    1  A    between atoms: N1_1  and  C1_4 
ROOT
HETATM    1  C1  UNL     1       8.034 -10.678  39.431  1.00  0.00     0.144 A 
HETATM    2  N2  UNL     1       8.718 -11.810  39.190  1.00  0.00    -0.281 N 
ATOM      3  H2  UNL     1       8.234 -12.628  38.820  1.00  0.00     0.188 HD
HETATM    4  N3  UNL     1      10.018 -11.868  39.432  1.00  0.00    -0.263 N 
ATOM      5  H3  UNL     1      10.509 -12.741  39.241  1.00  0.00     0.190 HD
HETATM    6  C2  UNL     1      10.718 -10.839  39.916  1.00  0.00     0.290 A 
HETATM    7  O1  UNL     1      11.956 -10.899  40.144  1.00  0.00    -0.264 OA
HETATM    8  C3  UNL     1      10.092  -9.645  40.187  1.00  0.00     0.151 A 
HETATM    9  N4  UNL     1      10.474  -8.445  40.664  1.00  0.00    -0.279 N 
ATOM     10  H4  UNL     1      11.419  -8.179  40.942  1.00  0.00     0.189 HD
HETATM   11  N5  UNL     1       9.400  -7.677  40.705  1.00  0.00    -0.241 N 
ATOM     12  H5  UNL     1       9.382  -6.708  41.025  1.00  0.00     0.208 HD
HETATM   13  N6  UNL     1       8.360  -8.347  40.273  1.00  0.00    -0.280 N 
ATOM     14  H6  UNL     1       7.412  -7.977  40.205  1.00  0.00     0.188 HD
HETATM   15  C4  UNL     1       8.730  -9.593  39.933  1.00  0.00     0.128 A 
ENDROOT
BRANCH   1  16
HETATM   16  N1  UNL     1       6.768 -10.579  39.210  1.00  0.00    -0.382 N 
ATOM     17  H12 UNL     1       6.402  -9.759  38.727  1.00  0.00     0.157 HD
ATOM     18  H11 UNL     1       6.106 -11.297  39.502  1.00  0.00     0.157 HD
ENDBRANCH   1  16
TORSDOF 1
ENDMDL
MODEL 4
REMARK VINA RESULT: -6.711232539      1.549      2.923
REMARK  1 active torsions:
REMARK  status: ('A' for Active; 'I' for Inactive)
REMARK    1  A    between atoms: N1_1  and  C1_4 
ROOT
HETATM    1  C1  UNL     1       8.962  -8.332  40.417  1.00  0.00     0.144 A 
HETATM    2  N2  UNL     1       8.004  -8.954  39.709  1.00  0.00    -0.281 N 
ATOM      3  H2  UNL     1       7.061  -8.567  39.679  1.00  0.00     0.188 HD
HETATM    4  N3  UNL     1       8.278 -10.069  39.051  1.00  0.00    -0.263 N 
ATOM      5  H3  UNL     1       7.530 -10.519  38.524  1.00  0.00     0.190 HD
HETATM    6  C2  UNL     1       9.489 -10.634  39.044  1.00  0.00     0.290 A 
HETATM    7  O1  UNL     1       9.745 -11.696  38.415  1.00  0.00    -0.264 OA
HETATM    8  C3  UNL     1      10.524 -10.058  39.743  1.00  0.00     0.151 A 
HETATM    9  N4  UNL     1      11.823 -10.346  39.948  1.00  0.00    -0.279 N 
ATOM     10  H4  UNL     1      12.331 -11.145  39.570  1.00  0.00     0.189 HD
HETATM   11  N5  UNL     1      12.317  -9.401  40.729  1.00  0.00    -0.241 N 
ATOM     12  H5  UNL     1      13.282  -9.354  41.055  1.00  0.00     0.208 HD
HETATM   13  N6  UNL     1      11.380  -8.534  41.020  1.00  0.00    -0.280 N 
ATOM     14  H6  UNL     1      11.507  -7.709  41.608  1.00  0.00     0.188 HD
HETATM   15  C4  UNL     1      10.227  -8.891  40.431  1.00  0.00     0.128 A 
ENDROOT
BRANCH   1  16
HETATM   16  N1  UNL     1       8.737  -7.245  41.073  1.00  0.00    -0.382 N 
ATOM     17  H12 UNL     1       7.780  -6.916  41.193  1.00  0.00     0.157 HD
ATOM     18  H11 UNL     1       9.488  -6.691  41.483  1.00  0.00     0.157 HD
ENDBRANCH   1  16
TORSDOF 1
ENDMDL
MODEL 5
REMARK VINA RESULT: -6.667896835      1.788      3.321
REMARK  1 active torsions:
REMARK  status: ('A' for Active; 'I' for Inactive)
REMARK    1  A    between atoms: N1_1  and  C1_4 
ROOT
HETATM    1  C1  UNL     1       9.061  -8.256  40.484  1.00  0.00     0.144 A 
HETATM    2  N2  UNL     1      10.370  -8.504  40.304  1.00  0.00    -0.281 N 
ATOM      3  H2  UNL     1      11.062  -7.805  40.574  1.00  0.00     0.188 HD
HETATM    4  N3  UNL     1      10.766  -9.652  39.778  1.00  0.00    -0.263 N 
ATOM      5  H3  UNL     1      11.765  -9.811  39.653  1.00  0.00     0.190 HD
HETATM    6  C2  UNL     1       9.918 -10.614  39.403  1.00  0.00     0.290 A 
HETATM    7  O1  UNL     1      10.300 -11.706  38.903  1.00  0.00    -0.264 OA
HETATM    8  C3  UNL     1       8.563 -10.438  39.554  1.00  0.00     0.151 A 
HETATM    9  N4  UNL     1       7.463 -11.169  39.293  1.00  0.00    -0.279 N 
ATOM     10  H4  UNL     1       7.443 -12.104  38.884  1.00  0.00     0.189 HD
HETATM   11  N5  UNL     1       6.416 -10.454  39.664  1.00  0.00    -0.241 N 
ATOM     12  H5  UNL     1       5.444 -10.751  39.586  1.00  0.00     0.208 HD
HETATM   13  N6  UNL     1       6.816  -9.303  40.147  1.00  0.00    -0.280 N 
ATOM     14  H6  UNL     1       6.201  -8.571  40.503  1.00  0.00     0.188 HD
HETATM   15  C4  UNL     1       8.157  -9.232  40.105  1.00  0.00     0.128 A 
ENDROOT
BRANCH   1  16
HETATM   16  N1  UNL     1       8.634  -7.151  40.992  1.00  0.00    -0.382 N 
ATOM     17  H12 UNL     1       8.783  -6.274  40.494  1.00  0.00     0.157 HD
ATOM     18  H11 UNL     1       8.144  -7.116  41.886  1.00  0.00     0.157 HD
ENDBRANCH   1  16
TORSDOF 1
ENDMDL
