MODEL 1
REMARK VINA RESULT: -6.157189839      0.000      0.000
REMARK  2 active torsions:
REMARK  status: ('A' for Active; 'I' for Inactive)
REMARK       I    between atoms: C1_2  and  N2_4 
REMARK    1  A    between atoms: N2_4  and  N3_6 
REMARK    2  A    between atoms: N4_8  and  N5_10 
REMARK       I    between atoms: N5_10  and  C2_12 
ROOT
HETATM    1  N3  UNL     1      10.313  -8.242  40.184  1.00  0.00    -0.224 N 
ATOM      2  H3  UNL     1      10.556  -8.171  39.196  1.00  0.00     0.210 HD
HETATM    3  N4  UNL     1       9.176  -7.838  40.538  1.00  0.00    -0.224 N 
ATOM      4  H4  UNL     1       8.523  -7.452  39.856  1.00  0.00     0.210 HD
ENDROOT
BRANCH   1   5
HETATM    5  N2  UNL     1      11.266  -8.782  41.049  1.00  0.00    -0.238 N 
HETATM    6  C1  UNL     1      11.787 -10.056  40.735  1.00  0.00     0.348 C 
HETATM    7  N1  UNL     1      12.759 -10.617  41.610  1.00  0.00    -0.038 NA
HETATM    8  O1  UNL     1      11.396 -10.683  39.695  1.00  0.00    -0.249 OA
ATOM      9  H2  UNL     1      11.575  -8.274  41.879  1.00  0.00     0.193 HD
ENDBRANCH   1   5
BRANCH   3  10
HETATM   10  N5  UNL     1       8.831  -7.929  41.882  1.00  0.00    -0.238 N 
HETATM   11  C2  UNL     1       7.943  -6.979  42.432  1.00  0.00     0.348 C 
HETATM   12  N6  UNL     1       7.594  -7.080  43.809  1.00  0.00    -0.038 NA
HETATM   13  O2  UNL     1       7.485  -6.073  41.694  1.00  0.00    -0.249 OA
ATOM     14  H5  UNL     1       9.214  -8.674  42.464  1.00  0.00     0.193 HD
ENDBRANCH   3  10
TORSDOF 2
ENDMDL
MODEL 2
REMARK VINA RESULT: -6.126104726      0.047      4.906
REMARK  2 active torsions:
REMARK  status: ('A' for Active; 'I' for Inactive)
REMARK       I    between atoms: C1_2  and  N2_4 
REMARK    1  A    between atoms: N2_4  and  N3_6 
REMARK    2  A    between atoms: N4_8  and  N5_10 
REMARK       I    between atoms: N5_10  and  C2_12 
ROOT
HETATM    1  N3  UNL     1       9.208  -7.871  40.595  1.00  0.00    -0.224 N 
ATOM      2  H3  UNL     1       8.532  -7.470  39.945  1.00  0.00     0.210 HD
HETATM    3  N4  UNL     1      10.322  -8.230  40.134  1.00  0.00    -0.224 N 
ATOM      4  H4  UNL     1      10.536  -8.121  39.142  1.00  0.00     0.210 HD
ENDROOT
BRANCH   1   5
HETATM    5  N2  UNL     1       8.833  -7.984  41.934  1.00  0.00    -0.238 N 
HETATM    6  C1  UNL     1       7.949  -7.011  42.450  1.00  0.00     0.348 C 
HETATM    7  N1  UNL     1       7.559  -7.116  43.815  1.00  0.00    -0.038 NA
HETATM    8  O1  UNL     1       7.514  -6.067  41.710  1.00  0.00    -0.249 OA
ATOM      9  H2  UNL     1       9.184  -8.742  42.520  1.00  0.00     0.193 HD
ENDBRANCH   1   5
BRANCH   3  10
HETATM   10  N5  UNL     1      11.254  -8.778  41.007  1.00  0.00    -0.238 N 
HETATM   11  C2  UNL     1      11.790 -10.054  40.733  1.00  0.00     0.348 C 
HETATM   12  N6  UNL     1      12.744 -10.609  41.633  1.00  0.00    -0.038 NA
HETATM   13  O2  UNL     1      11.412 -10.666  39.703  1.00  0.00    -0.249 OA
ATOM     14  H5  UNL     1      11.548  -8.264  41.838  1.00  0.00     0.193 HD
ENDBRANCH   3  10
TORSDOF 2
ENDMDL
MODEL 3
REMARK VINA RESULT: -5.912958132      1.736      1.745
REMARK  2 active torsions:
REMARK  status: ('A' for Active; 'I' for Inactive)
REMARK       I    between atoms: C1_2  and  N2_4 
REMARK    1  A    between atoms: N2_4  and  N3_6 
REMARK    2  A    between atoms: N4_8  and  N5_10 
REMARK       I    between atoms: N5_10  and  C2_12 
ROOT
HETATM    1  N3  UNL     1      10.437  -8.174  40.202  1.00  0.00    -0.224 N 
ATOM      2  H3  UNL     1      10.760  -7.944  39.263  1.00  0.00     0.210 HD
HETATM    3  N4  UNL     1       9.249  -7.887  40.500  1.00  0.00    -0.224 N 
ATOM      4  H4  UNL     1       8.634  -7.439  39.820  1.00  0.00     0.210 HD
ENDROOT
BRANCH   1   5
HETATM    5  N2  UNL     1      11.343  -8.786  41.069  1.00  0.00    -0.238 N 
HETATM    6  C1  UNL     1      11.791 -10.083  40.736  1.00  0.00     0.348 C 
HETATM    7  N1  UNL     1      12.715 -10.718  41.613  1.00  0.00    -0.038 NA
HETATM    8  O1  UNL     1      11.377 -10.666  39.680  1.00  0.00    -0.249 OA
ATOM      9  H2  UNL     1      11.671  -8.314  41.912  1.00  0.00     0.193 HD
ENDBRANCH   1   5
BRANCH   3  10
HETATM   10  N5  UNL     1       8.794  -8.196  41.776  1.00  0.00    -0.238 N 
HETATM   11  C2  UNL     1       8.066  -9.387  41.980  1.00  0.00     0.348 C 
HETATM   12  N6  UNL     1       7.604  -9.696  43.291  1.00  0.00    -0.038 NA
HETATM   13  O2  UNL     1       7.847 -10.144  41.002  1.00  0.00    -0.249 OA
ATOM     14  H5  UNL     1       8.983  -7.568  42.558  1.00  0.00     0.193 HD
ENDBRANCH   3  10
TORSDOF 2
ENDMDL
MODEL 4
REMARK VINA RESULT: -5.889830552      1.706      4.369
REMARK  2 active torsions:
REMARK  status: ('A' for Active; 'I' for Inactive)
REMARK       I    between atoms: C1_2  and  N2_4 
REMARK    1  A    between atoms: N2_4  and  N3_6 
REMARK    2  A    between atoms: N4_8  and  N5_10 
REMARK       I    between atoms: N5_10  and  C2_12 
ROOT
HETATM    1  N3  UNL     1       9.307  -7.857  40.667  1.00  0.00    -0.224 N 
ATOM      2  H3  UNL     1       8.673  -7.361  40.042  1.00  0.00     0.210 HD
HETATM    3  N4  UNL     1      10.463  -8.117  40.243  1.00  0.00    -0.224 N 
ATOM      4  H4  UNL     1      10.749  -7.838  39.304  1.00  0.00     0.210 HD
ENDROOT
BRANCH   1   5
HETATM    5  N2  UNL     1       8.834  -8.202  41.934  1.00  0.00    -0.238 N 
HETATM    6  C1  UNL     1       8.058  -9.376  42.045  1.00  0.00     0.348 C 
HETATM    7  N1  UNL     1       7.570  -9.738  43.332  1.00  0.00    -0.038 NA
HETATM    8  O1  UNL     1       7.805 -10.090  41.019  1.00  0.00    -0.249 OA
ATOM      9  H2  UNL     1       9.042  -7.626  42.751  1.00  0.00     0.193 HD
ENDBRANCH   1   5
BRANCH   3  10
HETATM   10  N5  UNL     1      11.340  -8.792  41.083  1.00  0.00    -0.238 N 
HETATM   11  C2  UNL     1      11.774 -10.088  40.730  1.00  0.00     0.348 C 
HETATM   12  N6  UNL     1      12.673 -10.773  41.597  1.00  0.00    -0.038 NA
HETATM   13  O2  UNL     1      11.358 -10.601  39.662  1.00  0.00    -0.249 OA
ATOM     14  H5  UNL     1      11.666  -8.357  41.946  1.00  0.00     0.193 HD
ENDBRANCH   3  10
TORSDOF 2
ENDMDL
MODEL 5
REMARK VINA RESULT: -5.871959650      3.230      3.405
REMARK  2 active torsions:
REMARK  status: ('A' for Active; 'I' for Inactive)
REMARK       I    between atoms: C1_2  and  N2_4 
REMARK    1  A    between atoms: N2_4  and  N3_6 
REMARK    2  A    between atoms: N4_8  and  N5_10 
REMARK       I    between atoms: N5_10  and  C2_12 
ROOT
HETATM    1  N3  UNL     1      10.752 -11.273  39.894  1.00  0.00    -0.224 N 
ATOM      2  H3  UNL     1      11.428 -11.940  39.522  1.00  0.00     0.210 HD
HETATM    3  N4  UNL     1       9.543 -11.620  39.926  1.00  0.00    -0.224 N 
ATOM      4  H4  UNL     1       9.255 -12.539  39.590  1.00  0.00     0.210 HD
ENDROOT
BRANCH   1   5
HETATM    5  N2  UNL     1      11.233 -10.038  40.332  1.00  0.00    -0.238 N 
HETATM    6  C1  UNL     1      12.426 -10.032  41.087  1.00  0.00     0.348 C 
HETATM    7  N1  UNL     1      12.925  -8.779  41.541  1.00  0.00    -0.038 NA
HETATM    8  O1  UNL     1      13.036 -11.120  41.354  1.00  0.00    -0.249 OA
ATOM      9  H2  UNL     1      10.740  -9.171  40.115  1.00  0.00     0.193 HD
ENDBRANCH   1   5
BRANCH   3  10
HETATM   10  N5  UNL     1       8.611 -10.721  40.431  1.00  0.00    -0.238 N 
HETATM   11  C2  UNL     1       7.593 -10.235  39.584  1.00  0.00     0.348 C 
HETATM   12  N6  UNL     1       6.641  -9.315  40.109  1.00  0.00    -0.038 NA
HETATM   13  O2  UNL     1       7.552 -10.626  38.391  1.00  0.00    -0.249 OA
ATOM     14  H5  UNL     1       8.661 -10.417  41.403  1.00  0.00     0.193 HD
ENDBRANCH   3  10
TORSDOF 2
ENDMDL
