MODEL 1
REMARK VINA RESULT: -6.357017752      0.000      0.000
REMARK  13 active torsions:
REMARK  status: ('A' for Active; 'I' for Inactive)
REMARK    1  A    between atoms: C3_3  and  C5_5 
REMARK    2  A    between atoms: C5_5  and  C6_6 
REMARK    3  A    between atoms: C6_6  and  N1_7 
REMARK    4  A    between atoms: C6_6  and  C12_16 
REMARK       I    between atoms: N1_7  and  C7_9 
REMARK    5  A    between atoms: C7_9  and  O2_11 
REMARK    6  A    between atoms: O2_11  and  C8_12 
REMARK       I    between atoms: C12_16  and  N2_18 
REMARK    7  A    between atoms: C16_22  and  C17_23 
REMARK       I    between atoms: C17_23  and  N3_25 
REMARK    8  A    between atoms: N3_25  and  C18_27 
REMARK    9  A    between atoms: C18_27  and  C19_28 
REMARK   10  A    between atoms: C19_28  and  C20_29 
REMARK   11  A    between atoms: N4_39  and  C27_40 
REMARK   12  A    between atoms: C27_40  and  C28_41 
REMARK   13  A    between atoms: C28_41  and  O6_43 
ROOT
HETATM    1  C1  UNL     1      48.137  11.514   0.286  1.00  0.00     0.012 C 
HETATM    2  C2  UNL     1      47.027  11.957   0.467  1.00  0.00    -0.113 C 
HETATM    3  C3  UNL     1      45.684  12.453   0.697  1.00  0.00     0.062 C 
HETATM    4  C4  UNL     1      44.820  11.208   0.972  1.00  0.00     0.023 C 
ENDROOT
BRANCH   3   5
HETATM    5  C5  UNL     1      45.060  13.222  -0.407  1.00  0.00     0.051 C 
BRANCH   5   6
HETATM    6  C6  UNL     1      44.370  14.500  -0.053  1.00  0.00     0.180 C 
BRANCH   6   7
HETATM    7  N1  UNL     1      45.230  15.274   0.867  1.00  0.00    -0.324 N 
HETATM    8  C7  UNL     1      44.792  15.577   2.184  1.00  0.00     0.362 C 
HETATM    9  O1  UNL     1      43.649  15.188   2.605  1.00  0.00    -0.238 OA
ATOM     10  H1  UNL     1      46.147  15.592   0.553  1.00  0.00     0.165 HD
BRANCH   8  11
HETATM   11  O2  UNL     1      45.535  16.291   3.095  1.00  0.00    -0.294 OA
BRANCH  11  12
HETATM   12  C8  UNL     1      46.607  15.753   3.829  1.00  0.00     0.061 C 
HETATM   13  C9  UNL     1      46.386  16.080   5.289  1.00  0.00     0.046 C 
HETATM   14  C10 UNL     1      46.746  14.268   3.715  1.00  0.00     0.046 C 
HETATM   15  C11 UNL     1      47.934  16.377   3.433  1.00  0.00     0.046 C 
ENDBRANCH  11  12
ENDBRANCH   8  11
ENDBRANCH   6   7
BRANCH   6  16
HETATM   16  C12 UNL     1      43.930  15.350  -1.162  1.00  0.00     0.243 C 
HETATM   17  O3  UNL     1      42.918  16.143  -1.015  1.00  0.00    -0.271 OA
HETATM   18  N2  UNL     1      44.523  15.408  -2.473  1.00  0.00    -0.337 N 
HETATM   19  C13 UNL     1      44.116  16.339  -3.539  1.00  0.00     0.127 C 
HETATM   20  C16 UNL     1      45.552  14.588  -3.054  1.00  0.00     0.179 C 
HETATM   21  C14 UNL     1      45.406  16.665  -4.200  1.00  0.00     0.022 C 
HETATM   22  C15 UNL     1      46.368  15.553  -3.866  1.00  0.00     0.037 C 
BRANCH  20  23
HETATM   23  C17 UNL     1      44.977  13.546  -3.998  1.00  0.00     0.244 C 
HETATM   24  O4  UNL     1      45.544  13.336  -5.090  1.00  0.00    -0.271 OA
HETATM   25  N3  UNL     1      43.820  12.817  -3.667  1.00  0.00    -0.335 N 
ATOM     26  H3  UNL     1      43.414  13.063  -2.763  1.00  0.00     0.168 HD
BRANCH  25  27
HETATM   27  C18 UNL     1      43.130  11.819  -4.350  1.00  0.00     0.092 C 
BRANCH  27  28
HETATM   28  C19 UNL     1      43.495  10.417  -4.433  1.00  0.00     0.030 C 
BRANCH  28  29
HETATM   29  C20 UNL     1      44.391   9.759  -3.495  1.00  0.00    -0.011 A 
HETATM   30  C21 UNL     1      45.749   9.884  -3.622  1.00  0.00     0.044 A 
HETATM   31  C22 UNL     1      46.673   9.295  -2.733  1.00  0.00     0.054 A 
HETATM   32  C23 UNL     1      46.103   8.577  -1.715  1.00  0.00     0.036 A 
HETATM   33  N4  UNL     1      47.990   9.353  -2.767  1.00  0.00    -0.322 N 
HETATM   34  C24 UNL     1      44.709   8.443  -1.578  1.00  0.00     0.046 A 
HETATM   35  S1  UNL     1      47.463   8.015  -0.852  1.00  0.00    -0.058 SA
HETATM   36  C25 UNL     1      43.837   9.033  -2.465  1.00  0.00     0.045 A 
HETATM   37 CL1  UNL     1      42.121   8.783  -2.241  1.00  0.00    -0.083 Cl
HETATM   38  C26 UNL     1      48.674   8.714  -1.820  1.00  0.00     0.146 A 
HETATM   39  S2  UNL     1      50.323   8.642  -1.653  1.00  0.00    -0.052 SA
BRANCH  33  40
HETATM   40  C27 UNL     1      48.735  10.099  -3.824  1.00  0.00     0.241 C 
BRANCH  40  41
HETATM   41  C28 UNL     1      49.066  11.447  -3.382  1.00  0.00     0.276 C 
HETATM   42  O5  UNL     1      48.176  12.298  -3.159  1.00  0.00    -0.263 OA
BRANCH  41  43
HETATM   43  O6  UNL     1      50.386  11.808  -3.199  1.00  0.00    -0.325 OA
HETATM   44  C29 UNL     1      50.895  12.479  -2.078  1.00  0.00     0.213 C 
ENDBRANCH  41  43
ENDBRANCH  40  41
ENDBRANCH  33  40
ENDBRANCH  28  29
ENDBRANCH  27  28
ENDBRANCH  25  27
ENDBRANCH  20  23
ENDBRANCH   6  16
ENDBRANCH   5   6
ENDBRANCH   3   5
TORSDOF 13
ENDMDL
MODEL 2
REMARK VINA RESULT: -6.017401501      4.669      6.748
REMARK  13 active torsions:
REMARK  status: ('A' for Active; 'I' for Inactive)
REMARK    1  A    between atoms: C3_3  and  C5_5 
REMARK    2  A    between atoms: C5_5  and  C6_6 
REMARK    3  A    between atoms: C6_6  and  N1_7 
REMARK    4  A    between atoms: C6_6  and  C12_16 
REMARK       I    between atoms: N1_7  and  C7_9 
REMARK    5  A    between atoms: C7_9  and  O2_11 
REMARK    6  A    between atoms: O2_11  and  C8_12 
REMARK       I    between atoms: C12_16  and  N2_18 
REMARK    7  A    between atoms: C16_22  and  C17_23 
REMARK       I    between atoms: C17_23  and  N3_25 
REMARK    8  A    between atoms: N3_25  and  C18_27 
REMARK    9  A    between atoms: C18_27  and  C19_28 
REMARK   10  A    between atoms: C19_28  and  C20_29 
REMARK   11  A    between atoms: N4_39  and  C27_40 
REMARK   12  A    between atoms: C27_40  and  C28_41 
REMARK   13  A    between atoms: C28_41  and  O6_43 
ROOT
HETATM    1  C1  UNL     1      43.677  12.451  -3.781  1.00  0.00     0.012 C 
HETATM    2  C2  UNL     1      44.025  12.937  -2.729  1.00  0.00    -0.113 C 
HETATM    3  C3  UNL     1      44.427  13.556  -1.482  1.00  0.00     0.062 C 
HETATM    4  C4  UNL     1      44.320  15.074  -1.715  1.00  0.00     0.023 C 
ENDROOT
BRANCH   3   5
HETATM    5  C5  UNL     1      45.796  13.251  -0.999  1.00  0.00     0.051 C 
BRANCH   5   6
HETATM    6  C6  UNL     1      45.925  12.578   0.329  1.00  0.00     0.180 C 
BRANCH   6   7
HETATM    7  N1  UNL     1      45.537  13.531   1.392  1.00  0.00    -0.324 N 
HETATM    8  C7  UNL     1      46.364  13.719   2.532  1.00  0.00     0.362 C 
HETATM    9  O1  UNL     1      47.460  13.073   2.665  1.00  0.00    -0.238 OA
ATOM     10  H1  UNL     1      44.668  14.058   1.306  1.00  0.00     0.165 HD
BRANCH   8  11
HETATM   11  O2  UNL     1      46.071  14.586   3.559  1.00  0.00    -0.294 OA
BRANCH  11  12
HETATM   12  C8  UNL     1      46.423  15.947   3.563  1.00  0.00     0.061 C 
HETATM   13  C9  UNL     1      47.931  16.040   3.524  1.00  0.00     0.046 C 
HETATM   14  C10 UNL     1      45.893  16.723   2.400  1.00  0.00     0.046 C 
HETATM   15  C11 UNL     1      45.970  16.644   4.834  1.00  0.00     0.046 C 
ENDBRANCH  11  12
ENDBRANCH   8  11
ENDBRANCH   6   7
BRANCH   6  16
HETATM   16  C12 UNL     1      45.210  11.311   0.508  1.00  0.00     0.243 C 
HETATM   17  O3  UNL     1      44.460  11.125   1.546  1.00  0.00    -0.271 OA
HETATM   18  N2  UNL     1      45.250  10.182  -0.385  1.00  0.00    -0.337 N 
HETATM   19  C13 UNL     1      44.450   8.956  -0.225  1.00  0.00     0.127 C 
HETATM   20  C16 UNL     1      46.068   9.955  -1.546  1.00  0.00     0.179 C 
HETATM   21  C14 UNL     1      44.123   8.592  -1.628  1.00  0.00     0.022 C 
HETATM   22  C15 UNL     1      45.147   9.265  -2.509  1.00  0.00     0.037 C 
BRANCH  20  23
HETATM   23  C17 UNL     1      47.225   9.019  -1.246  1.00  0.00     0.244 C 
HETATM   24  O4  UNL     1      47.391   8.009  -1.961  1.00  0.00    -0.271 OA
HETATM   25  N3  UNL     1      48.111   9.266  -0.181  1.00  0.00    -0.335 N 
ATOM     26  H3  UNL     1      47.893  10.104   0.359  1.00  0.00     0.168 HD
BRANCH  25  27
HETATM   27  C18 UNL     1      49.231   8.573   0.269  1.00  0.00     0.092 C 
BRANCH  27  28
HETATM   28  C19 UNL     1      50.378   8.174  -0.526  1.00  0.00     0.030 C 
BRANCH  28  29
HETATM   29  C20 UNL     1      51.387   7.231  -0.071  1.00  0.00    -0.011 A 
HETATM   30  C21 UNL     1      51.446   6.851   1.243  1.00  0.00     0.044 A 
HETATM   31  C22 UNL     1      52.382   5.921   1.746  1.00  0.00     0.054 A 
HETATM   32  C23 UNL     1      53.242   5.417   0.806  1.00  0.00     0.036 A 
HETATM   33  N4  UNL     1      52.522   5.492   2.984  1.00  0.00    -0.322 N 
HETATM   34  C24 UNL     1      53.189   5.802  -0.546  1.00  0.00     0.046 A 
HETATM   35  S1  UNL     1      54.211   4.356   1.724  1.00  0.00    -0.058 SA
HETATM   36  C25 UNL     1      52.261   6.713  -1.001  1.00  0.00     0.045 A 
HETATM   37 CL1  UNL     1      52.291   7.163  -2.690  1.00  0.00    -0.083 Cl
HETATM   38  C26 UNL     1      53.483   4.605   3.240  1.00  0.00     0.146 A 
HETATM   39  S2  UNL     1      53.850   3.924   4.707  1.00  0.00    -0.052 SA
BRANCH  33  40
HETATM   40  C27 UNL     1      51.652   5.964   4.102  1.00  0.00     0.241 C 
BRANCH  40  41
HETATM   41  C28 UNL     1      51.988   7.326   4.492  1.00  0.00     0.276 C 
HETATM   42  O5  UNL     1      53.086   7.601   5.024  1.00  0.00    -0.263 OA
BRANCH  41  43
HETATM   43  O6  UNL     1      51.084   8.348   4.274  1.00  0.00    -0.325 OA
HETATM   44  C29 UNL     1      49.708   8.181   4.061  1.00  0.00     0.213 C 
ENDBRANCH  41  43
ENDBRANCH  40  41
ENDBRANCH  33  40
ENDBRANCH  28  29
ENDBRANCH  27  28
ENDBRANCH  25  27
ENDBRANCH  20  23
ENDBRANCH   6  16
ENDBRANCH   5   6
ENDBRANCH   3   5
TORSDOF 13
ENDMDL
MODEL 3
REMARK VINA RESULT: -5.924194476      9.957     13.213
REMARK  13 active torsions:
REMARK  status: ('A' for Active; 'I' for Inactive)
REMARK    1  A    between atoms: C3_3  and  C5_5 
REMARK    2  A    between atoms: C5_5  and  C6_6 
REMARK    3  A    between atoms: C6_6  and  N1_7 
REMARK    4  A    between atoms: C6_6  and  C12_16 
REMARK       I    between atoms: N1_7  and  C7_9 
REMARK    5  A    between atoms: C7_9  and  O2_11 
REMARK    6  A    between atoms: O2_11  and  C8_12 
REMARK       I    between atoms: C12_16  and  N2_18 
REMARK    7  A    between atoms: C16_22  and  C17_23 
REMARK       I    between atoms: C17_23  and  N3_25 
REMARK    8  A    between atoms: N3_25  and  C18_27 
REMARK    9  A    between atoms: C18_27  and  C19_28 
REMARK   10  A    between atoms: C19_28  and  C20_29 
REMARK   11  A    between atoms: N4_39  and  C27_40 
REMARK   12  A    between atoms: C27_40  and  C28_41 
REMARK   13  A    between atoms: C28_41  and  O6_43 
ROOT
HETATM    1  C1  UNL     1      49.367   1.430   6.088  1.00  0.00     0.012 C 
HETATM    2  C2  UNL     1      49.476   1.506   4.886  1.00  0.00    -0.113 C 
HETATM    3  C3  UNL     1      49.635   1.569   3.447  1.00  0.00     0.062 C 
HETATM    4  C4  UNL     1      50.950   0.828   3.139  1.00  0.00     0.023 C 
ENDROOT
BRANCH   3   5
HETATM    5  C5  UNL     1      49.708   2.923   2.844  1.00  0.00     0.051 C 
BRANCH   5   6
HETATM    6  C6  UNL     1      48.660   3.289   1.844  1.00  0.00     0.180 C 
BRANCH   6   7
HETATM    7  N1  UNL     1      47.326   3.001   2.415  1.00  0.00    -0.324 N 
HETATM    8  C7  UNL     1      46.413   2.156   1.730  1.00  0.00     0.362 C 
HETATM    9  O1  UNL     1      46.720   1.625   0.607  1.00  0.00    -0.238 OA
ATOM     10  H1  UNL     1      47.060   3.413   3.310  1.00  0.00     0.165 HD
BRANCH   8  11
HETATM   11  O2  UNL     1      45.158   1.842   2.197  1.00  0.00    -0.294 OA
BRANCH  11  12
HETATM   12  C8  UNL     1      44.849   0.656   2.884  1.00  0.00     0.061 C 
HETATM   13  C9  UNL     1      44.360  -0.357   1.874  1.00  0.00     0.046 C 
HETATM   14  C10 UNL     1      46.007   0.046   3.609  1.00  0.00     0.046 C 
HETATM   15  C11 UNL     1      43.726   0.858   3.886  1.00  0.00     0.046 C 
ENDBRANCH  11  12
ENDBRANCH   8  11
ENDBRANCH   6   7
BRANCH   6  16
HETATM   16  C12 UNL     1      48.692   4.655   1.312  1.00  0.00     0.243 C 
HETATM   17  O3  UNL     1      48.644   4.859   0.035  1.00  0.00    -0.271 OA
HETATM   18  N2  UNL     1      48.780   5.864   2.088  1.00  0.00    -0.337 N 
HETATM   19  C13 UNL     1      48.721   7.226   1.530  1.00  0.00     0.127 C 
HETATM   20  C16 UNL     1      48.996   6.039   3.499  1.00  0.00     0.179 C 
HETATM   21  C14 UNL     1      47.974   7.975   2.575  1.00  0.00     0.022 C 
HETATM   22  C15 UNL     1      48.111   7.197   3.860  1.00  0.00     0.037 C 
BRANCH  20  23
HETATM   23  C17 UNL     1      50.431   6.427   3.807  1.00  0.00     0.244 C 
HETATM   24  O4  UNL     1      50.660   7.528   4.350  1.00  0.00    -0.271 OA
HETATM   25  N3  UNL     1      51.504   5.574   3.492  1.00  0.00    -0.335 N 
ATOM     26  H3  UNL     1      51.228   4.703   3.038  1.00  0.00     0.168 HD
BRANCH  25  27
HETATM   27  C18 UNL     1      52.877   5.704   3.689  1.00  0.00     0.092 C 
BRANCH  27  28
HETATM   28  C19 UNL     1      53.673   5.033   4.701  1.00  0.00     0.030 C 
BRANCH  28  29
HETATM   29  C20 UNL     1      53.704   3.590   4.878  1.00  0.00    -0.011 A 
HETATM   30  C21 UNL     1      54.467   2.802   4.059  1.00  0.00     0.044 A 
HETATM   31  C22 UNL     1      54.562   1.400   4.193  1.00  0.00     0.054 A 
HETATM   32  C23 UNL     1      53.823   0.876   5.221  1.00  0.00     0.036 A 
HETATM   33  N4  UNL     1      55.262   0.556   3.461  1.00  0.00    -0.322 N 
HETATM   34  C24 UNL     1      53.036   1.678   6.066  1.00  0.00     0.046 A 
HETATM   35  S1  UNL     1      54.156  -0.793   5.101  1.00  0.00    -0.058 SA
HETATM   36  C25 UNL     1      52.967   3.044   5.906  1.00  0.00     0.045 A 
HETATM   37 CL1  UNL     1      51.933   3.961   6.978  1.00  0.00    -0.083 Cl
HETATM   38  C26 UNL     1      55.205  -0.740   3.765  1.00  0.00     0.146 A 
HETATM   39  S2  UNL     1      55.991  -1.982   2.997  1.00  0.00    -0.052 SA
BRANCH  33  40
HETATM   40  C27 UNL     1      56.107   0.996   2.312  1.00  0.00     0.241 C 
BRANCH  40  41
HETATM   41  C28 UNL     1      57.418   1.442   2.762  1.00  0.00     0.276 C 
HETATM   42  O5  UNL     1      58.307   0.626   3.094  1.00  0.00    -0.263 OA
BRANCH  41  43
HETATM   43  O6  UNL     1      57.703   2.792   2.828  1.00  0.00    -0.325 OA
HETATM   44  C29 UNL     1      58.774   3.426   2.183  1.00  0.00     0.213 C 
ENDBRANCH  41  43
ENDBRANCH  40  41
ENDBRANCH  33  40
ENDBRANCH  28  29
ENDBRANCH  27  28
ENDBRANCH  25  27
ENDBRANCH  20  23
ENDBRANCH   6  16
ENDBRANCH   5   6
ENDBRANCH   3   5
TORSDOF 13
ENDMDL
MODEL 4
REMARK VINA RESULT: -5.914669715      1.844      2.106
REMARK  13 active torsions:
REMARK  status: ('A' for Active; 'I' for Inactive)
REMARK    1  A    between atoms: C3_3  and  C5_5 
REMARK    2  A    between atoms: C5_5  and  C6_6 
REMARK    3  A    between atoms: C6_6  and  N1_7 
REMARK    4  A    between atoms: C6_6  and  C12_16 
REMARK       I    between atoms: N1_7  and  C7_9 
REMARK    5  A    between atoms: C7_9  and  O2_11 
REMARK    6  A    between atoms: O2_11  and  C8_12 
REMARK       I    between atoms: C12_16  and  N2_18 
REMARK    7  A    between atoms: C16_22  and  C17_23 
REMARK       I    between atoms: C17_23  and  N3_25 
REMARK    8  A    between atoms: N3_25  and  C18_27 
REMARK    9  A    between atoms: C18_27  and  C19_28 
REMARK   10  A    between atoms: C19_28  and  C20_29 
REMARK   11  A    between atoms: N4_39  and  C27_40 
REMARK   12  A    between atoms: C27_40  and  C28_41 
REMARK   13  A    between atoms: C28_41  and  O6_43 
ROOT
HETATM    1  C1  UNL     1      48.406  11.380  -0.237  1.00  0.00     0.012 C 
HETATM    2  C2  UNL     1      47.458  11.863   0.338  1.00  0.00    -0.113 C 
HETATM    3  C3  UNL     1      46.327  12.415   1.056  1.00  0.00     0.062 C 
HETATM    4  C4  UNL     1      46.001  11.399   2.167  1.00  0.00     0.023 C 
ENDROOT
BRANCH   3   5
HETATM    5  C5  UNL     1      45.094  12.660   0.268  1.00  0.00     0.051 C 
BRANCH   5   6
HETATM    6  C6  UNL     1      44.514  14.037   0.307  1.00  0.00     0.180 C 
BRANCH   6   7
HETATM    7  N1  UNL     1      45.391  14.907   1.118  1.00  0.00    -0.324 N 
HETATM    8  C7  UNL     1      44.907  15.517   2.307  1.00  0.00     0.362 C 
HETATM    9  O1  UNL     1      43.706  15.327   2.703  1.00  0.00    -0.238 OA
ATOM     10  H1  UNL     1      46.353  15.072   0.822  1.00  0.00     0.165 HD
BRANCH   8  11
HETATM   11  O2  UNL     1      45.663  16.337   3.112  1.00  0.00    -0.294 OA
BRANCH  11  12
HETATM   12  C8  UNL     1      46.659  15.876   3.990  1.00  0.00     0.061 C 
HETATM   13  C9  UNL     1      46.480  16.582   5.314  1.00  0.00     0.046 C 
HETATM   14  C10 UNL     1      46.613  14.404   4.253  1.00  0.00     0.046 C 
HETATM   15  C11 UNL     1      48.053  16.217   3.493  1.00  0.00     0.046 C 
ENDBRANCH  11  12
ENDBRANCH   8  11
ENDBRANCH   6   7
BRANCH   6  16
HETATM   16  C12 UNL     1      44.226  14.676  -0.980  1.00  0.00     0.243 C 
HETATM   17  O3  UNL     1      43.284  15.558  -1.074  1.00  0.00    -0.271 OA
HETATM   18  N2  UNL     1      44.903  14.420  -2.225  1.00  0.00    -0.337 N 
HETATM   19  C13 UNL     1      44.651  15.143  -3.483  1.00  0.00     0.127 C 
HETATM   20  C16 UNL     1      45.886  13.420  -2.548  1.00  0.00     0.179 C 
HETATM   21  C14 UNL     1      46.006  15.226  -4.089  1.00  0.00     0.022 C 
HETATM   22  C15 UNL     1      46.837  14.133  -3.465  1.00  0.00     0.037 C 
BRANCH  20  23
HETATM   23  C17 UNL     1      45.277  12.257  -3.311  1.00  0.00     0.244 C 
HETATM   24  O4  UNL     1      45.801  11.893  -4.385  1.00  0.00    -0.271 OA
HETATM   25  N3  UNL     1      44.138  11.584  -2.833  1.00  0.00    -0.335 N 
ATOM     26  H3  UNL     1      43.768  11.956  -1.958  1.00  0.00     0.168 HD
BRANCH  25  27
HETATM   27  C18 UNL     1      43.425  10.501  -3.340  1.00  0.00     0.092 C 
BRANCH  27  28
HETATM   28  C19 UNL     1      43.816   9.104  -3.283  1.00  0.00     0.030 C 
BRANCH  28  29
HETATM   29  C20 UNL     1      45.159   8.655  -2.954  1.00  0.00    -0.011 A 
HETATM   30  C21 UNL     1      46.045   8.315  -3.942  1.00  0.00     0.044 A 
HETATM   31  C22 UNL     1      47.370   7.898  -3.692  1.00  0.00     0.054 A 
HETATM   32  C23 UNL     1      47.712   7.858  -2.366  1.00  0.00     0.036 A 
HETATM   33  N4  UNL     1      48.294   7.550  -4.566  1.00  0.00    -0.322 N 
HETATM   34  C24 UNL     1      46.809   8.205  -1.345  1.00  0.00     0.046 A 
HETATM   35  S1  UNL     1      49.332   7.327  -2.420  1.00  0.00    -0.058 SA
HETATM   36  C25 UNL     1      45.523   8.608  -1.626  1.00  0.00     0.045 A 
HETATM   37 CL1  UNL     1      44.455   8.984  -0.294  1.00  0.00    -0.083 Cl
HETATM   38  C26 UNL     1      49.490   7.183  -4.106  1.00  0.00     0.146 A 
HETATM   39  S2  UNL     1      50.802   6.708  -5.003  1.00  0.00    -0.052 SA
BRANCH  33  40
HETATM   40  C27 UNL     1      48.049   7.548  -6.038  1.00  0.00     0.241 C 
BRANCH  40  41
HETATM   41  C28 UNL     1      48.164   8.889  -6.593  1.00  0.00     0.276 C 
HETATM   42  O5  UNL     1      47.158   9.527  -6.975  1.00  0.00    -0.263 OA
BRANCH  41  43
HETATM   43  O6  UNL     1      49.405   9.485  -6.704  1.00  0.00    -0.325 OA
HETATM   44  C29 UNL     1      49.868  10.548  -5.915  1.00  0.00     0.213 C 
ENDBRANCH  41  43
ENDBRANCH  40  41
ENDBRANCH  33  40
ENDBRANCH  28  29
ENDBRANCH  27  28
ENDBRANCH  25  27
ENDBRANCH  20  23
ENDBRANCH   6  16
ENDBRANCH   5   6
ENDBRANCH   3   5
TORSDOF 13
ENDMDL
MODEL 5
REMARK VINA RESULT: -5.886657786      5.277      7.043
REMARK  13 active torsions:
REMARK  status: ('A' for Active; 'I' for Inactive)
REMARK    1  A    between atoms: C3_3  and  C5_5 
REMARK    2  A    between atoms: C5_5  and  C6_6 
REMARK    3  A    between atoms: C6_6  and  N1_7 
REMARK    4  A    between atoms: C6_6  and  C12_16 
REMARK       I    between atoms: N1_7  and  C7_9 
REMARK    5  A    between atoms: C7_9  and  O2_11 
REMARK    6  A    between atoms: O2_11  and  C8_12 
REMARK       I    between atoms: C12_16  and  N2_18 
REMARK    7  A    between atoms: C16_22  and  C17_23 
REMARK       I    between atoms: C17_23  and  N3_25 
REMARK    8  A    between atoms: N3_25  and  C18_27 
REMARK    9  A    between atoms: C18_27  and  C19_28 
REMARK   10  A    between atoms: C19_28  and  C20_29 
REMARK   11  A    between atoms: N4_39  and  C27_40 
REMARK   12  A    between atoms: C27_40  and  C28_41 
REMARK   13  A    between atoms: C28_41  and  O6_43 
ROOT
HETATM    1  C1  UNL     1      43.887  12.273  -3.717  1.00  0.00     0.012 C 
HETATM    2  C2  UNL     1      44.164  12.782  -2.656  1.00  0.00    -0.113 C 
HETATM    3  C3  UNL     1      44.480  13.427  -1.397  1.00  0.00     0.062 C 
HETATM    4  C4  UNL     1      44.293  14.936  -1.642  1.00  0.00     0.023 C 
ENDROOT
BRANCH   3   5
HETATM    5  C5  UNL     1      45.845  13.205  -0.860  1.00  0.00     0.051 C 
BRANCH   5   6
HETATM    6  C6  UNL     1      45.962  12.528   0.467  1.00  0.00     0.180 C 
BRANCH   6   7
HETATM    7  N1  UNL     1      45.653  13.503   1.535  1.00  0.00    -0.324 N 
HETATM    8  C7  UNL     1      46.483  13.608   2.683  1.00  0.00     0.362 C 
HETATM    9  O1  UNL     1      47.516  12.865   2.819  1.00  0.00    -0.238 OA
ATOM     10  H1  UNL     1      44.835  14.107   1.446  1.00  0.00     0.165 HD
BRANCH   8  11
HETATM   11  O2  UNL     1      46.260  14.489   3.715  1.00  0.00    -0.294 OA
BRANCH  11  12
HETATM   12  C8  UNL     1      46.511  15.870   3.637  1.00  0.00     0.061 C 
HETATM   13  C9  UNL     1      48.007  16.069   3.535  1.00  0.00     0.046 C 
HETATM   14  C10 UNL     1      45.886  16.543   2.457  1.00  0.00     0.046 C 
HETATM   15  C11 UNL     1      46.053  16.600   4.888  1.00  0.00     0.046 C 
ENDBRANCH  11  12
ENDBRANCH   8  11
ENDBRANCH   6   7
BRANCH   6  16
HETATM   16  C12 UNL     1      45.179  11.305   0.664  1.00  0.00     0.243 C 
HETATM   17  O3  UNL     1      44.357  11.209   1.660  1.00  0.00    -0.271 OA
HETATM   18  N2  UNL     1      45.222  10.128  -0.164  1.00  0.00    -0.337 N 
HETATM   19  C13 UNL     1      44.357   8.948   0.007  1.00  0.00     0.127 C 
HETATM   20  C16 UNL     1      46.101   9.802  -1.255  1.00  0.00     0.179 C 
HETATM   21  C14 UNL     1      44.103   8.523  -1.394  1.00  0.00     0.022 C 
HETATM   22  C15 UNL     1      45.210   9.101  -2.240  1.00  0.00     0.037 C 
BRANCH  20  23
HETATM   23  C17 UNL     1      47.191   8.835  -0.832  1.00  0.00     0.244 C 
HETATM   24  O4  UNL     1      47.610   7.993  -1.654  1.00  0.00    -0.271 OA
HETATM   25  N3  UNL     1      47.737   8.867   0.465  1.00  0.00    -0.335 N 
ATOM     26  H3  UNL     1      47.326   9.575   1.074  1.00  0.00     0.168 HD
BRANCH  25  27
HETATM   27  C18 UNL     1      48.736   8.106   1.066  1.00  0.00     0.092 C 
BRANCH  27  28
HETATM   28  C19 UNL     1      49.419   6.963   0.488  1.00  0.00     0.030 C 
BRANCH  28  29
HETATM   29  C20 UNL     1      49.334   5.616   1.026  1.00  0.00    -0.011 A 
HETATM   30  C21 UNL     1      49.588   5.375   2.350  1.00  0.00     0.044 A 
HETATM   31  C22 UNL     1      49.498   4.096   2.942  1.00  0.00     0.054 A 
HETATM   32  C23 UNL     1      49.131   3.096   2.081  1.00  0.00     0.036 A 
HETATM   33  N4  UNL     1      49.722   3.760   4.197  1.00  0.00    -0.322 N 
HETATM   34  C24 UNL     1      48.869   3.335   0.719  1.00  0.00     0.046 A 
HETATM   35  S1  UNL     1      49.121   1.723   3.092  1.00  0.00    -0.058 SA
HETATM   36  C25 UNL     1      48.967   4.596   0.176  1.00  0.00     0.045 A 
HETATM   37 CL1  UNL     1      48.660   4.796  -1.534  1.00  0.00    -0.083 Cl
HETATM   38  C26 UNL     1      49.579   2.482   4.543  1.00  0.00     0.146 A 
HETATM   39  S2  UNL     1      49.803   1.822   6.048  1.00  0.00    -0.052 SA
BRANCH  33  40
HETATM   40  C27 UNL     1      50.130   4.753   5.235  1.00  0.00     0.241 C 
BRANCH  40  41
HETATM   41  C28 UNL     1      51.547   4.637   5.547  1.00  0.00     0.276 C 
HETATM   42  O5  UNL     1      51.960   4.657   6.727  1.00  0.00    -0.263 OA
BRANCH  41  43
HETATM   43  O6  UNL     1      52.469   4.500   4.527  1.00  0.00    -0.325 OA
HETATM   44  C29 UNL     1      53.048   5.557   3.811  1.00  0.00     0.213 C 
ENDBRANCH  41  43
ENDBRANCH  40  41
ENDBRANCH  33  40
ENDBRANCH  28  29
ENDBRANCH  27  28
ENDBRANCH  25  27
ENDBRANCH  20  23
ENDBRANCH   6  16
ENDBRANCH   5   6
ENDBRANCH   3   5
TORSDOF 13
ENDMDL
