MODEL 1
REMARK VINA RESULT: -6.906854800      0.000      0.000
REMARK  15 active torsions:
REMARK  status: ('A' for Active; 'I' for Inactive)
REMARK    1  A    between atoms: C13_16  and  C14_17 
REMARK    2  A    between atoms: C14_17  and  C15_18 
REMARK    3  A    between atoms: C15_18  and  C16_19 
REMARK    4  A    between atoms: C18_21  and  O3_22 
REMARK    5  A    between atoms: C19_24  and  C20_25 
REMARK    6  A    between atoms: C20_25  and  O4_26 
REMARK    7  A    between atoms: C21_28  and  O5_29 
REMARK    8  A    between atoms: C22_31  and  C23_32 
REMARK    9  A    between atoms: C23_32  and  O6_33 
REMARK   10  A    between atoms: O6_33  and  C24_34 
REMARK   11  A    between atoms: C24_34  and  C25_36 
REMARK   12  A    between atoms: C25_36  and  C26_37 
REMARK   13  A    between atoms: C25_36  and  C28_39 
REMARK   14  A    between atoms: C33_44  and  O8_45 
REMARK   15  A    between atoms: O8_45  and  C34_46 
ROOT
HETATM    1  C16 UNL     1      50.788   2.012   4.858  1.00  0.00    -0.010 C 
HETATM    2  C17 UNL     1      49.686   3.033   4.548  1.00  0.00     0.018 C 
HETATM    3  C18 UNL     1      50.878   2.155   6.432  1.00  0.00     0.135 C 
HETATM    4  C19 UNL     1      51.285   3.485   6.882  1.00  0.00     0.068 C 
HETATM    5  C21 UNL     1      52.158   4.296   6.052  1.00  0.00     0.133 C 
HETATM    6  C22 UNL     1      52.169   3.942   4.541  1.00  0.00     0.048 C 
HETATM    7  C30 UNL     1      52.100   2.463   4.362  1.00  0.00    -0.030 C 
HETATM    8  C31 UNL     1      52.310   2.101   2.901  1.00  0.00     0.016 C 
HETATM    9  C32 UNL     1      53.289   1.813   5.046  1.00  0.00     0.016 C 
ENDROOT
BRANCH   1  10
HETATM   10  C15 UNL     1      50.279   0.640   4.705  1.00  0.00     0.013 C 
BRANCH  10  11
HETATM   11  C14 UNL     1      48.829   0.341   4.931  1.00  0.00     0.011 C 
BRANCH  11  12
HETATM   12  C13 UNL     1      48.100  -0.051   3.679  1.00  0.00     0.057 C 
HETATM   13  C12 UNL     1      49.084  -0.377   2.601  1.00  0.00     0.171 C 
HETATM   14  C10 UNL     1      48.461  -1.245   1.566  1.00  0.00     0.160 C 
HETATM   15  O2  UNL     1      49.463   0.432   1.606  1.00  0.00    -0.379 OA
HETATM   16  C9  UNL     1      47.191  -0.680   1.062  1.00  0.00     0.091 C 
HETATM   17  F1  UNL     1      48.444  -2.592   1.832  1.00  0.00    -0.237 F 
HETATM   18  C11 UNL     1      49.740  -0.766   0.884  1.00  0.00     0.215 C 
HETATM   19  C2  UNL     1      47.250   0.528   0.228  1.00  0.00    -0.079 C 
HETATM   20  C8  UNL     1      46.225  -0.474   2.154  1.00  0.00     0.176 C 
HETATM   21  C1  UNL     1      47.544   0.311  -1.051  1.00  0.00     0.015 C 
HETATM   22  C3  UNL     1      47.036   1.963   0.480  1.00  0.00     0.034 C 
HETATM   23  C4  UNL     1      46.883   2.462   1.842  1.00  0.00     0.019 C 
HETATM   24  C5  UNL     1      46.337   1.703   2.938  1.00  0.00     0.080 C 
HETATM   25  C6  UNL     1      44.903   1.391   2.575  1.00  0.00     0.045 C 
HETATM   26  C33 UNL     1      46.757   0.377   3.376  1.00  0.00     0.113 C 
HETATM   27  C7  UNL     1      43.772   1.867   2.858  1.00  0.00     0.046 C 
HETATM   28  O1  UNL     1      45.088   0.263   1.727  1.00  0.00    -0.347 OA
BRANCH  26  29
HETATM   29  O8  UNL     1      45.848  -0.138   4.324  1.00  0.00    -0.306 OA
BRANCH  29  30
HETATM   30  C34 UNL     1      45.477  -1.312   4.755  1.00  0.00     0.255 C 
HETATM   31  C35 UNL     1      46.328  -2.391   5.332  1.00  0.00     0.126 C 
HETATM   32  O9  UNL     1      44.258  -1.498   4.643  1.00  0.00    -0.266 OA
ENDBRANCH  29  30
ENDBRANCH  26  29
ENDBRANCH  11  12
ENDBRANCH  10  11
ENDBRANCH   1  10
BRANCH   3  33
HETATM   33  O3  UNL     1      51.601   1.075   6.923  1.00  0.00    -0.394 OA
ATOM     34  H3  UNL     1      52.504   1.174   6.647  1.00  0.00     0.210 HD
ENDBRANCH   3  33
BRANCH   4  35
HETATM   35  C20 UNL     1      51.652   3.378   8.361  1.00  0.00     0.173 C 
BRANCH  35  36
HETATM   36  O4  UNL     1      52.011   4.528   8.990  1.00  0.00    -0.400 OA
ATOM     37  H4  UNL     1      52.928   4.623   9.220  1.00  0.00     0.209 HD
ENDBRANCH  35  36
ENDBRANCH   4  35
BRANCH   6  38
HETATM   38  C23 UNL     1      53.294   4.724   3.998  1.00  0.00     0.186 C 
BRANCH  38  39
HETATM   39  O6  UNL     1      53.083   5.937   3.359  1.00  0.00    -0.321 OA
BRANCH  39  40
HETATM   40  C24 UNL     1      52.417   7.012   3.989  1.00  0.00     0.263 C 
HETATM   41  O7  UNL     1      52.951   7.532   4.963  1.00  0.00    -0.265 OA
BRANCH  40  42
HETATM   42  C25 UNL     1      51.104   7.483   3.457  1.00  0.00     0.085 C 
BRANCH  42  43
HETATM   43  C26 UNL     1      50.985   6.898   2.057  1.00  0.00     0.010 C 
HETATM   44  C27 UNL     1      51.205   7.912   0.998  1.00  0.00     0.006 C 
ENDBRANCH  42  43
BRANCH  42  45
HETATM   45  C28 UNL     1      50.010   6.820   4.307  1.00  0.00     0.010 C 
HETATM   46  C29 UNL     1      48.667   6.829   3.596  1.00  0.00     0.006 C 
ENDBRANCH  42  45
ENDBRANCH  40  42
ENDBRANCH  39  40
ENDBRANCH  38  39
ENDBRANCH   6  38
BRANCH   5  47
HETATM   47  O5  UNL     1      53.479   4.470   6.428  1.00  0.00    -0.395 OA
ATOM     48  H5  UNL     1      54.018   5.092   5.954  1.00  0.00     0.210 HD
ENDBRANCH   5  47
TORSDOF 15
ENDMDL
MODEL 2
REMARK VINA RESULT: -6.780987286      1.697      2.722
REMARK  15 active torsions:
REMARK  status: ('A' for Active; 'I' for Inactive)
REMARK    1  A    between atoms: C13_16  and  C14_17 
REMARK    2  A    between atoms: C14_17  and  C15_18 
REMARK    3  A    between atoms: C15_18  and  C16_19 
REMARK    4  A    between atoms: C18_21  and  O3_22 
REMARK    5  A    between atoms: C19_24  and  C20_25 
REMARK    6  A    between atoms: C20_25  and  O4_26 
REMARK    7  A    between atoms: C21_28  and  O5_29 
REMARK    8  A    between atoms: C22_31  and  C23_32 
REMARK    9  A    between atoms: C23_32  and  O6_33 
REMARK   10  A    between atoms: O6_33  and  C24_34 
REMARK   11  A    between atoms: C24_34  and  C25_36 
REMARK   12  A    between atoms: C25_36  and  C26_37 
REMARK   13  A    between atoms: C25_36  and  C28_39 
REMARK   14  A    between atoms: C33_44  and  O8_45 
REMARK   15  A    between atoms: O8_45  and  C34_46 
ROOT
HETATM    1  C16 UNL     1      50.586   1.358   5.485  1.00  0.00    -0.010 C 
HETATM    2  C17 UNL     1      50.128   1.432   6.947  1.00  0.00     0.018 C 
HETATM    3  C18 UNL     1      51.954   0.578   5.653  1.00  0.00     0.135 C 
HETATM    4  C19 UNL     1      52.947   1.291   6.455  1.00  0.00     0.068 C 
HETATM    5  C21 UNL     1      52.960   2.743   6.469  1.00  0.00     0.133 C 
HETATM    6  C22 UNL     1      51.626   3.432   6.079  1.00  0.00     0.048 C 
HETATM    7  C30 UNL     1      50.969   2.684   4.970  1.00  0.00    -0.030 C 
HETATM    8  C31 UNL     1      49.768   3.459   4.452  1.00  0.00     0.016 C 
HETATM    9  C32 UNL     1      51.893   2.648   3.766  1.00  0.00     0.016 C 
ENDROOT
BRANCH   1  10
HETATM   10  C15 UNL     1      49.772   0.388   4.738  1.00  0.00     0.013 C 
BRANCH  10  11
HETATM   11  C14 UNL     1      48.340   0.155   5.110  1.00  0.00     0.011 C 
BRANCH  11  12
HETATM   12  C13 UNL     1      47.464  -0.170   3.935  1.00  0.00     0.057 C 
HETATM   13  C12 UNL     1      47.539   0.934   2.928  1.00  0.00     0.171 C 
HETATM   14  C10 UNL     1      47.141   0.443   1.581  1.00  0.00     0.160 C 
HETATM   15  O2  UNL     1      46.647   1.916   2.766  1.00  0.00    -0.379 OA
HETATM   16  C9  UNL     1      45.836  -0.251   1.608  1.00  0.00     0.091 C 
HETATM   17  F1  UNL     1      48.123  -0.172   0.844  1.00  0.00    -0.237 F 
HETATM   18  C11 UNL     1      47.104   1.961   1.417  1.00  0.00     0.215 C 
HETATM   19  C2  UNL     1      44.627   0.550   1.839  1.00  0.00    -0.079 C 
HETATM   20  C8  UNL     1      45.854  -1.389   2.543  1.00  0.00     0.176 C 
HETATM   21  C1  UNL     1      44.157   1.177   0.763  1.00  0.00     0.015 C 
HETATM   22  C3  UNL     1      43.778   0.818   3.012  1.00  0.00     0.034 C 
HETATM   23  C4  UNL     1      44.195   0.388   4.342  1.00  0.00     0.019 C 
HETATM   24  C5  UNL     1      45.028  -0.754   4.612  1.00  0.00     0.080 C 
HETATM   25  C6  UNL     1      44.264  -1.969   4.136  1.00  0.00     0.045 C 
HETATM   26  C33 UNL     1      46.325  -1.050   4.013  1.00  0.00     0.113 C 
HETATM   27  C7  UNL     1      43.552  -2.858   4.671  1.00  0.00     0.046 C 
HETATM   28  O1  UNL     1      44.556  -1.933   2.744  1.00  0.00    -0.347 OA
BRANCH  26  29
HETATM   29  O8  UNL     1      46.732  -2.359   4.345  1.00  0.00    -0.306 OA
BRANCH  29  30
HETATM   30  C34 UNL     1      47.513  -3.275   3.842  1.00  0.00     0.255 C 
HETATM   31  C35 UNL     1      48.934  -3.138   3.413  1.00  0.00     0.126 C 
HETATM   32  O9  UNL     1      46.949  -4.371   3.727  1.00  0.00    -0.266 OA
ENDBRANCH  29  30
ENDBRANCH  26  29
ENDBRANCH  11  12
ENDBRANCH  10  11
ENDBRANCH   1  10
BRANCH   3  33
HETATM   33  O3  UNL     1      52.356   0.138   4.398  1.00  0.00    -0.394 OA
ATOM     34  H3  UNL     1      52.401   0.891   3.821  1.00  0.00     0.210 HD
ENDBRANCH   3  33
BRANCH   4  35
HETATM   35  C20 UNL     1      54.291   0.596   6.246  1.00  0.00     0.173 C 
BRANCH  35  36
HETATM   36  O4  UNL     1      55.024   0.985   5.170  1.00  0.00    -0.400 OA
ATOM     37  H4  UNL     1      55.007   0.413   4.410  1.00  0.00     0.209 HD
ENDBRANCH  35  36
ENDBRANCH   4  35
BRANCH   6  38
HETATM   38  C23 UNL     1      51.985   4.853   5.933  1.00  0.00     0.186 C 
BRANCH  38  39
HETATM   39  O6  UNL     1      52.431   5.360   4.721  1.00  0.00    -0.321 OA
BRANCH  39  40
HETATM   40  C24 UNL     1      52.387   6.740   4.423  1.00  0.00     0.263 C 
HETATM   41  O7  UNL     1      53.081   7.499   5.092  1.00  0.00    -0.265 OA
BRANCH  40  42
HETATM   42  C25 UNL     1      51.515   7.231   3.315  1.00  0.00     0.085 C 
BRANCH  42  43
HETATM   43  C26 UNL     1      51.362   6.062   2.353  1.00  0.00     0.010 C 
HETATM   44  C27 UNL     1      52.420   6.040   1.314  1.00  0.00     0.006 C 
ENDBRANCH  42  43
BRANCH  42  45
HETATM   45  C28 UNL     1      50.127   7.493   3.916  1.00  0.00     0.010 C 
HETATM   46  C29 UNL     1      49.025   6.884   3.066  1.00  0.00     0.006 C 
ENDBRANCH  42  45
ENDBRANCH  40  42
ENDBRANCH  39  40
ENDBRANCH  38  39
ENDBRANCH   6  38
BRANCH   5  47
HETATM   47  O5  UNL     1      53.965   3.416   5.796  1.00  0.00    -0.395 OA
ATOM     48  H5  UNL     1      53.750   4.204   5.310  1.00  0.00     0.210 HD
ENDBRANCH   5  47
TORSDOF 15
ENDMDL
MODEL 3
REMARK VINA RESULT: -6.703907164      1.361      2.229
REMARK  15 active torsions:
REMARK  status: ('A' for Active; 'I' for Inactive)
REMARK    1  A    between atoms: C13_16  and  C14_17 
REMARK    2  A    between atoms: C14_17  and  C15_18 
REMARK    3  A    between atoms: C15_18  and  C16_19 
REMARK    4  A    between atoms: C18_21  and  O3_22 
REMARK    5  A    between atoms: C19_24  and  C20_25 
REMARK    6  A    between atoms: C20_25  and  O4_26 
REMARK    7  A    between atoms: C21_28  and  O5_29 
REMARK    8  A    between atoms: C22_31  and  C23_32 
REMARK    9  A    between atoms: C23_32  and  O6_33 
REMARK   10  A    between atoms: O6_33  and  C24_34 
REMARK   11  A    between atoms: C24_34  and  C25_36 
REMARK   12  A    between atoms: C25_36  and  C26_37 
REMARK   13  A    between atoms: C25_36  and  C28_39 
REMARK   14  A    between atoms: C33_44  and  O8_45 
REMARK   15  A    between atoms: O8_45  and  C34_46 
ROOT
HETATM    1  C16 UNL     1      50.622   2.182   4.878  1.00  0.00    -0.010 C 
HETATM    2  C17 UNL     1      49.573   3.273   4.633  1.00  0.00     0.018 C 
HETATM    3  C18 UNL     1      50.760   2.264   6.453  1.00  0.00     0.135 C 
HETATM    4  C19 UNL     1      51.254   3.553   6.936  1.00  0.00     0.068 C 
HETATM    5  C21 UNL     1      52.150   4.342   6.110  1.00  0.00     0.133 C 
HETATM    6  C22 UNL     1      52.103   4.041   4.589  1.00  0.00     0.048 C 
HETATM    7  C30 UNL     1      51.945   2.576   4.362  1.00  0.00    -0.030 C 
HETATM    8  C31 UNL     1      52.097   2.254   2.884  1.00  0.00     0.016 C 
HETATM    9  C32 UNL     1      53.111   1.836   4.991  1.00  0.00     0.016 C 
ENDROOT
BRANCH   1  10
HETATM   10  C15 UNL     1      50.032   0.847   4.693  1.00  0.00     0.013 C 
BRANCH  10  11
HETATM   11  C14 UNL     1      48.603   0.593   5.065  1.00  0.00     0.011 C 
BRANCH  11  12
HETATM   12  C13 UNL     1      47.764   0.118   3.914  1.00  0.00     0.057 C 
HETATM   13  C12 UNL     1      47.658   1.198   2.885  1.00  0.00     0.171 C 
HETATM   14  C10 UNL     1      47.313   0.625   1.555  1.00  0.00     0.160 C 
HETATM   15  O2  UNL     1      46.629   2.036   2.722  1.00  0.00    -0.379 OA
HETATM   16  C9  UNL     1      46.125  -0.251   1.623  1.00  0.00     0.091 C 
HETATM   17  F1  UNL     1      48.362   0.144   0.811  1.00  0.00    -0.237 F 
HETATM   18  C11 UNL     1      47.052   2.117   1.363  1.00  0.00     0.215 C 
HETATM   19  C2  UNL     1      44.815   0.369   1.863  1.00  0.00    -0.079 C 
HETATM   20  C8  UNL     1      46.326  -1.354   2.579  1.00  0.00     0.176 C 
HETATM   21  C1  UNL     1      44.240   0.897   0.785  1.00  0.00     0.015 C 
HETATM   22  C3  UNL     1      43.957   0.535   3.048  1.00  0.00     0.034 C 
HETATM   23  C4  UNL     1      44.456   0.201   4.377  1.00  0.00     0.019 C 
HETATM   24  C5  UNL     1      45.453  -0.801   4.652  1.00  0.00     0.080 C 
HETATM   25  C6  UNL     1      44.866  -2.125   4.215  1.00  0.00     0.045 C 
HETATM   26  C33 UNL     1      46.768  -0.918   4.032  1.00  0.00     0.113 C 
HETATM   27  C7  UNL     1      44.302  -3.097   4.782  1.00  0.00     0.046 C 
HETATM   28  O1  UNL     1      45.126  -2.077   2.817  1.00  0.00    -0.347 OA
BRANCH  26  29
HETATM   29  O8  UNL     1      47.369  -2.145   4.381  1.00  0.00    -0.306 OA
BRANCH  29  30
HETATM   30  C34 UNL     1      48.248  -2.960   3.867  1.00  0.00     0.255 C 
HETATM   31  C35 UNL     1      49.559  -2.625   3.243  1.00  0.00     0.126 C 
HETATM   32  O9  UNL     1      47.894  -4.145   3.931  1.00  0.00    -0.266 OA
ENDBRANCH  29  30
ENDBRANCH  26  29
ENDBRANCH  11  12
ENDBRANCH  10  11
ENDBRANCH   1  10
BRANCH   3  33
HETATM   33  O3  UNL     1      51.432   1.129   6.887  1.00  0.00    -0.394 OA
ATOM     34  H3  UNL     1      52.333   1.188   6.594  1.00  0.00     0.210 HD
ENDBRANCH   3  33
BRANCH   4  35
HETATM   35  C20 UNL     1      51.651   3.372   8.400  1.00  0.00     0.173 C 
BRANCH  35  36
HETATM   36  O4  UNL     1      51.994   4.495   9.086  1.00  0.00    -0.400 OA
ATOM     37  H4  UNL     1      52.422   4.370   9.926  1.00  0.00     0.209 HD
ENDBRANCH  35  36
ENDBRANCH   4  35
BRANCH   6  38
HETATM   38  C23 UNL     1      53.257   4.776   4.042  1.00  0.00     0.186 C 
BRANCH  38  39
HETATM   39  O6  UNL     1      53.092   5.993   3.396  1.00  0.00    -0.321 OA
BRANCH  39  40
HETATM   40  C24 UNL     1      52.417   7.078   3.998  1.00  0.00     0.263 C 
HETATM   41  O7  UNL     1      52.914   7.585   4.999  1.00  0.00    -0.265 OA
BRANCH  40  42
HETATM   42  C25 UNL     1      51.140   7.576   3.408  1.00  0.00     0.085 C 
BRANCH  42  43
HETATM   43  C26 UNL     1      51.037   6.935   2.031  1.00  0.00     0.010 C 
HETATM   44  C27 UNL     1      51.238   7.912   0.934  1.00  0.00     0.006 C 
ENDBRANCH  42  43
BRANCH  42  45
HETATM   45  C28 UNL     1      49.997   6.994   4.252  1.00  0.00     0.010 C 
HETATM   46  C29 UNL     1      48.650   7.178   3.573  1.00  0.00     0.006 C 
ENDBRANCH  42  45
ENDBRANCH  40  42
ENDBRANCH  39  40
ENDBRANCH  38  39
ENDBRANCH   6  38
BRANCH   5  47
HETATM   47  O5  UNL     1      53.488   4.427   6.457  1.00  0.00    -0.395 OA
ATOM     48  H5  UNL     1      53.980   3.629   6.608  1.00  0.00     0.210 HD
ENDBRANCH   5  47
TORSDOF 15
ENDMDL
MODEL 4
REMARK VINA RESULT: -6.681669720      4.866      8.921
REMARK  15 active torsions:
REMARK  status: ('A' for Active; 'I' for Inactive)
REMARK    1  A    between atoms: C13_16  and  C14_17 
REMARK    2  A    between atoms: C14_17  and  C15_18 
REMARK    3  A    between atoms: C15_18  and  C16_19 
REMARK    4  A    between atoms: C18_21  and  O3_22 
REMARK    5  A    between atoms: C19_24  and  C20_25 
REMARK    6  A    between atoms: C20_25  and  O4_26 
REMARK    7  A    between atoms: C21_28  and  O5_29 
REMARK    8  A    between atoms: C22_31  and  C23_32 
REMARK    9  A    between atoms: C23_32  and  O6_33 
REMARK   10  A    between atoms: O6_33  and  C24_34 
REMARK   11  A    between atoms: C24_34  and  C25_36 
REMARK   12  A    between atoms: C25_36  and  C26_37 
REMARK   13  A    between atoms: C25_36  and  C28_39 
REMARK   14  A    between atoms: C33_44  and  O8_45 
REMARK   15  A    between atoms: O8_45  and  C34_46 
ROOT
HETATM    1  C16 UNL     1      49.416   7.005   3.299  1.00  0.00    -0.010 C 
HETATM    2  C17 UNL     1      48.533   6.846   4.543  1.00  0.00     0.018 C 
HETATM    3  C18 UNL     1      48.853   5.834   2.395  1.00  0.00     0.135 C 
HETATM    4  C19 UNL     1      49.035   4.503   2.973  1.00  0.00     0.068 C 
HETATM    5  C21 UNL     1      50.167   4.238   3.842  1.00  0.00     0.133 C 
HETATM    6  C22 UNL     1      50.797   5.480   4.524  1.00  0.00     0.048 C 
HETATM    7  C30 UNL     1      50.814   6.631   3.576  1.00  0.00    -0.030 C 
HETATM    8  C31 UNL     1      51.605   7.787   4.166  1.00  0.00     0.016 C 
HETATM    9  C32 UNL     1      51.621   6.262   2.345  1.00  0.00     0.016 C 
ENDROOT
BRANCH   1  10
HETATM   10  C15 UNL     1      49.020   8.198   2.534  1.00  0.00     0.013 C 
BRANCH  10  11
HETATM   11  C14 UNL     1      47.614   8.348   2.040  1.00  0.00     0.011 C 
BRANCH  11  12
HETATM   12  C13 UNL     1      47.464   9.406   0.986  1.00  0.00     0.057 C 
HETATM   13  C12 UNL     1      46.754  10.592   1.556  1.00  0.00     0.171 C 
HETATM   14  C10 UNL     1      47.044  11.813   0.755  1.00  0.00     0.160 C 
HETATM   15  O2  UNL     1      45.456  10.881   1.411  1.00  0.00    -0.379 OA
HETATM   16  C9  UNL     1      46.791  11.603  -0.685  1.00  0.00     0.091 C 
HETATM   17  F1  UNL     1      48.207  12.477   1.061  1.00  0.00    -0.237 F 
HETATM   18  C11 UNL     1      45.849  12.238   1.605  1.00  0.00     0.215 C 
HETATM   19  C2  UNL     1      45.399  11.459  -1.133  1.00  0.00    -0.079 C 
HETATM   20  C8  UNL     1      47.592  10.486  -1.213  1.00  0.00     0.176 C 
HETATM   21  C1  UNL     1      44.739  12.604  -1.287  1.00  0.00     0.015 C 
HETATM   22  C3  UNL     1      44.543  10.311  -1.477  1.00  0.00     0.034 C 
HETATM   23  C4  UNL     1      44.988   8.948  -1.211  1.00  0.00     0.019 C 
HETATM   24  C5  UNL     1      46.363   8.523  -1.192  1.00  0.00     0.080 C 
HETATM   25  C6  UNL     1      46.903   8.742  -2.587  1.00  0.00     0.045 C 
HETATM   26  C33 UNL     1      47.451   9.121  -0.428  1.00  0.00     0.113 C 
HETATM   27  C7  UNL     1      47.108   8.026  -3.602  1.00  0.00     0.046 C 
HETATM   28  O1  UNL     1      47.206  10.132  -2.534  1.00  0.00    -0.347 OA
BRANCH  26  29
HETATM   29  O8  UNL     1      48.691   8.586  -0.836  1.00  0.00    -0.306 OA
BRANCH  29  30
HETATM   30  C34 UNL     1      49.951   8.911  -0.743  1.00  0.00     0.255 C 
HETATM   31  C35 UNL     1      50.564  10.263  -0.866  1.00  0.00     0.126 C 
HETATM   32  O9  UNL     1      50.680   7.933  -0.531  1.00  0.00    -0.266 OA
ENDBRANCH  29  30
ENDBRANCH  26  29
ENDBRANCH  11  12
ENDBRANCH  10  11
ENDBRANCH   1  10
BRANCH   3  33
HETATM   33  O3  UNL     1      49.317   6.027   1.100  1.00  0.00    -0.394 OA
ATOM     34  H3  UNL     1      48.746   6.653   0.672  1.00  0.00     0.210 HD
ENDBRANCH   3  33
BRANCH   4  35
HETATM   35  C20 UNL     1      48.765   3.482   1.869  1.00  0.00     0.173 C 
BRANCH  35  36
HETATM   36  O4  UNL     1      49.758   3.279   0.963  1.00  0.00    -0.400 OA
ATOM     37  H4  UNL     1      50.406   2.618   1.178  1.00  0.00     0.209 HD
ENDBRANCH  35  36
ENDBRANCH   4  35
BRANCH   6  38
HETATM   38  C23 UNL     1      52.042   4.969   5.123  1.00  0.00     0.186 C 
BRANCH  38  39
HETATM   39  O6  UNL     1      52.211   4.921   6.499  1.00  0.00    -0.321 OA
BRANCH  39  40
HETATM   40  C24 UNL     1      51.872   3.779   7.258  1.00  0.00     0.263 C 
HETATM   41  O7  UNL     1      51.688   3.920   8.463  1.00  0.00    -0.265 OA
BRANCH  40  42
HETATM   42  C25 UNL     1      51.744   2.453   6.586  1.00  0.00     0.085 C 
BRANCH  42  43
HETATM   43  C26 UNL     1      53.022   1.693   6.912  1.00  0.00     0.010 C 
HETATM   44  C27 UNL     1      53.026   0.321   6.348  1.00  0.00     0.006 C 
ENDBRANCH  42  43
BRANCH  42  45
HETATM   45  C28 UNL     1      50.597   1.704   7.279  1.00  0.00     0.010 C 
HETATM   46  C29 UNL     1      49.466   1.396   6.313  1.00  0.00     0.006 C 
ENDBRANCH  42  45
ENDBRANCH  40  42
ENDBRANCH  39  40
ENDBRANCH  38  39
ENDBRANCH   6  38
BRANCH   5  47
HETATM   47  O5  UNL     1      51.218   3.470   3.368  1.00  0.00    -0.395 OA
ATOM     48  H5  UNL     1      51.937   3.897   2.918  1.00  0.00     0.210 HD
ENDBRANCH   5  47
TORSDOF 15
ENDMDL
MODEL 5
REMARK VINA RESULT: -6.662739110      5.084      8.891
REMARK  15 active torsions:
REMARK  status: ('A' for Active; 'I' for Inactive)
REMARK    1  A    between atoms: C13_16  and  C14_17 
REMARK    2  A    between atoms: C14_17  and  C15_18 
REMARK    3  A    between atoms: C15_18  and  C16_19 
REMARK    4  A    between atoms: C18_21  and  O3_22 
REMARK    5  A    between atoms: C19_24  and  C20_25 
REMARK    6  A    between atoms: C20_25  and  O4_26 
REMARK    7  A    between atoms: C21_28  and  O5_29 
REMARK    8  A    between atoms: C22_31  and  C23_32 
REMARK    9  A    between atoms: C23_32  and  O6_33 
REMARK   10  A    between atoms: O6_33  and  C24_34 
REMARK   11  A    between atoms: C24_34  and  C25_36 
REMARK   12  A    between atoms: C25_36  and  C26_37 
REMARK   13  A    between atoms: C25_36  and  C28_39 
REMARK   14  A    between atoms: C33_44  and  O8_45 
REMARK   15  A    between atoms: O8_45  and  C34_46 
ROOT
HETATM    1  C16 UNL     1      49.891   6.875   2.390  1.00  0.00    -0.010 C 
HETATM    2  C17 UNL     1      50.917   6.489   1.318  1.00  0.00     0.018 C 
HETATM    3  C18 UNL     1      50.734   7.919   3.231  1.00  0.00     0.135 C 
HETATM    4  C19 UNL     1      51.925   7.348   3.858  1.00  0.00     0.068 C 
HETATM    5  C21 UNL     1      51.936   5.952   4.257  1.00  0.00     0.133 C 
HETATM    6  C22 UNL     1      50.919   5.036   3.527  1.00  0.00     0.048 C 
HETATM    7  C30 UNL     1      49.634   5.761   3.319  1.00  0.00    -0.030 C 
HETATM    8  C31 UNL     1      48.574   4.811   2.787  1.00  0.00     0.016 C 
HETATM    9  C32 UNL     1      49.066   6.182   4.663  1.00  0.00     0.016 C 
ENDROOT
BRANCH   1  10
HETATM   10  C15 UNL     1      48.839   7.726   1.814  1.00  0.00     0.013 C 
BRANCH  10  11
HETATM   11  C14 UNL     1      48.377   7.511   0.406  1.00  0.00     0.011 C 
BRANCH  11  12
HETATM   12  C13 UNL     1      47.915   8.771  -0.268  1.00  0.00     0.057 C 
HETATM   13  C12 UNL     1      47.725   9.849   0.751  1.00  0.00     0.171 C 
HETATM   14  C10 UNL     1      47.790  11.192   0.112  1.00  0.00     0.160 C 
HETATM   15  O2  UNL     1      46.563  10.230   1.291  1.00  0.00    -0.379 OA
HETATM   16  C9  UNL     1      46.877  11.298  -1.045  1.00  0.00     0.091 C 
HETATM   17  F1  UNL     1      49.046  11.715  -0.075  1.00  0.00    -0.237 F 
HETATM   18  C11 UNL     1      47.193  11.494   1.485  1.00  0.00     0.215 C 
HETATM   19  C2  UNL     1      45.430  11.324  -0.789  1.00  0.00    -0.079 C 
HETATM   20  C8  UNL     1      47.175  10.274  -2.060  1.00  0.00     0.176 C 
HETATM   21  C1  UNL     1      44.947  12.509  -0.426  1.00  0.00     0.015 C 
HETATM   22  C3  UNL     1      44.355  10.320  -0.857  1.00  0.00     0.034 C 
HETATM   23  C4  UNL     1      44.670   8.909  -1.055  1.00  0.00     0.019 C 
HETATM   24  C5  UNL     1      45.823   8.416  -1.762  1.00  0.00     0.080 C 
HETATM   25  C6  UNL     1      45.688   8.891  -3.191  1.00  0.00     0.045 C 
HETATM   26  C33 UNL     1      47.214   8.786  -1.528  1.00  0.00     0.113 C 
HETATM   27  C7  UNL     1      45.299   8.391  -4.279  1.00  0.00     0.046 C 
HETATM   28  O1  UNL     1      46.179  10.221  -3.072  1.00  0.00    -0.347 OA
BRANCH  26  29
HETATM   29  O8  UNL     1      48.037   8.281  -2.557  1.00  0.00    -0.306 OA
BRANCH  29  30
HETATM   30  C34 UNL     1      49.200   8.561  -3.077  1.00  0.00     0.255 C 
HETATM   31  C35 UNL     1      50.496   8.769  -2.374  1.00  0.00     0.126 C 
HETATM   32  O9  UNL     1      49.158   8.658  -4.311  1.00  0.00    -0.266 OA
ENDBRANCH  29  30
ENDBRANCH  26  29
ENDBRANCH  11  12
ENDBRANCH  10  11
ENDBRANCH   1  10
BRANCH   3  33
HETATM   33  O3  UNL     1      49.860   8.615   4.056  1.00  0.00    -0.394 OA
ATOM     34  H3  UNL     1      49.046   8.744   3.583  1.00  0.00     0.210 HD
ENDBRANCH   3  33
BRANCH   4  35
HETATM   35  C20 UNL     1      52.432   8.359   4.885  1.00  0.00     0.173 C 
BRANCH  35  36
HETATM   36  O4  UNL     1      52.436   9.666   4.511  1.00  0.00    -0.400 OA
ATOM     37  H4  UNL     1      51.924  10.266   5.040  1.00  0.00     0.209 HD
ENDBRANCH  35  36
ENDBRANCH   4  35
BRANCH   6  38
HETATM   38  C23 UNL     1      50.968   3.772   4.284  1.00  0.00     0.186 C 
BRANCH  38  39
HETATM   39  O6  UNL     1      52.128   3.013   4.341  1.00  0.00    -0.321 OA
BRANCH  39  40
HETATM   40  C24 UNL     1      52.581   2.422   5.541  1.00  0.00     0.263 C 
HETATM   41  O7  UNL     1      53.420   3.025   6.202  1.00  0.00    -0.265 OA
BRANCH  40  42
HETATM   42  C25 UNL     1      52.032   1.102   5.970  1.00  0.00     0.085 C 
BRANCH  42  43
HETATM   43  C26 UNL     1      53.183   0.370   6.646  1.00  0.00     0.010 C 
HETATM   44  C27 UNL     1      53.929  -0.503   5.708  1.00  0.00     0.006 C 
ENDBRANCH  42  43
BRANCH  42  45
HETATM   45  C28 UNL     1      50.987   1.381   7.059  1.00  0.00     0.010 C 
HETATM   46  C29 UNL     1      49.573   1.155   6.549  1.00  0.00     0.006 C 
ENDBRANCH  42  45
ENDBRANCH  40  42
ENDBRANCH  39  40
ENDBRANCH  38  39
ENDBRANCH   6  38
BRANCH   5  47
HETATM   47  O5  UNL     1      51.863   5.634   5.603  1.00  0.00    -0.395 OA
ATOM     48  H5  UNL     1      51.490   4.799   5.862  1.00  0.00     0.210 HD
ENDBRANCH   5  47
TORSDOF 15
ENDMDL
