MODEL 1
REMARK VINA RESULT: -7.226224291      0.000      0.000
REMARK  15 active torsions:
REMARK  status: ('A' for Active; 'I' for Inactive)
REMARK    1  A    between atoms: C2_2  and  C3_3 
REMARK    2  A    between atoms: C3_3  and  C4_4 
REMARK    3  A    between atoms: C4_4  and  O2_6 
REMARK    4  A    between atoms: O2_6  and  C5_7 
REMARK    5  A    between atoms: C6_8  and  O3_9 
REMARK    6  A    between atoms: O3_9  and  C7_10 
REMARK    7  A    between atoms: C13_17  and  C14_18 
REMARK    8  A    between atoms: C14_18  and  N1_19 
REMARK    9  A    between atoms: N1_19  and  C15_21 
REMARK   10  A    between atoms: C15_21  and  N2_23 
REMARK   11  A    between atoms: N2_23  and  C16_25 
REMARK   12  A    between atoms: C23_32  and  O5_33 
REMARK   13  A    between atoms: O5_33  and  C24_34 
REMARK   14  A    between atoms: C29_43  and  N4_44 
REMARK   15  A    between atoms: N4_44  and  N5_46 
ROOT
HETATM    1  C7  UNL     1      50.218   5.857   4.070  1.00  0.00     0.270 C 
HETATM    2  O4  UNL     1      51.596   5.863   4.310  1.00  0.00    -0.355 OA
HETATM    3  C8  UNL     1      52.152   6.899   3.561  1.00  0.00     0.125 C 
HETATM    4  C9  UNL     1      51.956   8.179   4.303  1.00  0.00     0.040 C 
HETATM    5  C10 UNL     1      51.377   6.797   2.274  1.00  0.00     0.029 C 
HETATM    6  C11 UNL     1      51.378   7.975   1.396  1.00  0.00     0.035 C 
HETATM    7  C12 UNL     1      50.082   8.063   0.659  1.00  0.00    -0.015 C 
HETATM    8  C13 UNL     1      49.065   7.233   0.771  1.00  0.00    -0.017 C 
HETATM    9  C23 UNL     1      49.174   6.049   1.749  1.00  0.00     0.176 C 
HETATM   10  C25 UNL     1      49.965   6.664   2.859  1.00  0.00     0.082 C 
ENDROOT
BRANCH   1  11
HETATM   11  O3  UNL     1      49.668   4.611   4.084  1.00  0.00    -0.328 OA
BRANCH  11  12
HETATM   12  C6  UNL     1      50.503   3.685   4.647  1.00  0.00     0.295 C 
HETATM   13  C5  UNL     1      50.149   2.255   4.424  1.00  0.00     0.214 C 
HETATM   14  C29 UNL     1      50.984   1.269   5.210  1.00  0.00     0.171 C 
HETATM   15  C28 UNL     1      51.166   1.711   6.639  1.00  0.00     0.225 C 
HETATM   16  C26 UNL     1      51.553   3.177   6.631  1.00  0.00     0.157 C 
HETATM   17  F1  UNL     1      49.958   1.539   7.299  1.00  0.00    -0.244 F 
HETATM   18  O7  UNL     1      50.581   3.950   6.008  1.00  0.00    -0.351 OA
HETATM   19  C27 UNL     1      51.675   3.626   8.063  1.00  0.00     0.042 C 
BRANCH  13  20
HETATM   20  O2  UNL     1      48.788   1.928   4.550  1.00  0.00    -0.309 OA
BRANCH  20  21
HETATM   21  C4  UNL     1      48.009   1.551   3.469  1.00  0.00     0.259 C 
HETATM   22  O1  UNL     1      48.144   0.377   3.033  1.00  0.00    -0.265 OA
BRANCH  21  23
HETATM   23  C3  UNL     1      47.032   2.432   2.796  1.00  0.00     0.111 C 
BRANCH  23  24
HETATM   24  C2  UNL     1      45.632   1.846   2.785  1.00  0.00     0.005 C 
HETATM   25  C1  UNL     1      45.291   1.597   1.319  1.00  0.00     0.005 C 
ENDBRANCH  23  24
ENDBRANCH  21  23
ENDBRANCH  20  21
ENDBRANCH  13  20
BRANCH  14  26
HETATM   26  N4  UNL     1      50.376  -0.056   5.167  1.00  0.00    -0.312 N 
ATOM     27  H4  UNL     1      49.760  -0.384   5.911  1.00  0.00     0.182 HD
BRANCH  26  28
HETATM   28  N5  UNL     1      50.645  -0.771   4.177  1.00  0.00    -0.253 N 
HETATM   29  N6  UNL     1      50.467  -1.729   3.406  1.00  0.00    -0.331 N 
ATOM     30  H62 UNL     1      49.643  -2.155   3.831  1.00  0.00     0.178 HD
ATOM     31  H61 UNL     1      50.686  -2.312   2.598  1.00  0.00     0.178 HD
ATOM     32  H5  UNL     1      51.467  -0.313   3.784  1.00  0.00     0.207 HD
ENDBRANCH  26  28
ENDBRANCH  14  26
ENDBRANCH  11  12
ENDBRANCH   1  11
BRANCH   9  33
HETATM   33  O5  UNL     1      49.992   5.123   1.056  1.00  0.00    -0.296 OA
BRANCH  33  34
HETATM   34  C24 UNL     1      49.527   3.911   0.606  1.00  0.00     0.373 C 
HETATM   35  N3  UNL     1      48.394   3.826  -0.280  1.00  0.00    -0.032 NA
HETATM   36  O6  UNL     1      50.142   2.889   1.011  1.00  0.00    -0.242 OA
ENDBRANCH  33  34
ENDBRANCH   9  33
BRANCH   8  37
HETATM   37  C14 UNL     1      47.831   7.365   0.036  1.00  0.00     0.100 C 
BRANCH  37  38
HETATM   38  N1  UNL     1      46.840   8.228   0.582  1.00  0.00    -0.343 N 
ATOM     39  H1  UNL     1      45.994   7.825   0.985  1.00  0.00     0.167 HD
BRANCH  38  40
HETATM   40  C15 UNL     1      47.008   9.666   0.578  1.00  0.00     0.176 C 
HETATM   41  S1  UNL     1      47.400  10.363  -0.812  1.00  0.00    -0.041 SA
BRANCH  40  42
HETATM   42  N2  UNL     1      46.794  10.389   1.756  1.00  0.00    -0.333 N 
ATOM     43  H2  UNL     1      46.935   9.875   2.625  1.00  0.00     0.168 HD
BRANCH  42  44
HETATM   44  C16 UNL     1      46.410  11.735   1.894  1.00  0.00     0.034 A 
HETATM   45  C17 UNL     1      45.190  12.109   1.318  1.00  0.00     0.029 A 
HETATM   46  C18 UNL     1      44.740  13.404   1.422  1.00  0.00     0.003 A 
HETATM   47  C19 UNL     1      45.456  14.371   2.084  1.00  0.00     0.007 A 
HETATM   48  C20 UNL     1      46.656  14.026   2.660  1.00  0.00    -0.060 A 
HETATM   49  C21 UNL     1      47.427  15.064   3.376  1.00  0.00     0.048 C 
HETATM   50  C22 UNL     1      47.087  12.714   2.542  1.00  0.00     0.036 A 
ENDBRANCH  42  44
ENDBRANCH  40  42
ENDBRANCH  38  40
ENDBRANCH  37  38
ENDBRANCH   8  37
TORSDOF 15
ENDMDL
MODEL 2
REMARK VINA RESULT: -7.125285044      2.320      4.347
REMARK  15 active torsions:
REMARK  status: ('A' for Active; 'I' for Inactive)
REMARK    1  A    between atoms: C2_2  and  C3_3 
REMARK    2  A    between atoms: C3_3  and  C4_4 
REMARK    3  A    between atoms: C4_4  and  O2_6 
REMARK    4  A    between atoms: O2_6  and  C5_7 
REMARK    5  A    between atoms: C6_8  and  O3_9 
REMARK    6  A    between atoms: O3_9  and  C7_10 
REMARK    7  A    between atoms: C13_17  and  C14_18 
REMARK    8  A    between atoms: C14_18  and  N1_19 
REMARK    9  A    between atoms: N1_19  and  C15_21 
REMARK   10  A    between atoms: C15_21  and  N2_23 
REMARK   11  A    between atoms: N2_23  and  C16_25 
REMARK   12  A    between atoms: C23_32  and  O5_33 
REMARK   13  A    between atoms: O5_33  and  C24_34 
REMARK   14  A    between atoms: C29_43  and  N4_44 
REMARK   15  A    between atoms: N4_44  and  N5_46 
ROOT
HETATM    1  C7  UNL     1      50.721   2.888   1.634  1.00  0.00     0.270 C 
HETATM    2  O4  UNL     1      49.822   1.821   1.538  1.00  0.00    -0.355 OA
HETATM    3  C8  UNL     1      49.015   2.044   0.424  1.00  0.00     0.125 C 
HETATM    4  C9  UNL     1      49.755   1.607  -0.794  1.00  0.00     0.040 C 
HETATM    5  C10 UNL     1      48.775   3.528   0.513  1.00  0.00     0.029 C 
HETATM    6  C11 UNL     1      48.322   4.207  -0.708  1.00  0.00     0.035 C 
HETATM    7  C12 UNL     1      48.849   5.605  -0.741  1.00  0.00    -0.015 C 
HETATM    8  C13 UNL     1      49.621   6.166   0.167  1.00  0.00    -0.017 C 
HETATM    9  C23 UNL     1      50.054   5.339   1.391  1.00  0.00     0.176 C 
HETATM   10  C25 UNL     1      50.215   3.984   0.782  1.00  0.00     0.082 C 
ENDROOT
BRANCH   1  11
HETATM   11  O3  UNL     1      51.036   3.223   2.915  1.00  0.00    -0.328 OA
BRANCH  11  12
HETATM   12  C6  UNL     1      50.923   2.160   3.769  1.00  0.00     0.295 C 
HETATM   13  C5  UNL     1      51.308   2.408   5.187  1.00  0.00     0.214 C 
HETATM   14  C29 UNL     1      51.347   1.170   6.055  1.00  0.00     0.171 C 
HETATM   15  C28 UNL     1      52.028   0.023   5.355  1.00  0.00     0.225 C 
HETATM   16  C26 UNL     1      51.466  -0.070   3.949  1.00  0.00     0.157 C 
HETATM   17  F1  UNL     1      53.387   0.291   5.310  1.00  0.00    -0.244 F 
HETATM   18  O7  UNL     1      51.672   1.112   3.248  1.00  0.00    -0.351 OA
HETATM   19  C27 UNL     1      52.193  -1.180   3.238  1.00  0.00     0.042 C 
BRANCH  13  20
HETATM   20  O2  UNL     1      52.477   3.163   5.387  1.00  0.00    -0.309 OA
BRANCH  20  21
HETATM   21  C4  UNL     1      52.466   4.545   5.469  1.00  0.00     0.259 C 
HETATM   22  O1  UNL     1      51.906   5.066   6.470  1.00  0.00    -0.265 OA
BRANCH  21  23
HETATM   23  C3  UNL     1      53.066   5.446   4.464  1.00  0.00     0.111 C 
BRANCH  23  24
HETATM   24  C2  UNL     1      53.967   4.712   3.488  1.00  0.00     0.005 C 
HETATM   25  C1  UNL     1      53.649   5.282   2.109  1.00  0.00     0.005 C 
ENDBRANCH  23  24
ENDBRANCH  21  23
ENDBRANCH  20  21
ENDBRANCH  13  20
BRANCH  14  26
HETATM   26  N4  UNL     1      52.018   1.458   7.317  1.00  0.00    -0.312 N 
ATOM     27  H4  UNL     1      52.865   0.963   7.596  1.00  0.00     0.182 HD
BRANCH  26  28
HETATM   28  N5  UNL     1      51.508   2.341   8.041  1.00  0.00    -0.253 N 
HETATM   29  N6  UNL     1      51.530   3.222   8.917  1.00  0.00    -0.331 N 
ATOM     30  H62 UNL     1      52.516   3.197   9.177  1.00  0.00     0.178 HD
ATOM     31  H61 UNL     1      51.114   3.942   9.508  1.00  0.00     0.178 HD
ATOM     32  H5  UNL     1      50.530   2.334   7.753  1.00  0.00     0.207 HD
ENDBRANCH  26  28
ENDBRANCH  14  26
ENDBRANCH  11  12
ENDBRANCH   1  11
BRANCH   9  33
HETATM   33  O5  UNL     1      48.901   5.342   2.215  1.00  0.00    -0.296 OA
BRANCH  33  34
HETATM   34  C24 UNL     1      48.825   6.056   3.386  1.00  0.00     0.373 C 
HETATM   35  N3  UNL     1      48.225   7.365   3.427  1.00  0.00    -0.032 NA
HETATM   36  O6  UNL     1      49.308   5.507   4.411  1.00  0.00    -0.242 OA
ENDBRANCH  33  34
ENDBRANCH   9  33
BRANCH   8  37
HETATM   37  C14 UNL     1      50.107   7.522   0.087  1.00  0.00     0.100 C 
BRANCH  37  38
HETATM   38  N1  UNL     1      49.444   8.496   0.885  1.00  0.00    -0.343 N 
ATOM     39  H1  UNL     1      49.809   8.716   1.811  1.00  0.00     0.167 HD
BRANCH  38  40
HETATM   40  C15 UNL     1      48.261   9.183   0.408  1.00  0.00     0.176 C 
HETATM   41  S1  UNL     1      48.129   9.426  -1.171  1.00  0.00    -0.041 SA
BRANCH  40  42
HETATM   42  N2  UNL     1      47.275   9.573   1.321  1.00  0.00    -0.333 N 
ATOM     43  H2  UNL     1      46.960   8.854   1.971  1.00  0.00     0.168 HD
BRANCH  42  44
HETATM   44  C16 UNL     1      46.664  10.832   1.457  1.00  0.00     0.034 A 
HETATM   45  C17 UNL     1      45.424  11.006   0.830  1.00  0.00     0.029 A 
HETATM   46  C18 UNL     1      44.758  12.205   0.928  1.00  0.00     0.003 A 
HETATM   47  C19 UNL     1      45.271  13.267   1.633  1.00  0.00     0.007 A 
HETATM   48  C20 UNL     1      46.487  13.118   2.258  1.00  0.00    -0.060 A 
HETATM   49  C21 UNL     1      47.039  14.257   3.019  1.00  0.00     0.048 C 
HETATM   50  C22 UNL     1      47.138  11.899   2.146  1.00  0.00     0.036 A 
ENDBRANCH  42  44
ENDBRANCH  40  42
ENDBRANCH  38  40
ENDBRANCH  37  38
ENDBRANCH   8  37
TORSDOF 15
ENDMDL
MODEL 3
REMARK VINA RESULT: -7.117697560      3.714      5.175
REMARK  15 active torsions:
REMARK  status: ('A' for Active; 'I' for Inactive)
REMARK    1  A    between atoms: C2_2  and  C3_3 
REMARK    2  A    between atoms: C3_3  and  C4_4 
REMARK    3  A    between atoms: C4_4  and  O2_6 
REMARK    4  A    between atoms: O2_6  and  C5_7 
REMARK    5  A    between atoms: C6_8  and  O3_9 
REMARK    6  A    between atoms: O3_9  and  C7_10 
REMARK    7  A    between atoms: C13_17  and  C14_18 
REMARK    8  A    between atoms: C14_18  and  N1_19 
REMARK    9  A    between atoms: N1_19  and  C15_21 
REMARK   10  A    between atoms: C15_21  and  N2_23 
REMARK   11  A    between atoms: N2_23  and  C16_25 
REMARK   12  A    between atoms: C23_32  and  O5_33 
REMARK   13  A    between atoms: O5_33  and  C24_34 
REMARK   14  A    between atoms: C29_43  and  N4_44 
REMARK   15  A    between atoms: N4_44  and  N5_46 
ROOT
HETATM    1  C7  UNL     1      51.547   8.746  -0.083  1.00  0.00     0.270 C 
HETATM    2  O4  UNL     1      52.461   8.353  -1.066  1.00  0.00    -0.355 OA
HETATM    3  C8  UNL     1      52.521   9.367  -2.020  1.00  0.00     0.125 C 
HETATM    4  C9  UNL     1      53.430  10.437  -1.518  1.00  0.00     0.040 C 
HETATM    5  C10 UNL     1      51.075   9.773  -2.126  1.00  0.00     0.029 C 
HETATM    6  C11 UNL     1      50.790  11.090  -2.712  1.00  0.00     0.035 C 
HETATM    7  C12 UNL     1      49.563  11.672  -2.089  1.00  0.00    -0.015 C 
HETATM    8  C13 UNL     1      48.835  11.119  -1.142  1.00  0.00    -0.017 C 
HETATM    9  C23 UNL     1      49.253   9.745  -0.586  1.00  0.00     0.176 C 
HETATM   10  C25 UNL     1      50.744   9.858  -0.630  1.00  0.00     0.082 C 
ENDROOT
BRANCH   1  11
HETATM   11  O3  UNL     1      50.846   7.710   0.456  1.00  0.00    -0.328 OA
BRANCH  11  12
HETATM   12  C6  UNL     1      51.143   7.520   1.779  1.00  0.00     0.295 C 
HETATM   13  C5  UNL     1      52.270   6.593   2.076  1.00  0.00     0.214 C 
HETATM   14  C29 UNL     1      52.447   6.266   3.541  1.00  0.00     0.171 C 
HETATM   15  C28 UNL     1      51.129   5.970   4.207  1.00  0.00     0.225 C 
HETATM   16  C26 UNL     1      50.143   7.047   3.798  1.00  0.00     0.157 C 
HETATM   17  F1  UNL     1      50.692   4.730   3.766  1.00  0.00    -0.244 F 
HETATM   18  O7  UNL     1      49.988   7.086   2.417  1.00  0.00    -0.351 OA
HETATM   19  C27 UNL     1      48.814   6.712   4.419  1.00  0.00     0.042 C 
BRANCH  13  20
HETATM   20  O2  UNL     1      52.313   5.409   1.318  1.00  0.00    -0.309 OA
BRANCH  20  21
HETATM   21  C4  UNL     1      53.237   5.206   0.307  1.00  0.00     0.259 C 
HETATM   22  O1  UNL     1      54.450   5.419   0.572  1.00  0.00    -0.265 OA
BRANCH  21  23
HETATM   23  C3  UNL     1      52.895   4.755  -1.058  1.00  0.00     0.111 C 
BRANCH  23  24
HETATM   24  C2  UNL     1      51.401   4.789  -1.325  1.00  0.00     0.005 C 
HETATM   25  C1  UNL     1      51.225   5.558  -2.631  1.00  0.00     0.005 C 
ENDBRANCH  23  24
ENDBRANCH  21  23
ENDBRANCH  20  21
ENDBRANCH  13  20
BRANCH  14  26
HETATM   26  N4  UNL     1      53.356   5.136   3.701  1.00  0.00    -0.312 N 
ATOM     27  H4  UNL     1      53.729   4.633   2.896  1.00  0.00     0.182 HD
BRANCH  26  28
HETATM   28  N5  UNL     1      53.655   4.811   4.871  1.00  0.00    -0.253 N 
HETATM   29  N6  UNL     1      54.088   4.039   5.744  1.00  0.00    -0.331 N 
ATOM     30  H62 UNL     1      54.322   3.228   5.170  1.00  0.00     0.178 HD
ATOM     31  H61 UNL     1      54.332   3.774   6.698  1.00  0.00     0.178 HD
ATOM     32  H5  UNL     1      53.407   5.642   5.408  1.00  0.00     0.207 HD
ENDBRANCH  26  28
ENDBRANCH  14  26
ENDBRANCH  11  12
ENDBRANCH   1  11
BRANCH   9  33
HETATM   33  O5  UNL     1      48.828   8.840  -1.590  1.00  0.00    -0.296 OA
BRANCH  33  34
HETATM   34  C24 UNL     1      47.795   7.954  -1.404  1.00  0.00     0.373 C 
HETATM   35  N3  UNL     1      46.421   8.382  -1.470  1.00  0.00    -0.032 NA
HETATM   36  O6  UNL     1      48.115   6.759  -1.172  1.00  0.00    -0.242 OA
ENDBRANCH  33  34
ENDBRANCH   9  33
BRANCH   8  37
HETATM   37  C14 UNL     1      47.657  11.725  -0.570  1.00  0.00     0.100 C 
BRANCH  37  38
HETATM   38  N1  UNL     1      47.517  11.662   0.845  1.00  0.00    -0.343 N 
ATOM     39  H1  UNL     1      48.327  11.425   1.417  1.00  0.00     0.167 HD
BRANCH  38  40
HETATM   40  C15 UNL     1      46.247  11.927   1.489  1.00  0.00     0.176 C 
HETATM   41  S1  UNL     1      44.934  11.283   0.834  1.00  0.00    -0.041 SA
BRANCH  40  42
HETATM   42  N2  UNL     1      46.214  12.695   2.658  1.00  0.00    -0.333 N 
ATOM     43  H2  UNL     1      45.985  12.191   3.515  1.00  0.00     0.168 HD
BRANCH  42  44
HETATM   44  C16 UNL     1      46.456  14.072   2.802  1.00  0.00     0.034 A 
HETATM   45  C17 UNL     1      45.504  14.944   2.260  1.00  0.00     0.029 A 
HETATM   46  C18 UNL     1      45.663  16.305   2.372  1.00  0.00     0.003 A 
HETATM   47  C19 UNL     1      46.747  16.860   3.010  1.00  0.00     0.007 A 
HETATM   48  C20 UNL     1      47.694  16.023   3.551  1.00  0.00    -0.060 A 
HETATM   49  C21 UNL     1      48.858  16.617   4.240  1.00  0.00     0.048 C 
HETATM   50  C22 UNL     1      47.509  14.655   3.426  1.00  0.00     0.036 A 
ENDBRANCH  42  44
ENDBRANCH  40  42
ENDBRANCH  38  40
ENDBRANCH  37  38
ENDBRANCH   8  37
TORSDOF 15
ENDMDL
MODEL 4
REMARK VINA RESULT: -7.106881906      7.892     11.064
REMARK  15 active torsions:
REMARK  status: ('A' for Active; 'I' for Inactive)
REMARK    1  A    between atoms: C2_2  and  C3_3 
REMARK    2  A    between atoms: C3_3  and  C4_4 
REMARK    3  A    between atoms: C4_4  and  O2_6 
REMARK    4  A    between atoms: O2_6  and  C5_7 
REMARK    5  A    between atoms: C6_8  and  O3_9 
REMARK    6  A    between atoms: O3_9  and  C7_10 
REMARK    7  A    between atoms: C13_17  and  C14_18 
REMARK    8  A    between atoms: C14_18  and  N1_19 
REMARK    9  A    between atoms: N1_19  and  C15_21 
REMARK   10  A    between atoms: C15_21  and  N2_23 
REMARK   11  A    between atoms: N2_23  and  C16_25 
REMARK   12  A    between atoms: C23_32  and  O5_33 
REMARK   13  A    between atoms: O5_33  and  C24_34 
REMARK   14  A    between atoms: C29_43  and  N4_44 
REMARK   15  A    between atoms: N4_44  and  N5_46 
ROOT
HETATM    1  C7  UNL     1      46.004  13.024  -3.350  1.00  0.00     0.270 C 
HETATM    2  O4  UNL     1      46.409  12.740  -4.659  1.00  0.00    -0.355 OA
HETATM    3  C8  UNL     1      46.850  13.931  -5.234  1.00  0.00     0.125 C 
HETATM    4  C9  UNL     1      48.252  14.182  -4.791  1.00  0.00     0.040 C 
HETATM    5  C10 UNL     1      45.841  14.917  -4.708  1.00  0.00     0.029 C 
HETATM    6  C11 UNL     1      46.210  16.338  -4.748  1.00  0.00     0.035 C 
HETATM    7  C12 UNL     1      45.588  17.060  -3.597  1.00  0.00    -0.015 C 
HETATM    8  C13 UNL     1      44.831  16.525  -2.661  1.00  0.00    -0.017 C 
HETATM    9  C23 UNL     1      44.540  15.014  -2.712  1.00  0.00     0.176 C 
HETATM   10  C25 UNL     1      45.837  14.487  -3.235  1.00  0.00     0.082 C 
ENDROOT
BRANCH   1  11
HETATM   11  O3  UNL     1      44.954  12.267  -2.928  1.00  0.00    -0.328 OA
BRANCH  11  12
HETATM   12  C6  UNL     1      45.323  10.978  -2.654  1.00  0.00     0.295 C 
HETATM   13  C5  UNL     1      44.341   9.919  -3.015  1.00  0.00     0.214 C 
HETATM   14  C29 UNL     1      44.704   8.532  -2.531  1.00  0.00     0.171 C 
HETATM   15  C28 UNL     1      45.192   8.552  -1.107  1.00  0.00     0.225 C 
HETATM   16  C26 UNL     1      46.201   9.676  -0.971  1.00  0.00     0.157 C 
HETATM   17  F1  UNL     1      44.103   8.785  -0.280  1.00  0.00    -0.244 F 
HETATM   18  O7  UNL     1      45.635  10.901  -1.303  1.00  0.00    -0.351 OA
HETATM   19  C27 UNL     1      46.641   9.727   0.467  1.00  0.00     0.042 C 
BRANCH  13  20
HETATM   20  O2  UNL     1      42.997  10.191  -2.705  1.00  0.00    -0.309 OA
BRANCH  20  21
HETATM   21  C4  UNL     1      42.051  10.471  -3.676  1.00  0.00     0.259 C 
HETATM   22  O1  UNL     1      41.534   9.497  -4.287  1.00  0.00    -0.265 OA
BRANCH  21  23
HETATM   23  C3  UNL     1      41.607  11.831  -4.043  1.00  0.00     0.111 C 
BRANCH  23  24
HETATM   24  C2  UNL     1      41.661  12.078  -5.540  1.00  0.00     0.005 C 
HETATM   25  C1  UNL     1      43.139  12.223  -5.889  1.00  0.00     0.005 C 
ENDBRANCH  23  24
ENDBRANCH  21  23
ENDBRANCH  20  21
ENDBRANCH  13  20
BRANCH  14  26
HETATM   26  N4  UNL     1      43.559   7.637  -2.657  1.00  0.00    -0.312 N 
ATOM     27  H4  UNL     1      42.931   7.460  -1.873  1.00  0.00     0.182 HD
BRANCH  26  28
HETATM   28  N5  UNL     1      43.383   7.096  -3.771  1.00  0.00    -0.253 N 
HETATM   29  N6  UNL     1      43.086   7.089  -4.978  1.00  0.00    -0.331 N 
ATOM     30  H62 UNL     1      42.870   8.076  -5.119  1.00  0.00     0.178 HD
ATOM     31  H61 UNL     1      42.943   6.648  -5.887  1.00  0.00     0.178 HD
ATOM     32  H5  UNL     1      43.609   6.119  -3.587  1.00  0.00     0.207 HD
ENDBRANCH  26  28
ENDBRANCH  14  26
ENDBRANCH  11  12
ENDBRANCH   1  11
BRANCH   9  33
HETATM   33  O5  UNL     1      43.553  14.902  -3.723  1.00  0.00    -0.296 OA
BRANCH  33  34
HETATM   34  C24 UNL     1      42.279  15.396  -3.577  1.00  0.00     0.373 C 
HETATM   35  N3  UNL     1      41.644  16.149  -4.629  1.00  0.00    -0.032 NA
HETATM   36  O6  UNL     1      41.706  15.156  -2.483  1.00  0.00    -0.242 OA
ENDBRANCH  33  34
ENDBRANCH   9  33
BRANCH   8  37
HETATM   37  C14 UNL     1      44.256  17.267  -1.566  1.00  0.00     0.100 C 
BRANCH  37  38
HETATM   38  N1  UNL     1      43.602  16.518  -0.548  1.00  0.00    -0.343 N 
ATOM     39  H1  UNL     1      43.104  15.664  -0.798  1.00  0.00     0.167 HD
BRANCH  38  40
HETATM   40  C15 UNL     1      43.629  16.943   0.836  1.00  0.00     0.176 C 
HETATM   41  S1  UNL     1      43.333  18.489   1.144  1.00  0.00    -0.041 SA
BRANCH  40  42
HETATM   42  N2  UNL     1      43.876  16.003   1.842  1.00  0.00    -0.333 N 
ATOM     43  H2  UNL     1      43.052  15.613   2.299  1.00  0.00     0.168 HD
BRANCH  42  44
HETATM   44  C16 UNL     1      45.116  15.526   2.302  1.00  0.00     0.034 A 
HETATM   45  C17 UNL     1      46.042  16.482   2.737  1.00  0.00     0.029 A 
HETATM   46  C18 UNL     1      47.271  16.094   3.214  1.00  0.00     0.003 A 
HETATM   47  C19 UNL     1      47.639  14.772   3.283  1.00  0.00     0.007 A 
HETATM   48  C20 UNL     1      46.745  13.815   2.863  1.00  0.00    -0.060 A 
HETATM   49  C21 UNL     1      47.137  12.392   2.940  1.00  0.00     0.048 C 
HETATM   50  C22 UNL     1      45.512  14.233   2.388  1.00  0.00     0.036 A 
ENDBRANCH  42  44
ENDBRANCH  40  42
ENDBRANCH  38  40
ENDBRANCH  37  38
ENDBRANCH   8  37
TORSDOF 15
ENDMDL
MODEL 5
REMARK VINA RESULT: -7.090760111      3.671      5.333
REMARK  15 active torsions:
REMARK  status: ('A' for Active; 'I' for Inactive)
REMARK    1  A    between atoms: C2_2  and  C3_3 
REMARK    2  A    between atoms: C3_3  and  C4_4 
REMARK    3  A    between atoms: C4_4  and  O2_6 
REMARK    4  A    between atoms: O2_6  and  C5_7 
REMARK    5  A    between atoms: C6_8  and  O3_9 
REMARK    6  A    between atoms: O3_9  and  C7_10 
REMARK    7  A    between atoms: C13_17  and  C14_18 
REMARK    8  A    between atoms: C14_18  and  N1_19 
REMARK    9  A    between atoms: N1_19  and  C15_21 
REMARK   10  A    between atoms: C15_21  and  N2_23 
REMARK   11  A    between atoms: N2_23  and  C16_25 
REMARK   12  A    between atoms: C23_32  and  O5_33 
REMARK   13  A    between atoms: O5_33  and  C24_34 
REMARK   14  A    between atoms: C29_43  and  N4_44 
REMARK   15  A    between atoms: N4_44  and  N5_46 
ROOT
HETATM    1  C7  UNL     1      51.918   3.202   1.378  1.00  0.00     0.270 C 
HETATM    2  O4  UNL     1      51.922   2.159   2.310  1.00  0.00    -0.355 OA
HETATM    3  C8  UNL     1      50.595   1.846   2.602  1.00  0.00     0.125 C 
HETATM    4  C9  UNL     1      50.068   0.961   1.523  1.00  0.00     0.040 C 
HETATM    5  C10 UNL     1      49.963   3.212   2.656  1.00  0.00     0.029 C 
HETATM    6  C11 UNL     1      48.502   3.279   2.521  1.00  0.00     0.035 C 
HETATM    7  C12 UNL     1      48.110   4.549   1.837  1.00  0.00    -0.015 C 
HETATM    8  C13 UNL     1      48.931   5.479   1.395  1.00  0.00    -0.017 C 
HETATM    9  C23 UNL     1      50.447   5.279   1.570  1.00  0.00     0.176 C 
HETATM   10  C25 UNL     1      50.568   3.802   1.375  1.00  0.00     0.082 C 
ENDROOT
BRANCH   1  11
HETATM   11  O3  UNL     1      52.957   4.070   1.526  1.00  0.00    -0.328 OA
BRANCH  11  12
HETATM   12  C6  UNL     1      54.154   3.505   1.178  1.00  0.00     0.295 C 
HETATM   13  C5  UNL     1      54.930   2.869   2.280  1.00  0.00     0.214 C 
HETATM   14  C29 UNL     1      56.322   2.422   1.894  1.00  0.00     0.171 C 
HETATM   15  C28 UNL     1      57.034   3.468   1.076  1.00  0.00     0.225 C 
HETATM   16  C26 UNL     1      56.080   3.951  -0.001  1.00  0.00     0.157 C 
HETATM   17  F1  UNL     1      57.374   4.515   1.918  1.00  0.00    -0.244 F 
HETATM   18  O7  UNL     1      54.922   4.481   0.555  1.00  0.00    -0.351 OA
HETATM   19  C27 UNL     1      56.777   5.037  -0.777  1.00  0.00     0.042 C 
BRANCH  13  20
HETATM   20  O2  UNL     1      54.980   3.581   3.491  1.00  0.00    -0.309 OA
BRANCH  20  21
HETATM   21  C4  UNL     1      54.127   3.314   4.548  1.00  0.00     0.259 C 
HETATM   22  O1  UNL     1      53.996   2.112   4.904  1.00  0.00    -0.265 OA
BRANCH  21  23
HETATM   23  C3  UNL     1      53.363   4.341   5.286  1.00  0.00     0.111 C 
BRANCH  23  24
HETATM   24  C2  UNL     1      51.977   3.864   5.680  1.00  0.00     0.005 C 
HETATM   25  C1  UNL     1      51.971   3.801   7.204  1.00  0.00     0.005 C 
ENDBRANCH  23  24
ENDBRANCH  21  23
ENDBRANCH  20  21
ENDBRANCH  13  20
BRANCH  14  26
HETATM   26  N4  UNL     1      57.099   2.102   3.086  1.00  0.00    -0.312 N 
ATOM     27  H4  UNL     1      57.925   2.643   3.345  1.00  0.00     0.182 HD
BRANCH  26  28
HETATM   28  N5  UNL     1      56.707   1.136   3.775  1.00  0.00    -0.253 N 
HETATM   29  N6  UNL     1      56.703   0.405   4.781  1.00  0.00    -0.331 N 
ATOM     30  H62 UNL     1      57.422   0.862   5.341  1.00  0.00     0.178 HD
ATOM     31  H61 UNL     1      56.383  -0.383   5.343  1.00  0.00     0.178 HD
ATOM     32  H5  UNL     1      55.994   0.709   3.183  1.00  0.00     0.207 HD
ENDBRANCH  26  28
ENDBRANCH  14  26
ENDBRANCH  11  12
ENDBRANCH   1  11
BRANCH   9  33
HETATM   33  O5  UNL     1      50.666   5.586   2.936  1.00  0.00    -0.296 OA
BRANCH  33  34
HETATM   34  C24 UNL     1      51.062   6.828   3.366  1.00  0.00     0.373 C 
HETATM   35  N3  UNL     1      50.107   7.794   3.846  1.00  0.00    -0.032 NA
HETATM   36  O6  UNL     1      52.296   7.073   3.314  1.00  0.00    -0.242 OA
ENDBRANCH  33  34
ENDBRANCH   9  33
BRANCH   8  37
HETATM   37  C14 UNL     1      48.501   6.689   0.737  1.00  0.00     0.100 C 
BRANCH  37  38
HETATM   38  N1  UNL     1      47.763   7.624   1.517  1.00  0.00    -0.343 N 
ATOM     39  H1  UNL     1      47.185   7.286   2.286  1.00  0.00     0.167 HD
BRANCH  38  40
HETATM   40  C15 UNL     1      47.818   9.044   1.241  1.00  0.00     0.176 C 
HETATM   41  S1  UNL     1      48.314   9.500  -0.214  1.00  0.00    -0.041 SA
BRANCH  40  42
HETATM   42  N2  UNL     1      47.412   9.953   2.224  1.00  0.00    -0.333 N 
ATOM     43  H2  UNL     1      47.648   9.705   3.185  1.00  0.00     0.168 HD
BRANCH  42  44
HETATM   44  C16 UNL     1      46.722  11.166   2.056  1.00  0.00     0.034 A 
HETATM   45  C17 UNL     1      45.543  11.127   1.302  1.00  0.00     0.029 A 
HETATM   46  C18 UNL     1      44.805  12.269   1.104  1.00  0.00     0.003 A 
HETATM   47  C19 UNL     1      45.185  13.481   1.629  1.00  0.00     0.007 A 
HETATM   48  C20 UNL     1      46.339  13.543   2.374  1.00  0.00    -0.060 A 
HETATM   49  C21 UNL     1      46.749  14.844   2.942  1.00  0.00     0.048 C 
HETATM   50  C22 UNL     1      47.065  12.377   2.560  1.00  0.00     0.036 A 
ENDBRANCH  42  44
ENDBRANCH  40  42
ENDBRANCH  38  40
ENDBRANCH  37  38
ENDBRANCH   8  37
TORSDOF 15
ENDMDL
