MODEL 1
REMARK VINA RESULT: -5.737062761      0.000      0.000
REMARK  13 active torsions:
REMARK  status: ('A' for Active; 'I' for Inactive)
REMARK    1  A    between atoms: C2_2  and  C3_3 
REMARK    2  A    between atoms: C3_3  and  C5_5 
REMARK    3  A    between atoms: C5_5  and  O1_6 
REMARK    4  A    between atoms: C6_9  and  C7_10 
REMARK    5  A    between atoms: C7_10  and  O3_11 
REMARK    6  A    between atoms: C14_21  and  C15_22 
REMARK    7  A    between atoms: C15_22  and  C16_23 
REMARK    8  A    between atoms: C15_22  and  O5_26 
REMARK    9  A    between atoms: C16_23  and  C17_24 
REMARK   10  A    between atoms: O5_26  and  C19_27 
REMARK   11  A    between atoms: C22_31  and  O7_32 
REMARK   12  A    between atoms: C23_34  and  N1_35 
REMARK   13  A    between atoms: C33_45  and  O8_46 
ROOT
HETATM    1  C5  UNL     1      51.731   3.837   5.804  1.00  0.00     0.220 C 
HETATM    2  O2  UNL     1      51.026   3.363   4.829  1.00  0.00    -0.340 OA
HETATM    3  C6  UNL     1      50.063   3.721   4.024  1.00  0.00     0.172 C 
HETATM    4  C13 UNL     1      48.833   2.796   3.994  1.00  0.00     0.043 C 
HETATM    5  C14 UNL     1      48.961   1.411   3.513  1.00  0.00     0.024 C 
HETATM    6  C28 UNL     1      49.080   0.365   4.663  1.00  0.00     0.010 C 
HETATM    7  C29 UNL     1      47.802  -0.152   5.208  1.00  0.00     0.015 C 
HETATM    8  C30 UNL     1      49.697   1.149   5.781  1.00  0.00    -0.022 C 
HETATM    9  C31 UNL     1      50.722   1.137   6.537  1.00  0.00    -0.001 C 
HETATM   10  C32 UNL     1      51.090   2.144   7.598  1.00  0.00     0.038 C 
HETATM   11  C33 UNL     1      51.526   3.338   7.249  1.00  0.00     0.108 C 
ENDROOT
BRANCH   5  12
HETATM   12  C15 UNL     1      47.808   1.025   2.590  1.00  0.00     0.129 C 
BRANCH  12  13
HETATM   13  C16 UNL     1      46.846   2.217   2.561  1.00  0.00     0.032 C 
BRANCH  13  14
HETATM   14  C17 UNL     1      45.395   1.884   2.606  1.00  0.00    -0.002 C 
HETATM   15  C18 UNL     1      45.218   0.407   2.987  1.00  0.00     0.005 C 
ENDBRANCH  13  14
ENDBRANCH  12  13
BRANCH  12  16
HETATM   16  O5  UNL     1      48.323   0.664   1.393  1.00  0.00    -0.355 OA
BRANCH  16  17
HETATM   17  C19 UNL     1      47.783   0.882   0.200  1.00  0.00     0.266 C 
HETATM   18  O6  UNL     1      46.971  -0.334  -0.049  1.00  0.00    -0.353 OA
HETATM   19  C20 UNL     1      46.161  -0.145  -1.128  1.00  0.00     0.151 C 
HETATM   20  C21 UNL     1      44.715   0.147  -0.709  1.00  0.00     0.042 C 
HETATM   21  C22 UNL     1      46.581   0.947  -2.081  1.00  0.00     0.169 C 
HETATM   22  C23 UNL     1      48.065   0.827  -2.275  1.00  0.00     0.117 C 
HETATM   23  C26 UNL     1      48.759   0.748  -0.931  1.00  0.00     0.062 C 
HETATM   24  C27 UNL     1      50.005   1.540  -0.861  1.00  0.00     0.017 C 
BRANCH  21  25
HETATM   25  O7  UNL     1      45.921   0.720  -3.296  1.00  0.00    -0.391 OA
ATOM     26  H7  UNL     1      46.577   0.455  -3.931  1.00  0.00     0.210 HD
ENDBRANCH  21  25
BRANCH  22  27
HETATM   27  N1  UNL     1      48.634   1.712  -3.217  1.00  0.00    -0.413 N 
HETATM   28  C24 UNL     1      48.054   2.981  -3.414  1.00  0.00     0.143 C 
HETATM   29  C25 UNL     1      49.058   1.062  -4.418  1.00  0.00     0.143 C 
ENDBRANCH  22  27
ENDBRANCH  16  17
ENDBRANCH  12  16
ENDBRANCH   5  12
BRANCH   3  30
HETATM   30  C7  UNL     1      50.461   4.126   2.644  1.00  0.00     0.164 C 
HETATM   31  C8  UNL     1      49.299   4.350   1.684  1.00  0.00     0.025 C 
HETATM   32  C9  UNL     1      49.815   5.023   0.630  1.00  0.00    -0.059 C 
HETATM   33  C10 UNL     1      49.117   5.486  -0.587  1.00  0.00     0.045 C 
HETATM   34  C11 UNL     1      51.281   5.302   0.888  1.00  0.00     0.183 C 
HETATM   35 CL1  UNL     1      51.815   6.819   0.201  1.00  0.00    -0.112 Cl
HETATM   36  C12 UNL     1      51.111   5.392   2.409  1.00  0.00     0.190 C 
HETATM   37  O4  UNL     1      51.474   6.312   3.007  1.00  0.00    -0.292 OA
BRANCH  30  38
HETATM   38  O3  UNL     1      51.158   3.093   1.978  1.00  0.00    -0.375 OA
ATOM     39  H3  UNL     1      51.550   3.400   1.169  1.00  0.00     0.211 HD
ENDBRANCH  30  38
ENDBRANCH   3  30
BRANCH   1  40
HETATM   40  C3  UNL     1      53.246   3.476   5.592  1.00  0.00     0.073 C 
HETATM   41  C4  UNL     1      53.967   4.670   5.017  1.00  0.00     0.020 C 
BRANCH  40  42
HETATM   42  C2  UNL     1      53.432   2.325   4.737  1.00  0.00    -0.027 C 
HETATM   43  C1  UNL     1      54.088   1.210   5.118  1.00  0.00     0.007 C 
ENDBRANCH  40  42
ENDBRANCH   1  40
BRANCH   1  44
HETATM   44  O1  UNL     1      51.782   5.244   5.897  1.00  0.00    -0.359 OA
ATOM     45  H1  UNL     1      50.869   5.461   6.049  1.00  0.00     0.213 HD
ENDBRANCH   1  44
BRANCH  11  46
HETATM   46  O8  UNL     1      51.839   4.269   8.223  1.00  0.00    -0.355 OA
HETATM   47  C34 UNL     1      51.741   3.946   9.597  1.00  0.00     0.209 C 
ENDBRANCH  11  46
TORSDOF 13
ENDMDL
MODEL 2
REMARK VINA RESULT: -5.616087257      3.007      6.128
REMARK  13 active torsions:
REMARK  status: ('A' for Active; 'I' for Inactive)
REMARK    1  A    between atoms: C2_2  and  C3_3 
REMARK    2  A    between atoms: C3_3  and  C5_5 
REMARK    3  A    between atoms: C5_5  and  O1_6 
REMARK    4  A    between atoms: C6_9  and  C7_10 
REMARK    5  A    between atoms: C7_10  and  O3_11 
REMARK    6  A    between atoms: C14_21  and  C15_22 
REMARK    7  A    between atoms: C15_22  and  C16_23 
REMARK    8  A    between atoms: C15_22  and  O5_26 
REMARK    9  A    between atoms: C16_23  and  C17_24 
REMARK   10  A    between atoms: O5_26  and  C19_27 
REMARK   11  A    between atoms: C22_31  and  O7_32 
REMARK   12  A    between atoms: C23_34  and  N1_35 
REMARK   13  A    between atoms: C33_45  and  O8_46 
ROOT
HETATM    1  C5  UNL     1      51.169   6.564   2.416  1.00  0.00     0.220 C 
HETATM    2  O2  UNL     1      50.829   5.344   2.677  1.00  0.00    -0.340 OA
HETATM    3  C6  UNL     1      51.361   4.156   2.776  1.00  0.00     0.172 C 
HETATM    4  C13 UNL     1      50.715   3.057   1.913  1.00  0.00     0.043 C 
HETATM    5  C14 UNL     1      49.323   2.648   2.157  1.00  0.00     0.024 C 
HETATM    6  C28 UNL     1      48.305   3.302   1.173  1.00  0.00     0.010 C 
HETATM    7  C29 UNL     1      48.083   2.586  -0.106  1.00  0.00     0.015 C 
HETATM    8  C30 UNL     1      48.969   4.590   0.793  1.00  0.00    -0.022 C 
HETATM    9  C31 UNL     1      48.761   5.846   0.823  1.00  0.00    -0.001 C 
HETATM   10  C32 UNL     1      49.695   6.941   0.370  1.00  0.00     0.038 C 
HETATM   11  C33 UNL     1      50.761   7.235   1.088  1.00  0.00     0.108 C 
ENDROOT
BRANCH   5  12
HETATM   12  C15 UNL     1      49.164   1.130   2.120  1.00  0.00     0.129 C 
BRANCH  12  13
HETATM   13  C16 UNL     1      50.578   0.537   2.148  1.00  0.00     0.032 C 
BRANCH  13  14
HETATM   14  C17 UNL     1      50.678  -0.886   2.577  1.00  0.00    -0.002 C 
HETATM   15  C18 UNL     1      51.452  -0.971   3.900  1.00  0.00     0.005 C 
ENDBRANCH  13  14
ENDBRANCH  12  13
BRANCH  12  16
HETATM   16  O5  UNL     1      48.359   0.761   3.140  1.00  0.00    -0.355 OA
BRANCH  16  17
HETATM   17  C19 UNL     1      47.175   0.168   3.041  1.00  0.00     0.266 C 
HETATM   18  O6  UNL     1      46.209   1.253   3.349  1.00  0.00    -0.353 OA
HETATM   19  C20 UNL     1      44.943   0.854   3.044  1.00  0.00     0.151 C 
HETATM   20  C21 UNL     1      44.460   1.461   1.720  1.00  0.00     0.042 C 
HETATM   21  C22 UNL     1      44.726  -0.636   2.961  1.00  0.00     0.169 C 
HETATM   22  C23 UNL     1      45.443  -1.260   4.123  1.00  0.00     0.117 C 
HETATM   23  C26 UNL     1      46.867  -0.750   4.187  1.00  0.00     0.062 C 
HETATM   24  C27 UNL     1      47.858  -1.799   4.509  1.00  0.00     0.017 C 
BRANCH  21  25
HETATM   25  O7  UNL     1      43.347  -0.866   3.073  1.00  0.00    -0.391 OA
ATOM     26  H7  UNL     1      42.927  -0.437   2.336  1.00  0.00     0.210 HD
ENDBRANCH  21  25
BRANCH  22  27
HETATM   27  N1  UNL     1      45.275  -2.655   4.270  1.00  0.00    -0.413 N 
HETATM   28  C24 UNL     1      45.060  -3.451   3.128  1.00  0.00     0.143 C 
HETATM   29  C25 UNL     1      44.473  -3.010   5.399  1.00  0.00     0.143 C 
ENDBRANCH  22  27
ENDBRANCH  16  17
ENDBRANCH  12  16
ENDBRANCH   5  12
BRANCH   3  30
HETATM   30  C7  UNL     1      51.637   3.660   4.156  1.00  0.00     0.164 C 
HETATM   31  C8  UNL     1      50.454   2.987   4.842  1.00  0.00     0.025 C 
HETATM   32  C9  UNL     1      50.969   2.319   5.898  1.00  0.00    -0.059 C 
HETATM   33  C10 UNL     1      50.253   1.502   6.899  1.00  0.00     0.045 C 
HETATM   34  C11 UNL     1      52.475   2.482   5.902  1.00  0.00     0.183 C 
HETATM   35 CL1  UNL     1      53.309   1.072   6.514  1.00  0.00    -0.112 Cl
HETATM   36  C12 UNL     1      52.580   2.590   4.377  1.00  0.00     0.190 C 
HETATM   37  O4  UNL     1      53.282   1.905   3.766  1.00  0.00    -0.292 OA
BRANCH  30  38
HETATM   38  O3  UNL     1      51.892   4.722   5.051  1.00  0.00    -0.375 OA
ATOM     39  H3  UNL     1      51.249   4.755   5.749  1.00  0.00     0.211 HD
ENDBRANCH  30  38
ENDBRANCH   3  30
BRANCH   1  40
HETATM   40  C3  UNL     1      50.491   7.539   3.446  1.00  0.00     0.073 C 
HETATM   41  C4  UNL     1      51.559   8.209   4.275  1.00  0.00     0.020 C 
BRANCH  40  42
HETATM   42  C2  UNL     1      49.541   6.871   4.307  1.00  0.00    -0.027 C 
HETATM   43  C1  UNL     1      48.211   7.085   4.259  1.00  0.00     0.007 C 
ENDBRANCH  40  42
ENDBRANCH   1  40
BRANCH   1  44
HETATM   44  O1  UNL     1      52.535   6.870   2.587  1.00  0.00    -0.359 OA
ATOM     45  H1  UNL     1      52.819   6.169   3.162  1.00  0.00     0.213 HD
ENDBRANCH   1  44
BRANCH  11  46
HETATM   46  O8  UNL     1      51.630   8.222   0.658  1.00  0.00    -0.355 OA
HETATM   47  C34 UNL     1      51.210   9.212  -0.261  1.00  0.00     0.209 C 
ENDBRANCH  11  46
TORSDOF 13
ENDMDL
MODEL 3
REMARK VINA RESULT: -5.597665925      4.217      7.848
REMARK  13 active torsions:
REMARK  status: ('A' for Active; 'I' for Inactive)
REMARK    1  A    between atoms: C2_2  and  C3_3 
REMARK    2  A    between atoms: C3_3  and  C5_5 
REMARK    3  A    between atoms: C5_5  and  O1_6 
REMARK    4  A    between atoms: C6_9  and  C7_10 
REMARK    5  A    between atoms: C7_10  and  O3_11 
REMARK    6  A    between atoms: C14_21  and  C15_22 
REMARK    7  A    between atoms: C15_22  and  C16_23 
REMARK    8  A    between atoms: C15_22  and  O5_26 
REMARK    9  A    between atoms: C16_23  and  C17_24 
REMARK   10  A    between atoms: O5_26  and  C19_27 
REMARK   11  A    between atoms: C22_31  and  O7_32 
REMARK   12  A    between atoms: C23_34  and  N1_35 
REMARK   13  A    between atoms: C33_45  and  O8_46 
ROOT
HETATM    1  C5  UNL     1      51.137   7.118   1.839  1.00  0.00     0.220 C 
HETATM    2  O2  UNL     1      51.640   6.013   2.283  1.00  0.00    -0.340 OA
HETATM    3  C6  UNL     1      52.468   5.586   3.196  1.00  0.00     0.172 C 
HETATM    4  C13 UNL     1      53.626   4.704   2.695  1.00  0.00     0.043 C 
HETATM    5  C14 UNL     1      53.347   3.395   2.084  1.00  0.00     0.024 C 
HETATM    6  C28 UNL     1      53.373   3.422   0.525  1.00  0.00     0.010 C 
HETATM    7  C29 UNL     1      54.697   3.214  -0.108  1.00  0.00     0.015 C 
HETATM    8  C30 UNL     1      52.997   4.835   0.197  1.00  0.00    -0.022 C 
HETATM    9  C31 UNL     1      52.117   5.490  -0.449  1.00  0.00    -0.001 C 
HETATM   10  C32 UNL     1      51.988   6.989  -0.560  1.00  0.00     0.038 C 
HETATM   11  C33 UNL     1      51.560   7.691   0.470  1.00  0.00     0.108 C 
ENDROOT
BRANCH   5  12
HETATM   12  C15 UNL     1      54.304   2.319   2.590  1.00  0.00     0.129 C 
BRANCH  12  13
HETATM   13  C16 UNL     1      55.532   3.046   3.149  1.00  0.00     0.032 C 
BRANCH  13  14
HETATM   14  C17 UNL     1      56.854   2.474   2.773  1.00  0.00    -0.002 C 
HETATM   15  C18 UNL     1      57.680   3.533   2.028  1.00  0.00     0.005 C 
ENDBRANCH  13  14
ENDBRANCH  12  13
BRANCH  12  16
HETATM   16  O5  UNL     1      53.640   1.539   3.472  1.00  0.00    -0.355 OA
BRANCH  16  17
HETATM   17  C19 UNL     1      53.582   0.212   3.471  1.00  0.00     0.266 C 
HETATM   18  O6  UNL     1      52.156  -0.081   3.758  1.00  0.00    -0.353 OA
HETATM   19  C20 UNL     1      51.896  -1.401   3.543  1.00  0.00     0.151 C 
HETATM   20  C21 UNL     1      51.173  -1.628   2.210  1.00  0.00     0.042 C 
HETATM   21  C22 UNL     1      53.093  -2.318   3.566  1.00  0.00     0.169 C 
HETATM   22  C23 UNL     1      53.952  -1.908   4.727  1.00  0.00     0.117 C 
HETATM   23  C26 UNL     1      54.199  -0.415   4.686  1.00  0.00     0.062 C 
HETATM   24  C27 UNL     1      55.588  -0.035   5.024  1.00  0.00     0.017 C 
BRANCH  21  25
HETATM   25  O7  UNL     1      52.619  -3.623   3.761  1.00  0.00    -0.391 OA
ATOM     26  H7  UNL     1      52.331  -3.688   4.664  1.00  0.00     0.210 HD
ENDBRANCH  21  25
BRANCH  22  27
HETATM   27  N1  UNL     1      55.083  -2.719   4.970  1.00  0.00    -0.413 N 
HETATM   28  C24 UNL     1      55.717  -3.365   3.892  1.00  0.00     0.143 C 
HETATM   29  C25 UNL     1      54.960  -3.517   6.150  1.00  0.00     0.143 C 
ENDBRANCH  22  27
ENDBRANCH  16  17
ENDBRANCH  12  16
ENDBRANCH   5  12
BRANCH   3  30
HETATM   30  C7  UNL     1      51.861   5.018   4.436  1.00  0.00     0.164 C 
HETATM   31  C8  UNL     1      51.100   3.713   4.235  1.00  0.00     0.025 C 
HETATM   32  C9  UNL     1      50.928   3.190   5.470  1.00  0.00    -0.059 C 
HETATM   33  C10 UNL     1      50.246   1.934   5.843  1.00  0.00     0.045 C 
HETATM   34  C11 UNL     1      51.606   4.086   6.487  1.00  0.00     0.183 C 
HETATM   35 CL1  UNL     1      52.272   3.196   7.838  1.00  0.00    -0.112 Cl
HETATM   36  C12 UNL     1      52.697   4.551   5.516  1.00  0.00     0.190 C 
HETATM   37  O4  UNL     1      53.820   4.460   5.775  1.00  0.00    -0.292 OA
BRANCH  30  38
HETATM   38  O3  UNL     1      50.836   5.847   4.942  1.00  0.00    -0.375 OA
ATOM     39  H3  UNL     1      50.027   5.365   5.073  1.00  0.00     0.211 HD
ENDBRANCH  30  38
ENDBRANCH   3  30
BRANCH   1  40
HETATM   40  C3  UNL     1      49.591   6.947   1.609  1.00  0.00     0.073 C 
HETATM   41  C4  UNL     1      48.842   7.820   2.586  1.00  0.00     0.020 C 
BRANCH  40  42
HETATM   42  C2  UNL     1      49.156   5.574   1.736  1.00  0.00    -0.027 C 
HETATM   43  C1  UNL     1      48.657   4.852   0.712  1.00  0.00     0.007 C 
ENDBRANCH  40  42
ENDBRANCH   1  40
BRANCH   1  44
HETATM   44  O1  UNL     1      51.175   8.210   2.731  1.00  0.00    -0.359 OA
ATOM     45  H1  UNL     1      51.748   7.883   3.413  1.00  0.00     0.213 HD
ENDBRANCH   1  44
BRANCH  11  46
HETATM   46  O8  UNL     1      51.466   9.068   0.375  1.00  0.00    -0.355 OA
HETATM   47  C34 UNL     1      50.783   9.679  -0.702  1.00  0.00     0.209 C 
ENDBRANCH  11  46
TORSDOF 13
ENDMDL
MODEL 4
REMARK VINA RESULT: -5.579877109      2.891      6.195
REMARK  13 active torsions:
REMARK  status: ('A' for Active; 'I' for Inactive)
REMARK    1  A    between atoms: C2_2  and  C3_3 
REMARK    2  A    between atoms: C3_3  and  C5_5 
REMARK    3  A    between atoms: C5_5  and  O1_6 
REMARK    4  A    between atoms: C6_9  and  C7_10 
REMARK    5  A    between atoms: C7_10  and  O3_11 
REMARK    6  A    between atoms: C14_21  and  C15_22 
REMARK    7  A    between atoms: C15_22  and  C16_23 
REMARK    8  A    between atoms: C15_22  and  O5_26 
REMARK    9  A    between atoms: C16_23  and  C17_24 
REMARK   10  A    between atoms: O5_26  and  C19_27 
REMARK   11  A    between atoms: C22_31  and  O7_32 
REMARK   12  A    between atoms: C23_34  and  N1_35 
REMARK   13  A    between atoms: C33_45  and  O8_46 
ROOT
HETATM    1  C5  UNL     1      50.737   6.558   2.133  1.00  0.00     0.220 C 
HETATM    2  O2  UNL     1      50.318   5.343   2.273  1.00  0.00    -0.340 OA
HETATM    3  C6  UNL     1      50.784   4.140   2.472  1.00  0.00     0.172 C 
HETATM    4  C13 UNL     1      50.353   3.073   1.450  1.00  0.00     0.043 C 
HETATM    5  C14 UNL     1      48.936   2.695   1.328  1.00  0.00     0.024 C 
HETATM    6  C28 UNL     1      48.209   3.393   0.138  1.00  0.00     0.010 C 
HETATM    7  C29 UNL     1      48.300   2.706  -1.173  1.00  0.00     0.015 C 
HETATM    8  C30 UNL     1      48.974   4.670  -0.034  1.00  0.00    -0.022 C 
HETATM    9  C31 UNL     1      48.790   5.930  -0.026  1.00  0.00    -0.001 C 
HETATM   10  C32 UNL     1      49.830   7.009  -0.206  1.00  0.00     0.038 C 
HETATM   11  C33 UNL     1      50.688   7.263   0.762  1.00  0.00     0.108 C 
ENDROOT
BRANCH   5  12
HETATM   12  C15 UNL     1      48.761   1.183   1.217  1.00  0.00     0.129 C 
BRANCH  12  13
HETATM   13  C16 UNL     1      50.102   0.617   0.735  1.00  0.00     0.032 C 
BRANCH  13  14
HETATM   14  C17 UNL     1      50.344  -0.822   1.030  1.00  0.00    -0.002 C 
HETATM   15  C18 UNL     1      51.424  -0.951   2.113  1.00  0.00     0.005 C 
ENDBRANCH  13  14
ENDBRANCH  12  13
BRANCH  12  16
HETATM   16  O5  UNL     1      48.327   0.715   2.408  1.00  0.00    -0.355 OA
BRANCH  16  17
HETATM   17  C19 UNL     1      47.148   0.160   2.660  1.00  0.00     0.266 C 
HETATM   18  O6  UNL     1      46.360   1.262   3.267  1.00  0.00    -0.353 OA
HETATM   19  C20 UNL     1      45.047   0.909   3.351  1.00  0.00     0.151 C 
HETATM   20  C21 UNL     1      44.210   1.568   2.247  1.00  0.00     0.042 C 
HETATM   21  C22 UNL     1      44.761  -0.571   3.308  1.00  0.00     0.169 C 
HETATM   22  C23 UNL     1      45.772  -1.250   4.186  1.00  0.00     0.117 C 
HETATM   23  C26 UNL     1      47.167  -0.783   3.827  1.00  0.00     0.062 C 
HETATM   24  C27 UNL     1      48.169  -1.869   3.814  1.00  0.00     0.017 C 
BRANCH  21  25
HETATM   25  O7  UNL     1      43.473  -0.765   3.826  1.00  0.00    -0.391 OA
ATOM     26  H7  UNL     1      43.533  -1.441   4.491  1.00  0.00     0.210 HD
ENDBRANCH  21  25
BRANCH  22  27
HETATM   27  N1  UNL     1      45.606  -2.643   4.350  1.00  0.00    -0.413 N 
HETATM   28  C24 UNL     1      44.983  -3.391   3.331  1.00  0.00     0.143 C 
HETATM   29  C25 UNL     1      45.221  -3.013   5.676  1.00  0.00     0.143 C 
ENDBRANCH  22  27
ENDBRANCH  16  17
ENDBRANCH  12  16
ENDBRANCH   5  12
BRANCH   3  30
HETATM   30  C7  UNL     1      50.696   3.612   3.865  1.00  0.00     0.164 C 
HETATM   31  C8  UNL     1      51.330   2.241   4.070  1.00  0.00     0.025 C 
HETATM   32  C9  UNL     1      51.459   2.089   5.408  1.00  0.00    -0.059 C 
HETATM   33  C10 UNL     1      52.013   0.935   6.146  1.00  0.00     0.045 C 
HETATM   34  C11 UNL     1      50.979   3.349   6.099  1.00  0.00     0.183 C 
HETATM   35 CL1  UNL     1      51.869   3.701   7.563  1.00  0.00    -0.112 Cl
HETATM   36  C12 UNL     1      51.388   4.272   4.946  1.00  0.00     0.190 C 
HETATM   37  O4  UNL     1      52.071   5.188   5.115  1.00  0.00    -0.292 OA
BRANCH  30  38
HETATM   38  O3  UNL     1      49.360   3.344   4.239  1.00  0.00    -0.375 OA
ATOM     39  H3  UNL     1      49.023   4.004   4.833  1.00  0.00     0.211 HD
ENDBRANCH  30  38
ENDBRANCH   3  30
BRANCH   1  40
HETATM   40  C3  UNL     1      49.843   7.531   2.985  1.00  0.00     0.073 C 
HETATM   41  C4  UNL     1      50.677   8.141   4.084  1.00  0.00     0.020 C 
BRANCH  40  42
HETATM   42  C2  UNL     1      48.683   6.877   3.547  1.00  0.00    -0.027 C 
HETATM   43  C1  UNL     1      48.471   6.742   4.872  1.00  0.00     0.007 C 
ENDBRANCH  40  42
ENDBRANCH   1  40
BRANCH   1  44
HETATM   44  O1  UNL     1      52.022   6.826   2.647  1.00  0.00    -0.359 OA
ATOM     45  H1  UNL     1      52.493   7.088   1.865  1.00  0.00     0.213 HD
ENDBRANCH   1  44
BRANCH  11  46
HETATM   46  O8  UNL     1      51.656   8.235   0.586  1.00  0.00    -0.355 OA
HETATM   47  C34 UNL     1      51.575   9.159  -0.482  1.00  0.00     0.209 C 
ENDBRANCH  11  46
TORSDOF 13
ENDMDL
MODEL 5
REMARK VINA RESULT: -5.497366128      2.854      6.026
REMARK  13 active torsions:
REMARK  status: ('A' for Active; 'I' for Inactive)
REMARK    1  A    between atoms: C2_2  and  C3_3 
REMARK    2  A    between atoms: C3_3  and  C5_5 
REMARK    3  A    between atoms: C5_5  and  O1_6 
REMARK    4  A    between atoms: C6_9  and  C7_10 
REMARK    5  A    between atoms: C7_10  and  O3_11 
REMARK    6  A    between atoms: C14_21  and  C15_22 
REMARK    7  A    between atoms: C15_22  and  C16_23 
REMARK    8  A    between atoms: C15_22  and  O5_26 
REMARK    9  A    between atoms: C16_23  and  C17_24 
REMARK   10  A    between atoms: O5_26  and  C19_27 
REMARK   11  A    between atoms: C22_31  and  O7_32 
REMARK   12  A    between atoms: C23_34  and  N1_35 
REMARK   13  A    between atoms: C33_45  and  O8_46 
ROOT
HETATM    1  C5  UNL     1      50.837   6.587   2.655  1.00  0.00     0.220 C 
HETATM    2  O2  UNL     1      50.441   5.377   2.879  1.00  0.00    -0.340 OA
HETATM    3  C6  UNL     1      50.930   4.183   3.076  1.00  0.00     0.172 C 
HETATM    4  C13 UNL     1      50.408   3.079   2.140  1.00  0.00     0.043 C 
HETATM    5  C14 UNL     1      48.988   2.694   2.171  1.00  0.00     0.024 C 
HETATM    6  C28 UNL     1      48.145   3.346   1.033  1.00  0.00     0.010 C 
HETATM    7  C29 UNL     1      48.111   2.612  -0.254  1.00  0.00     0.015 C 
HETATM    8  C30 UNL     1      48.881   4.618   0.741  1.00  0.00    -0.022 C 
HETATM    9  C31 UNL     1      48.692   5.877   0.721  1.00  0.00    -0.001 C 
HETATM   10  C32 UNL     1      49.704   6.950   0.401  1.00  0.00     0.038 C 
HETATM   11  C33 UNL     1      50.651   7.241   1.271  1.00  0.00     0.108 C 
ENDROOT
BRANCH   5  12
HETATM   12  C15 UNL     1      48.811   1.179   2.132  1.00  0.00     0.129 C 
BRANCH  12  13
HETATM   13  C16 UNL     1      50.151   0.567   2.556  1.00  0.00     0.032 C 
BRANCH  13  14
HETATM   14  C17 UNL     1      50.072  -0.571   3.514  1.00  0.00    -0.002 C 
HETATM   15  C18 UNL     1      51.482  -1.115   3.785  1.00  0.00     0.005 C 
ENDBRANCH  13  14
ENDBRANCH  12  13
BRANCH  12  16
HETATM   16  O5  UNL     1      47.752   0.853   2.907  1.00  0.00    -0.355 OA
BRANCH  16  17
HETATM   17  C19 UNL     1      46.769   0.018   2.595  1.00  0.00     0.266 C 
HETATM   18  O6  UNL     1      45.738   0.897   1.988  1.00  0.00    -0.353 OA
HETATM   19  C20 UNL     1      44.771   0.144   1.393  1.00  0.00     0.151 C 
HETATM   20  C21 UNL     1      44.940   0.103  -0.131  1.00  0.00     0.042 C 
HETATM   21  C22 UNL     1      44.663  -1.283   1.871  1.00  0.00     0.169 C 
HETATM   22  C23 UNL     1      44.778  -1.266   3.368  1.00  0.00     0.117 C 
HETATM   23  C26 UNL     1      45.993  -0.465   3.785  1.00  0.00     0.062 C 
HETATM   24  C27 UNL     1      46.752  -1.076   4.896  1.00  0.00     0.017 C 
BRANCH  21  25
HETATM   25  O7  UNL     1      43.398  -1.757   1.495  1.00  0.00    -0.391 OA
ATOM     26  H7  UNL     1      42.906  -1.916   2.292  1.00  0.00     0.210 HD
ENDBRANCH  21  25
BRANCH  22  27
HETATM   27  N1  UNL     1      44.603  -2.511   4.011  1.00  0.00    -0.413 N 
HETATM   28  C24 UNL     1      45.064  -3.685   3.384  1.00  0.00     0.143 C 
HETATM   29  C25 UNL     1      43.331  -2.642   4.651  1.00  0.00     0.143 C 
ENDBRANCH  22  27
ENDBRANCH  16  17
ENDBRANCH  12  16
ENDBRANCH   5  12
BRANCH   3  30
HETATM   30  C7  UNL     1      50.982   3.707   4.489  1.00  0.00     0.164 C 
HETATM   31  C8  UNL     1      51.783   2.428   4.704  1.00  0.00     0.025 C 
HETATM   32  C9  UNL     1      52.003   2.348   6.036  1.00  0.00    -0.059 C 
HETATM   33  C10 UNL     1      52.728   1.298   6.780  1.00  0.00     0.045 C 
HETATM   34  C11 UNL     1      51.415   3.571   6.710  1.00  0.00     0.183 C 
HETATM   35 CL1  UNL     1      52.336   4.084   8.106  1.00  0.00    -0.112 Cl
HETATM   36  C12 UNL     1      51.648   4.487   5.504  1.00  0.00     0.190 C 
HETATM   37  O4  UNL     1      52.227   5.482   5.600  1.00  0.00    -0.292 OA
BRANCH  30  38
HETATM   38  O3  UNL     1      49.709   3.301   4.950  1.00  0.00    -0.375 OA
ATOM     39  H3  UNL     1      49.726   3.075   5.872  1.00  0.00     0.211 HD
ENDBRANCH  30  38
ENDBRANCH   3  30
BRANCH   1  40
HETATM   40  C3  UNL     1      50.025   7.590   3.554  1.00  0.00     0.073 C 
HETATM   41  C4  UNL     1      50.984   8.394   4.396  1.00  0.00     0.020 C 
BRANCH  40  42
HETATM   42  C2  UNL     1      49.059   6.925   4.401  1.00  0.00    -0.027 C 
HETATM   43  C1  UNL     1      47.726   7.084   4.279  1.00  0.00     0.007 C 
ENDBRANCH  40  42
ENDBRANCH   1  40
BRANCH   1  44
HETATM   44  O1  UNL     1      52.165   6.876   3.031  1.00  0.00    -0.359 OA
ATOM     45  H1  UNL     1      52.651   6.577   2.272  1.00  0.00     0.213 HD
ENDBRANCH   1  44
BRANCH  11  46
HETATM   46  O8  UNL     1      51.592   8.208   0.966  1.00  0.00    -0.355 OA
HETATM   47  C34 UNL     1      51.492   8.975  -0.218  1.00  0.00     0.209 C 
ENDBRANCH  11  46
TORSDOF 13
ENDMDL
