MODEL 1
REMARK VINA RESULT: -5.741672806      0.000      0.000
REMARK  3 active torsions:
REMARK  status: ('A' for Active; 'I' for Inactive)
REMARK    1  A    between atoms: O1_2  and  C2_3 
REMARK    2  A    between atoms: C2_3  and  C3_5 
REMARK    3  A    between atoms: C4_6  and  C5_7 
ROOT
HETATM    1  C3  UNL     1      34.073 -31.401   0.353  1.00  0.00     0.213 C 
HETATM    2  C4  UNL     1      32.760 -31.201   1.016  1.00  0.00     0.051 C 
HETATM    3  C10 UNL     1      31.738 -30.461   0.226  1.00  0.00     0.015 C 
HETATM    4  C11 UNL     1      31.936 -30.615  -1.274  1.00  0.00     0.061 C 
HETATM    5  C12 UNL     1      33.332 -30.248  -1.626  1.00  0.00     0.048 A 
HETATM    6  C13 UNL     1      33.860 -29.531  -2.689  1.00  0.00     0.052 A 
HETATM    7 BR1  UNL     1      32.882 -28.756  -4.118  1.00  0.00    -0.047 Br
HETATM    8  C14 UNL     1      35.199 -29.517  -2.468  1.00  0.00     0.128 A 
HETATM    9  N2  UNL     1      35.457 -30.175  -1.358  1.00  0.00    -0.307 N 
ATOM     10  H2  UNL     1      36.385 -30.318  -0.960  1.00  0.00     0.186 HD
HETATM   11  N3  UNL     1      34.319 -30.624  -0.839  1.00  0.00    -0.281 N 
ENDROOT
BRANCH   2  12
HETATM   12  C5  UNL     1      32.287 -32.554   1.505  1.00  0.00     0.192 C 
HETATM   13  C6  UNL     1      30.852 -32.855   1.316  1.00  0.00     0.033 C 
HETATM   14  C7  UNL     1      30.630 -34.305   1.700  1.00  0.00     0.004 C 
HETATM   15  C8  UNL     1      31.205 -34.700   3.009  1.00  0.00     0.027 C 
HETATM   16  C9  UNL     1      32.536 -34.061   3.311  1.00  0.00     0.232 C 
HETATM   17  N1  UNL     1      32.583 -32.669   2.930  1.00  0.00    -0.070 N 
ATOM     18  H12 UNL     1      33.468 -32.229   3.179  1.00  0.00     0.277 HD
ATOM     19  H11 UNL     1      31.969 -32.090   3.502  1.00  0.00     0.277 HD
ENDBRANCH   2  12
BRANCH   1  20
HETATM   20  C2  UNL     1      35.184 -31.050   1.302  1.00  0.00     0.283 C 
HETATM   21  O2  UNL     1      36.334 -31.437   1.034  1.00  0.00    -0.263 OA
BRANCH  20  22
HETATM   22  O1  UNL     1      34.943 -30.316   2.447  1.00  0.00    -0.325 OA
HETATM   23  C1  UNL     1      35.729 -29.170   2.764  1.00  0.00     0.213 C 
ENDBRANCH  20  22
ENDBRANCH   1  20
TORSDOF 3
ENDMDL
MODEL 2
REMARK VINA RESULT: -5.592751271      2.545      5.266
REMARK  3 active torsions:
REMARK  status: ('A' for Active; 'I' for Inactive)
REMARK    1  A    between atoms: O1_2  and  C2_3 
REMARK    2  A    between atoms: C2_3  and  C3_5 
REMARK    3  A    between atoms: C4_6  and  C5_7 
ROOT
HETATM    1  C3  UNL     1      33.104 -30.757   1.129  1.00  0.00     0.213 C 
HETATM    2  C4  UNL     1      32.957 -31.448  -0.178  1.00  0.00     0.051 C 
HETATM    3  C10 UNL     1      31.850 -32.439  -0.269  1.00  0.00     0.015 C 
HETATM    4  C11 UNL     1      30.702 -32.121   0.675  1.00  0.00     0.061 C 
HETATM    5  C12 UNL     1      31.232 -31.954   2.054  1.00  0.00     0.048 A 
HETATM    6  C13 UNL     1      30.748 -32.367   3.286  1.00  0.00     0.052 A 
HETATM    7 BR1  UNL     1      29.144 -33.330   3.599  1.00  0.00    -0.047 Br
HETATM    8  C14 UNL     1      31.668 -31.931   4.184  1.00  0.00     0.128 A 
HETATM    9  N2  UNL     1      32.629 -31.304   3.542  1.00  0.00    -0.307 N 
ATOM     10  H2  UNL     1      33.447 -30.876   3.976  1.00  0.00     0.186 HD
HETATM   11  N3  UNL     1      32.368 -31.315   2.238  1.00  0.00    -0.281 N 
ENDROOT
BRANCH   2  12
HETATM   12  C5  UNL     1      32.907 -30.381  -1.252  1.00  0.00     0.192 C 
HETATM   13  C6  UNL     1      31.810 -30.492  -2.236  1.00  0.00     0.033 C 
HETATM   14  C7  UNL     1      31.836 -29.244  -3.098  1.00  0.00     0.004 C 
HETATM   15  C8  UNL     1      33.166 -28.894  -3.652  1.00  0.00     0.027 C 
HETATM   16  C9  UNL     1      34.310 -29.149  -2.704  1.00  0.00     0.232 C 
HETATM   17  N1  UNL     1      34.169 -30.394  -1.987  1.00  0.00    -0.070 N 
ATOM     18  H12 UNL     1      34.968 -30.585  -1.382  1.00  0.00     0.277 HD
ATOM     19  H11 UNL     1      34.254 -31.206  -2.598  1.00  0.00     0.277 HD
ENDBRANCH   2  12
BRANCH   1  20
HETATM   20  C2  UNL     1      34.545 -30.767   1.553  1.00  0.00     0.283 C 
HETATM   21  O2  UNL     1      35.352 -31.441   0.890  1.00  0.00    -0.263 OA
BRANCH  20  22
HETATM   22  O1  UNL     1      34.973 -30.049   2.653  1.00  0.00    -0.325 OA
HETATM   23  C1  UNL     1      36.183 -29.296   2.614  1.00  0.00     0.213 C 
ENDBRANCH  20  22
ENDBRANCH   1  20
TORSDOF 3
ENDMDL
MODEL 3
REMARK VINA RESULT: -5.471788460      3.286      5.414
REMARK  3 active torsions:
REMARK  status: ('A' for Active; 'I' for Inactive)
REMARK    1  A    between atoms: O1_2  and  C2_3 
REMARK    2  A    between atoms: C2_3  and  C3_5 
REMARK    3  A    between atoms: C4_6  and  C5_7 
ROOT
HETATM    1  C3  UNL     1      30.722 -31.777   0.492  1.00  0.00     0.213 C 
HETATM    2  C4  UNL     1      31.713 -31.932  -0.603  1.00  0.00     0.051 C 
HETATM    3  C10 UNL     1      31.245 -31.548  -1.962  1.00  0.00     0.015 C 
HETATM    4  C11 UNL     1      30.153 -30.492  -1.928  1.00  0.00     0.061 C 
HETATM    5  C12 UNL     1      29.056 -30.948  -1.035  1.00  0.00     0.048 A 
HETATM    6  C13 UNL     1      27.677 -30.869  -1.150  1.00  0.00     0.052 A 
HETATM    7 BR1  UNL     1      26.711 -30.088  -2.584  1.00  0.00    -0.047 Br
HETATM    8  C14 UNL     1      27.199 -31.465  -0.028  1.00  0.00     0.128 A 
HETATM    9  N2  UNL     1      28.213 -31.870   0.706  1.00  0.00    -0.307 N 
ATOM     10  H2  UNL     1      28.137 -32.350   1.603  1.00  0.00     0.186 HD
HETATM   11  N3  UNL     1      29.351 -31.558   0.094  1.00  0.00    -0.281 N 
ENDROOT
BRANCH   2  12
HETATM   12  C5  UNL     1      32.979 -31.221  -0.172  1.00  0.00     0.192 C 
HETATM   13  C6  UNL     1      34.026 -31.063  -1.204  1.00  0.00     0.033 C 
HETATM   14  C7  UNL     1      35.114 -30.179  -0.625  1.00  0.00     0.004 C 
HETATM   15  C8  UNL     1      35.591 -30.575   0.722  1.00  0.00     0.027 C 
HETATM   16  C9  UNL     1      34.502 -31.080   1.633  1.00  0.00     0.232 C 
HETATM   17  N1  UNL     1      33.566 -31.944   0.953  1.00  0.00    -0.070 N 
ATOM     18  H12 UNL     1      32.858 -32.322   1.582  1.00  0.00     0.277 HD
ATOM     19  H11 UNL     1      33.989 -32.827   0.668  1.00  0.00     0.277 HD
ENDBRANCH   2  12
BRANCH   1  20
HETATM   20  C2  UNL     1      30.703 -33.015   1.344  1.00  0.00     0.283 C 
HETATM   21  O2  UNL     1      31.242 -32.970   2.463  1.00  0.00    -0.263 OA
BRANCH  20  22
HETATM   22  O1  UNL     1      30.105 -34.180   0.903  1.00  0.00    -0.325 OA
HETATM   23  C1  UNL     1      29.845 -35.257   1.799  1.00  0.00     0.213 C 
ENDBRANCH  20  22
ENDBRANCH   1  20
TORSDOF 3
ENDMDL
MODEL 4
REMARK VINA RESULT: -5.466526685      3.714      6.557
REMARK  3 active torsions:
REMARK  status: ('A' for Active; 'I' for Inactive)
REMARK    1  A    between atoms: O1_2  and  C2_3 
REMARK    2  A    between atoms: C2_3  and  C3_5 
REMARK    3  A    between atoms: C4_6  and  C5_7 
ROOT
HETATM    1  C3  UNL     1      30.858 -31.366  -1.127  1.00  0.00     0.213 C 
HETATM    2  C4  UNL     1      31.911 -30.391  -0.745  1.00  0.00     0.051 C 
HETATM    3  C10 UNL     1      32.674 -30.709   0.493  1.00  0.00     0.015 C 
HETATM    4  C11 UNL     1      32.735 -32.201   0.775  1.00  0.00     0.061 C 
HETATM    5  C12 UNL     1      31.357 -32.758   0.773  1.00  0.00     0.048 A 
HETATM    6  C13 UNL     1      30.736 -33.692   1.588  1.00  0.00     0.052 A 
HETATM    7 BR1  UNL     1      31.525 -34.611   3.048  1.00  0.00    -0.047 Br
HETATM    8  C14 UNL     1      29.471 -33.789   1.105  1.00  0.00     0.128 A 
HETATM    9  N2  UNL     1      29.341 -32.975   0.080  1.00  0.00    -0.307 N 
ATOM     10  H2  UNL     1      28.491 -32.851  -0.469  1.00  0.00     0.186 HD
HETATM   11  N3  UNL     1      30.491 -32.342  -0.128  1.00  0.00    -0.281 N 
ENDROOT
BRANCH   2  12
HETATM   12  C5  UNL     1      32.788 -30.171  -1.960  1.00  0.00     0.192 C 
HETATM   13  C6  UNL     1      34.231 -29.979  -1.702  1.00  0.00     0.033 C 
HETATM   14  C7  UNL     1      34.941 -29.959  -3.042  1.00  0.00     0.004 C 
HETATM   15  C8  UNL     1      34.341 -29.056  -4.054  1.00  0.00     0.027 C 
HETATM   16  C9  UNL     1      32.834 -29.021  -4.027  1.00  0.00     0.232 C 
HETATM   17  N1  UNL     1      32.304 -28.999  -2.684  1.00  0.00    -0.070 N 
ATOM     18  H12 UNL     1      31.287 -28.928  -2.670  1.00  0.00     0.277 HD
ATOM     19  H11 UNL     1      32.515 -28.128  -2.198  1.00  0.00     0.277 HD
ENDBRANCH   2  12
BRANCH   1  20
HETATM   20  C2  UNL     1      29.588 -30.640  -1.470  1.00  0.00     0.283 C 
HETATM   21  O2  UNL     1      29.343 -30.412  -2.667  1.00  0.00    -0.263 OA
BRANCH  20  22
HETATM   22  O1  UNL     1      28.709 -30.230  -0.486  1.00  0.00    -0.325 OA
HETATM   23  C1  UNL     1      27.343 -29.957  -0.789  1.00  0.00     0.213 C 
ENDBRANCH  20  22
ENDBRANCH   1  20
TORSDOF 3
ENDMDL
MODEL 5
REMARK VINA RESULT: -5.411268012      2.583      3.969
REMARK  3 active torsions:
REMARK  status: ('A' for Active; 'I' for Inactive)
REMARK    1  A    between atoms: O1_2  and  C2_3 
REMARK    2  A    between atoms: C2_3  and  C3_5 
REMARK    3  A    between atoms: C4_6  and  C5_7 
ROOT
HETATM    1  C3  UNL     1      32.463 -30.389  -1.101  1.00  0.00     0.213 C 
HETATM    2  C4  UNL     1      33.625 -31.182  -0.626  1.00  0.00     0.051 C 
HETATM    3  C10 UNL     1      34.907 -30.951  -1.343  1.00  0.00     0.015 C 
HETATM    4  C11 UNL     1      34.999 -29.557  -1.942  1.00  0.00     0.061 C 
HETATM    5  C12 UNL     1      33.800 -29.304  -2.783  1.00  0.00     0.048 A 
HETATM    6  C13 UNL     1      33.648 -28.684  -4.014  1.00  0.00     0.052 A 
HETATM    7 BR1  UNL     1      35.028 -27.912  -5.063  1.00  0.00    -0.047 Br
HETATM    8  C14 UNL     1      32.319 -28.761  -4.280  1.00  0.00     0.128 A 
HETATM    9  N2  UNL     1      31.718 -29.378  -3.286  1.00  0.00    -0.307 N 
ATOM     10  H2  UNL     1      30.718 -29.569  -3.229  1.00  0.00     0.186 HD
HETATM   11  N3  UNL     1      32.619 -29.713  -2.367  1.00  0.00    -0.281 N 
ENDROOT
BRANCH   2  12
HETATM   12  C5  UNL     1      33.723 -30.987   0.873  1.00  0.00     0.192 C 
HETATM   13  C6  UNL     1      35.088 -30.933   1.439  1.00  0.00     0.033 C 
HETATM   14  C7  UNL     1      34.965 -30.556   2.903  1.00  0.00     0.004 C 
HETATM   15  C8  UNL     1      33.979 -31.352   3.673  1.00  0.00     0.027 C 
HETATM   16  C9  UNL     1      32.730 -31.692   2.902  1.00  0.00     0.232 C 
HETATM   17  N1  UNL     1      33.008 -32.074   1.537  1.00  0.00    -0.070 N 
ATOM     18  H12 UNL     1      32.166 -32.349   1.032  1.00  0.00     0.277 HD
ATOM     19  H11 UNL     1      33.507 -32.961   1.476  1.00  0.00     0.277 HD
ENDBRANCH   2  12
BRANCH   1  20
HETATM   20  C2  UNL     1      31.266 -31.282  -1.265  1.00  0.00     0.283 C 
HETATM   21  O2  UNL     1      31.425 -32.509  -1.151  1.00  0.00    -0.263 OA
BRANCH  20  22
HETATM   22  O1  UNL     1      30.015 -30.762  -1.538  1.00  0.00    -0.325 OA
HETATM   23  C1  UNL     1      29.258 -30.100  -0.527  1.00  0.00     0.213 C 
ENDBRANCH  20  22
ENDBRANCH   1  20
TORSDOF 3
ENDMDL
