MODEL 1
REMARK VINA RESULT: -5.001981911      0.000      0.000
REMARK  3 active torsions:
REMARK  status: ('A' for Active; 'I' for Inactive)
REMARK    1  A    between atoms: C4_5  and  C5_6 
REMARK    2  A    between atoms: C5_6  and  C8_9 
REMARK    3  A    between atoms: C10_13  and  C11_14 
ROOT
HETATM    1  C1  UNL     1      35.649 -29.471  -4.461  1.00  0.00     0.048 C 
HETATM    2  C2  UNL     1      34.452 -30.007  -3.638  1.00  0.00     0.185 C 
HETATM    3  O1  UNL     1      33.520 -29.013  -3.596  1.00  0.00    -0.373 OA
HETATM    4  C3  UNL     1      32.667 -29.037  -2.481  1.00  0.00     0.222 C 
HETATM    5  C4  UNL     1      32.778 -30.391  -1.758  1.00  0.00     0.029 C 
HETATM    6  N1  UNL     1      34.084 -30.466  -1.254  1.00  0.00    -0.296 N 
HETATM    7  C10 UNL     1      34.835 -30.663  -0.149  1.00  0.00     0.133 A 
HETATM    8  C12 UNL     1      36.205 -30.602  -0.500  1.00  0.00     0.126 A 
HETATM    9  N2  UNL     1      36.239 -30.369  -1.794  1.00  0.00    -0.351 N 
ATOM     10  H2  UNL     1      37.088 -30.269  -2.350  1.00  0.00     0.166 HD
HETATM   11  C13 UNL     1      35.016 -30.284  -2.260  1.00  0.00     0.117 A 
ENDROOT
BRANCH   5  12
HETATM   12  C5  UNL     1      31.553 -30.905  -1.213  1.00  0.00     0.006 C 
HETATM   13  C6  UNL     1      30.420 -30.443  -2.231  1.00  0.00     0.022 C 
HETATM   14  C7  UNL     1      31.483 -32.417  -1.435  1.00  0.00     0.022 C 
BRANCH  12  15
HETATM   15  C8  UNL     1      30.962 -30.449   0.068  1.00  0.00     0.067 C 
HETATM   16  C9  UNL     1      30.460 -31.669   0.890  1.00  0.00     0.023 C 
HETATM   17 BR1  UNL     1      29.362 -29.361  -0.083  1.00  0.00    -0.090 Br
ENDBRANCH  12  15
ENDBRANCH   5  12
BRANCH   7  18
HETATM   18  C11 UNL     1      34.484 -30.858   1.221  1.00  0.00     0.228 C 
HETATM   19  O2  UNL     1      33.853 -31.771   1.765  1.00  0.00    -0.643 OA
HETATM   20  O3  UNL     1      34.893 -29.880   2.182  1.00  0.00    -0.643 OA
ENDBRANCH   7  18
TORSDOF 3
ENDMDL
MODEL 2
REMARK VINA RESULT: -4.889861448      2.371      3.297
REMARK  3 active torsions:
REMARK  status: ('A' for Active; 'I' for Inactive)
REMARK    1  A    between atoms: C4_5  and  C5_6 
REMARK    2  A    between atoms: C5_6  and  C8_9 
REMARK    3  A    between atoms: C10_13  and  C11_14 
ROOT
HETATM    1  C1  UNL     1      31.486 -29.772  -3.050  1.00  0.00     0.048 C 
HETATM    2  C2  UNL     1      31.593 -30.606  -1.749  1.00  0.00     0.185 C 
HETATM    3  O1  UNL     1      30.805 -29.996  -0.819  1.00  0.00    -0.373 OA
HETATM    4  C3  UNL     1      31.183 -30.205   0.517  1.00  0.00     0.222 C 
HETATM    5  C4  UNL     1      32.196 -31.360   0.606  1.00  0.00     0.029 C 
HETATM    6  N1  UNL     1      33.350 -30.930  -0.064  1.00  0.00    -0.296 N 
HETATM    7  C10 UNL     1      34.684 -30.746   0.032  1.00  0.00     0.133 A 
HETATM    8  C12 UNL     1      35.176 -30.249  -1.198  1.00  0.00     0.126 A 
HETATM    9  N2  UNL     1      34.134 -30.146  -1.993  1.00  0.00    -0.351 N 
ATOM     10  H2  UNL     1      34.160 -29.814  -2.956  1.00  0.00     0.166 HD
HETATM   11  C13 UNL     1      33.054 -30.535  -1.357  1.00  0.00     0.117 A 
ENDROOT
BRANCH   5  12
HETATM   12  C5  UNL     1      32.067 -32.210   1.756  1.00  0.00     0.006 C 
HETATM   13  C6  UNL     1      31.094 -31.428   2.744  1.00  0.00     0.022 C 
HETATM   14  C7  UNL     1      31.170 -33.403   1.419  1.00  0.00     0.022 C 
BRANCH  12  15
HETATM   15  C8  UNL     1      33.183 -32.529   2.679  1.00  0.00     0.067 C 
HETATM   16  C9  UNL     1      32.973 -33.935   3.308  1.00  0.00     0.023 C 
HETATM   17 BR1  UNL     1      33.332 -31.391   4.244  1.00  0.00    -0.090 Br
ENDBRANCH  12  15
ENDBRANCH   5  12
BRANCH   7  18
HETATM   18  C11 UNL     1      35.594 -30.916   1.119  1.00  0.00     0.228 C 
HETATM   19  O2  UNL     1      36.327 -31.867   1.409  1.00  0.00    -0.643 OA
HETATM   20  O3  UNL     1      35.735 -29.857   2.070  1.00  0.00    -0.643 OA
ENDBRANCH   7  18
TORSDOF 3
ENDMDL
MODEL 3
REMARK VINA RESULT: -4.737583489      2.035      2.840
REMARK  3 active torsions:
REMARK  status: ('A' for Active; 'I' for Inactive)
REMARK    1  A    between atoms: C4_5  and  C5_6 
REMARK    2  A    between atoms: C5_6  and  C8_9 
REMARK    3  A    between atoms: C10_13  and  C11_14 
ROOT
HETATM    1  C1  UNL     1      32.321 -29.233  -3.156  1.00  0.00     0.048 C 
HETATM    2  C2  UNL     1      31.516 -30.184  -2.237  1.00  0.00     0.185 C 
HETATM    3  O1  UNL     1      30.510 -29.450  -1.685  1.00  0.00    -0.373 OA
HETATM    4  C3  UNL     1      30.044 -29.907  -0.442  1.00  0.00     0.222 C 
HETATM    5  C4  UNL     1      30.559 -31.333  -0.177  1.00  0.00     0.029 C 
HETATM    6  N1  UNL     1      31.952 -31.238  -0.062  1.00  0.00    -0.296 N 
HETATM    7  C10 UNL     1      33.021 -31.513   0.715  1.00  0.00     0.133 A 
HETATM    8  C12 UNL     1      34.199 -31.082   0.059  1.00  0.00     0.126 A 
HETATM    9  N2  UNL     1      33.808 -30.561  -1.084  1.00  0.00    -0.351 N 
ATOM     10  H2  UNL     1      34.427 -30.158  -1.787  1.00  0.00     0.166 HD
HETATM   11  C13 UNL     1      32.503 -30.637  -1.181  1.00  0.00     0.117 A 
ENDROOT
BRANCH   5  12
HETATM   12  C5  UNL     1      29.640 -32.207   0.497  1.00  0.00     0.006 C 
HETATM   13  C6  UNL     1      28.271 -32.068  -0.302  1.00  0.00     0.022 C 
HETATM   14  C7  UNL     1      29.973 -33.663   0.165  1.00  0.00     0.022 C 
BRANCH  12  15
HETATM   15  C8  UNL     1      29.161 -31.994   1.884  1.00  0.00     0.067 C 
HETATM   16  C9  UNL     1      29.157 -33.340   2.662  1.00  0.00     0.023 C 
HETATM   17 BR1  UNL     1      27.320 -31.407   2.058  1.00  0.00    -0.090 Br
ENDBRANCH  12  15
ENDBRANCH   5  12
BRANCH   7  18
HETATM   18  C11 UNL     1      33.131 -32.083   2.020  1.00  0.00     0.228 C 
HETATM   19  O2  UNL     1      32.658 -33.127   2.480  1.00  0.00    -0.643 OA
HETATM   20  O3  UNL     1      33.897 -31.392   3.010  1.00  0.00    -0.643 OA
ENDBRANCH   7  18
TORSDOF 3
ENDMDL
MODEL 4
REMARK VINA RESULT: -4.691506370      2.358      3.963
REMARK  3 active torsions:
REMARK  status: ('A' for Active; 'I' for Inactive)
REMARK    1  A    between atoms: C4_5  and  C5_6 
REMARK    2  A    between atoms: C5_6  and  C8_9 
REMARK    3  A    between atoms: C10_13  and  C11_14 
ROOT
HETATM    1  C1  UNL     1      33.696 -28.786  -4.155  1.00  0.00     0.048 C 
HETATM    2  C2  UNL     1      33.708 -29.139  -2.647  1.00  0.00     0.185 C 
HETATM    3  O1  UNL     1      34.680 -30.076  -2.463  1.00  0.00    -0.373 OA
HETATM    4  C3  UNL     1      34.489 -30.933  -1.367  1.00  0.00     0.222 C 
HETATM    5  C4  UNL     1      33.396 -30.372  -0.441  1.00  0.00     0.029 C 
HETATM    6  N1  UNL     1      32.201 -30.400  -1.173  1.00  0.00    -0.296 N 
HETATM    7  C10 UNL     1      30.920 -30.826  -1.187  1.00  0.00     0.133 A 
HETATM    8  C12 UNL     1      30.297 -30.393  -2.382  1.00  0.00     0.126 A 
HETATM    9  N2  UNL     1      31.214 -29.728  -3.050  1.00  0.00    -0.351 N 
ATOM     10  H2  UNL     1      31.075 -29.287  -3.959  1.00  0.00     0.166 HD
HETATM   11  C13 UNL     1      32.335 -29.716  -2.369  1.00  0.00     0.117 A 
ENDROOT
BRANCH   5  12
HETATM   12  C5  UNL     1      33.616 -30.567   0.965  1.00  0.00     0.006 C 
HETATM   13  C6  UNL     1      33.440 -32.131   1.200  1.00  0.00     0.022 C 
HETATM   14  C7  UNL     1      35.107 -30.435   1.278  1.00  0.00     0.022 C 
BRANCH  12  15
HETATM   15  C8  UNL     1      32.722 -30.036   2.022  1.00  0.00     0.067 C 
HETATM   16  C9  UNL     1      33.549 -29.245   3.074  1.00  0.00     0.023 C 
HETATM   17 BR1  UNL     1      31.827 -31.369   3.113  1.00  0.00    -0.090 Br
ENDBRANCH  12  15
ENDBRANCH   5  12
BRANCH   7  18
HETATM   18  C11 UNL     1      30.171 -31.627  -0.273  1.00  0.00     0.228 C 
HETATM   19  O2  UNL     1      29.291 -31.312   0.534  1.00  0.00    -0.643 OA
HETATM   20  O3  UNL     1      30.425 -33.035  -0.226  1.00  0.00    -0.643 OA
ENDBRANCH   7  18
TORSDOF 3
ENDMDL
MODEL 5
REMARK VINA RESULT: -4.690330733      2.971      4.722
REMARK  3 active torsions:
REMARK  status: ('A' for Active; 'I' for Inactive)
REMARK    1  A    between atoms: C4_5  and  C5_6 
REMARK    2  A    between atoms: C5_6  and  C8_9 
REMARK    3  A    between atoms: C10_13  and  C11_14 
ROOT
HETATM    1  C1  UNL     1      35.167 -30.507  -2.447  1.00  0.00     0.048 C 
HETATM    2  C2  UNL     1      34.892 -30.253  -0.944  1.00  0.00     0.185 C 
HETATM    3  O1  UNL     1      35.970 -30.721  -0.256  1.00  0.00    -0.373 OA
HETATM    4  C3  UNL     1      35.712 -31.124   1.064  1.00  0.00     0.222 C 
HETATM    5  C4  UNL     1      34.333 -30.610   1.514  1.00  0.00     0.029 C 
HETATM    6  N1  UNL     1      33.385 -31.261   0.713  1.00  0.00    -0.296 N 
HETATM    7  C10 UNL     1      32.268 -32.020   0.713  1.00  0.00     0.133 A 
HETATM    8  C12 UNL     1      31.873 -32.268  -0.623  1.00  0.00     0.126 A 
HETATM    9  N2  UNL     1      32.757 -31.659  -1.383  1.00  0.00    -0.351 N 
ATOM     10  H2  UNL     1      32.748 -31.651  -2.403  1.00  0.00     0.166 HD
HETATM   11  C13 UNL     1      33.651 -31.064  -0.631  1.00  0.00     0.117 A 
ENDROOT
BRANCH   5  12
HETATM   12  C5  UNL     1      34.245 -30.193   2.886  1.00  0.00     0.006 C 
HETATM   13  C6  UNL     1      35.460 -29.187   3.094  1.00  0.00     0.022 C 
HETATM   14  C7  UNL     1      33.081 -29.215   3.055  1.00  0.00     0.022 C 
BRANCH  12  15
HETATM   15  C8  UNL     1      34.451 -31.101   4.040  1.00  0.00     0.067 C 
HETATM   16  C9  UNL     1      33.491 -30.715   5.201  1.00  0.00     0.023 C 
HETATM   17 BR1  UNL     1      36.193 -31.000   4.889  1.00  0.00    -0.090 Br
ENDBRANCH  12  15
ENDBRANCH   5  12
BRANCH   7  18
HETATM   18  C11 UNL     1      31.514 -32.607   1.774  1.00  0.00     0.228 C 
HETATM   19  O2  UNL     1      31.190 -32.150   2.875  1.00  0.00    -0.643 OA
HETATM   20  O3  UNL     1      31.018 -33.939   1.610  1.00  0.00    -0.643 OA
ENDBRANCH   7  18
TORSDOF 3
ENDMDL
