MODEL 1
REMARK VINA RESULT: -5.921710391      0.000      0.000
REMARK  3 active torsions:
REMARK  status: ('A' for Active; 'I' for Inactive)
REMARK    1  A    between atoms: O1_2  and  C2_3 
REMARK    2  A    between atoms: C9_10  and  N1_11 
REMARK    3  A    between atoms: C14_19  and  O2_20 
ROOT
HETATM    1  C2  UNL     1      31.228 -32.510   1.571  1.00  0.00     0.129 C 
HETATM    2  C3  UNL     1      30.838 -33.000   0.194  1.00  0.00     0.018 C 
HETATM    3  C4  UNL     1      29.361 -32.753   0.027  1.00  0.00     0.014 C 
HETATM    4  C5  UNL     1      29.145 -31.258   0.070  1.00  0.00     0.018 C 
HETATM    5  C6  UNL     1      29.570 -30.647   1.367  1.00  0.00     0.014 C 
HETATM    6  C7  UNL     1      31.026 -31.012   1.574  1.00  0.00     0.018 C 
HETATM    7  C8  UNL     1      31.791 -30.387   0.459  1.00  0.00     0.041 C 
HETATM    8  C9  UNL     1      31.386 -30.869  -0.925  1.00  0.00     0.066 C 
HETATM    9  C13 UNL     1      31.655 -32.371  -0.902  1.00  0.00     0.041 C 
HETATM   10  C14 UNL     1      29.907 -30.675  -1.101  1.00  0.00     0.151 C 
ENDROOT
BRANCH   8  11
HETATM   11  N1  UNL     1      32.188 -30.163  -1.866  1.00  0.00    -0.323 N 
HETATM   12  C10 UNL     1      31.723 -29.512  -2.979  1.00  0.00     0.184 A 
HETATM   13  N2  UNL     1      32.729 -28.945  -3.661  1.00  0.00    -0.359 N 
HETATM   14  C11 UNL     1      33.847 -29.234  -2.985  1.00  0.00     0.126 A 
ATOM     15  H2  UNL     1      32.657 -28.404  -4.522  1.00  0.00     0.166 HD
HETATM   16  C12 UNL     1      33.509 -29.983  -1.881  1.00  0.00     0.099 A 
HETATM   17 BR1  UNL     1      34.714 -30.661  -0.578  1.00  0.00    -0.029 Br
ENDBRANCH   8  11
BRANCH  10  18
HETATM   18  O2  UNL     1      29.590 -29.322  -1.157  1.00  0.00    -0.393 OA
ATOM     19  H2  UNL     1      30.235 -28.864  -0.631  1.00  0.00     0.210 HD
ENDBRANCH  10  18
BRANCH   1  20
HETATM   20  O1  UNL     1      32.560 -32.783   1.789  1.00  0.00    -0.390 OA
HETATM   21  C1  UNL     1      32.808 -33.251   3.080  1.00  0.00     0.202 C 
ENDBRANCH   1  20
TORSDOF 3
ENDMDL
MODEL 2
REMARK VINA RESULT: -5.744187773      2.116      2.627
REMARK  3 active torsions:
REMARK  status: ('A' for Active; 'I' for Inactive)
REMARK    1  A    between atoms: O1_2  and  C2_3 
REMARK    2  A    between atoms: C9_10  and  N1_11 
REMARK    3  A    between atoms: C14_19  and  O2_20 
ROOT
HETATM    1  C2  UNL     1      29.761 -33.993   1.681  1.00  0.00     0.129 C 
HETATM    2  C3  UNL     1      29.465 -33.300   0.369  1.00  0.00     0.018 C 
HETATM    3  C4  UNL     1      28.498 -32.181   0.656  1.00  0.00     0.014 C 
HETATM    4  C5  UNL     1      29.204 -31.194   1.557  1.00  0.00     0.018 C 
HETATM    5  C6  UNL     1      29.616 -31.793   2.864  1.00  0.00     0.014 C 
HETATM    6  C7  UNL     1      30.489 -32.991   2.548  1.00  0.00     0.018 C 
HETATM    7  C8  UNL     1      31.692 -32.474   1.839  1.00  0.00     0.041 C 
HETATM    8  C9  UNL     1      31.391 -31.764   0.530  1.00  0.00     0.066 C 
HETATM    9  C13 UNL     1      30.708 -32.822  -0.332  1.00  0.00     0.041 C 
HETATM   10  C14 UNL     1      30.392 -30.670   0.781  1.00  0.00     0.151 C 
ENDROOT
BRANCH   8  11
HETATM   11  N1  UNL     1      32.634 -31.315  -0.000  1.00  0.00    -0.323 N 
HETATM   12  C10 UNL     1      33.861 -31.500   0.582  1.00  0.00     0.184 A 
HETATM   13  N2  UNL     1      34.835 -30.960  -0.166  1.00  0.00    -0.359 N 
HETATM   14  C11 UNL     1      34.231 -30.424  -1.234  1.00  0.00     0.126 A 
ATOM     15  H2  UNL     1      35.834 -30.958   0.038  1.00  0.00     0.166 HD
HETATM   16  C12 UNL     1      32.877 -30.645  -1.126  1.00  0.00     0.099 A 
HETATM   17 BR1  UNL     1      31.553 -30.093  -2.373  1.00  0.00    -0.029 Br
ENDBRANCH   8  11
BRANCH  10  18
HETATM   18  O2  UNL     1      30.957 -29.652   1.543  1.00  0.00    -0.393 OA
ATOM     19  H2  UNL     1      31.229 -30.041   2.366  1.00  0.00     0.210 HD
ENDBRANCH  10  18
BRANCH   1  20
HETATM   20  O1  UNL     1      30.590 -35.069   1.447  1.00  0.00    -0.390 OA
HETATM   21  C1  UNL     1      30.562 -36.002   2.485  1.00  0.00     0.202 C 
ENDBRANCH   1  20
TORSDOF 3
ENDMDL
MODEL 3
REMARK VINA RESULT: -5.636952882      1.368      2.523
REMARK  3 active torsions:
REMARK  status: ('A' for Active; 'I' for Inactive)
REMARK    1  A    between atoms: O1_2  and  C2_3 
REMARK    2  A    between atoms: C9_10  and  N1_11 
REMARK    3  A    between atoms: C14_19  and  O2_20 
ROOT
HETATM    1  C2  UNL     1      30.223 -30.611   1.864  1.00  0.00     0.129 C 
HETATM    2  C3  UNL     1      31.679 -31.018   1.809  1.00  0.00     0.018 C 
HETATM    3  C4  UNL     1      31.726 -32.519   1.677  1.00  0.00     0.014 C 
HETATM    4  C5  UNL     1      31.090 -32.876   0.354  1.00  0.00     0.018 C 
HETATM    5  C6  UNL     1      29.659 -32.450   0.263  1.00  0.00     0.014 C 
HETATM    6  C7  UNL     1      29.623 -30.957   0.520  1.00  0.00     0.018 C 
HETATM    7  C8  UNL     1      30.402 -30.311  -0.573  1.00  0.00     0.041 C 
HETATM    8  C9  UNL     1      31.860 -30.734  -0.637  1.00  0.00     0.066 C 
HETATM    9  C13 UNL     1      32.439 -30.320   0.713  1.00  0.00     0.041 C 
HETATM   10  C14 UNL     1      31.936 -32.232  -0.723  1.00  0.00     0.151 C 
ENDROOT
BRANCH   8  11
HETATM   11  N1  UNL     1      32.447 -30.051  -1.740  1.00  0.00    -0.323 N 
HETATM   12  C10 UNL     1      31.759 -29.429  -2.749  1.00  0.00     0.184 A 
HETATM   13  N2  UNL     1      32.601 -28.878  -3.637  1.00  0.00    -0.359 N 
HETATM   14  C11 UNL     1      33.836 -29.148  -3.198  1.00  0.00     0.126 A 
ATOM     15  H2  UNL     1      32.349 -28.358  -4.478  1.00  0.00     0.166 HD
HETATM   16  C12 UNL     1      33.735 -29.870  -2.030  1.00  0.00     0.099 A 
HETATM   17 BR1  UNL     1      35.187 -30.513  -0.987  1.00  0.00    -0.029 Br
ENDBRANCH   8  11
BRANCH  10  18
HETATM   18  O2  UNL     1      31.447 -32.682  -1.946  1.00  0.00    -0.393 OA
ATOM     19  H2  UNL     1      30.552 -32.965  -1.798  1.00  0.00     0.210 HD
ENDBRANCH  10  18
BRANCH   1  20
HETATM   20  O1  UNL     1      30.140 -29.250   2.054  1.00  0.00    -0.390 OA
HETATM   21  C1  UNL     1      28.917 -28.858   2.600  1.00  0.00     0.202 C 
ENDBRANCH   1  20
TORSDOF 3
ENDMDL
MODEL 4
REMARK VINA RESULT: -5.513818738      2.742      4.171
REMARK  3 active torsions:
REMARK  status: ('A' for Active; 'I' for Inactive)
REMARK    1  A    between atoms: O1_2  and  C2_3 
REMARK    2  A    between atoms: C9_10  and  N1_11 
REMARK    3  A    between atoms: C14_19  and  O2_20 
ROOT
HETATM    1  C2  UNL     1      31.462 -32.615   1.155  1.00  0.00     0.129 C 
HETATM    2  C3  UNL     1      31.558 -31.131   1.431  1.00  0.00     0.018 C 
HETATM    3  C4  UNL     1      32.536 -30.548   0.444  1.00  0.00     0.014 C 
HETATM    4  C5  UNL     1      31.949 -30.731  -0.936  1.00  0.00     0.018 C 
HETATM    5  C6  UNL     1      31.737 -32.168  -1.292  1.00  0.00     0.014 C 
HETATM    6  C7  UNL     1      30.848 -32.764  -0.218  1.00  0.00     0.018 C 
HETATM    7  C8  UNL     1      29.548 -32.042  -0.283  1.00  0.00     0.041 C 
HETATM    8  C9  UNL     1      29.648 -30.548  -0.021  1.00  0.00     0.066 C 
HETATM    9  C13 UNL     1      30.220 -30.443   1.390  1.00  0.00     0.041 C 
HETATM   10  C14 UNL     1      30.653 -29.949  -0.964  1.00  0.00     0.151 C 
ENDROOT
BRANCH   8  11
HETATM   11  N1  UNL     1      28.334 -30.012  -0.143  1.00  0.00    -0.323 N 
HETATM   12  C10 UNL     1      27.238 -30.689  -0.609  1.00  0.00     0.184 A 
HETATM   13  N2  UNL     1      26.149 -29.906  -0.600  1.00  0.00    -0.359 N 
HETATM   14  C11 UNL     1      26.547 -28.718  -0.129  1.00  0.00     0.126 A 
ATOM     15  H2  UNL     1      25.207 -30.164  -0.895  1.00  0.00     0.166 HD
HETATM   16  C12 UNL     1      27.893 -28.789   0.151  1.00  0.00     0.099 A 
HETATM   17 BR1  UNL     1      28.965 -27.382   0.845  1.00  0.00    -0.029 Br
ENDBRANCH   8  11
BRANCH  10  18
HETATM   18  O2  UNL     1      30.185 -29.987  -2.273  1.00  0.00    -0.393 OA
ATOM     19  H2  UNL     1      30.334 -29.125  -2.645  1.00  0.00     0.210 HD
ENDBRANCH  10  18
BRANCH   1  20
HETATM   20  O1  UNL     1      30.628 -33.196   2.085  1.00  0.00    -0.390 OA
HETATM   21  C1  UNL     1      30.830 -34.572   2.200  1.00  0.00     0.202 C 
ENDBRANCH   1  20
TORSDOF 3
ENDMDL
MODEL 5
REMARK VINA RESULT: -5.495369744      1.700      3.466
REMARK  3 active torsions:
REMARK  status: ('A' for Active; 'I' for Inactive)
REMARK    1  A    between atoms: O1_2  and  C2_3 
REMARK    2  A    between atoms: C9_10  and  N1_11 
REMARK    3  A    between atoms: C14_19  and  O2_20 
ROOT
HETATM    1  C2  UNL     1      29.384 -31.892   0.147  1.00  0.00     0.129 C 
HETATM    2  C3  UNL     1      29.932 -30.659   0.832  1.00  0.00     0.018 C 
HETATM    3  C4  UNL     1      30.318 -31.054   2.234  1.00  0.00     0.014 C 
HETATM    4  C5  UNL     1      31.435 -32.066   2.128  1.00  0.00     0.018 C 
HETATM    5  C6  UNL     1      31.029 -33.305   1.397  1.00  0.00     0.014 C 
HETATM    6  C7  UNL     1      30.529 -32.873   0.033  1.00  0.00     0.018 C 
HETATM    7  C8  UNL     1      31.681 -32.240  -0.669  1.00  0.00     0.041 C 
HETATM    8  C9  UNL     1      32.241 -31.011   0.029  1.00  0.00     0.066 C 
HETATM    9  C13 UNL     1      31.072 -30.031   0.076  1.00  0.00     0.041 C 
HETATM   10  C14 UNL     1      32.592 -31.367   1.446  1.00  0.00     0.151 C 
ENDROOT
BRANCH   8  11
HETATM   11  N1  UNL     1      33.339 -30.550  -0.751  1.00  0.00    -0.323 N 
HETATM   12  C10 UNL     1      34.658 -30.613  -0.385  1.00  0.00     0.184 A 
HETATM   13  N2  UNL     1      35.447 -30.095  -1.338  1.00  0.00    -0.359 N 
HETATM   14  C11 UNL     1      34.631 -29.695  -2.321  1.00  0.00     0.126 A 
ATOM     15  H2  UNL     1      36.464 -30.020  -1.317  1.00  0.00     0.166 HD
HETATM   16  C12 UNL     1      33.335 -29.978  -1.955  1.00  0.00     0.099 A 
HETATM   17 BR1  UNL     1      31.780 -29.618  -2.985  1.00  0.00    -0.029 Br
ENDBRANCH   8  11
BRANCH  10  18
HETATM   18  O2  UNL     1      33.672 -32.242   1.482  1.00  0.00    -0.393 OA
ATOM     19  H2  UNL     1      34.081 -32.142   2.334  1.00  0.00     0.210 HD
ENDBRANCH  10  18
BRANCH   1  20
HETATM   20  O1  UNL     1      28.955 -31.555  -1.117  1.00  0.00    -0.390 OA
HETATM   21  C1  UNL     1      27.566 -31.438  -1.199  1.00  0.00     0.202 C 
ENDBRANCH   1  20
TORSDOF 3
ENDMDL
