MODEL 1
REMARK VINA RESULT: -6.013325766      0.000      0.000
REMARK  3 active torsions:
REMARK  status: ('A' for Active; 'I' for Inactive)
REMARK    1  A    between atoms: C3_5  and  C4_6 
REMARK    2  A    between atoms: C4_6  and  C5_7 
REMARK    3  A    between atoms: C5_7  and  C6_8 
ROOT
HETATM    1  C4  UNL     1      36.259  52.935  18.982  1.00  0.00     0.033 C 
ENDROOT
BRANCH   1   2
HETATM    2  C3  UNL     1      35.797  53.719  17.783  1.00  0.00     0.100 C 
HETATM    3  C2  UNL     1      36.009  53.027  16.479  1.00  0.00     0.145 C 
HETATM    4  N1  UNL     1      36.218  54.148  15.558  1.00  0.00    -0.384 N 
HETATM    5  C1  UNL     1      36.517  55.215  16.214  1.00  0.00     0.171 C 
ATOM      6  H1  UNL     1      36.137  54.091  14.543  1.00  0.00     0.160 HD
HETATM    7  N4  UNL     1      36.546  54.948  17.611  1.00  0.00    -0.380 N 
ATOM      8  H4  UNL     1      36.998  55.504  18.337  1.00  0.00     0.160 HD
ENDBRANCH   1   2
BRANCH   1   9
HETATM    9  C5  UNL     1      35.145  52.523  19.882  1.00  0.00     0.061 C 
BRANCH   9  10
HETATM   10  C6  UNL     1      35.282  51.041  20.104  1.00  0.00     0.027 A 
HETATM   11  C7  UNL     1      35.737  50.382  21.224  1.00  0.00     0.045 A 
HETATM   12  C8  UNL     1      35.698  49.017  20.997  1.00  0.00     0.109 A 
HETATM   13  N2  UNL     1      35.217  48.889  19.741  1.00  0.00    -0.312 N 
HETATM   14  N3  UNL     1      34.972  50.075  19.214  1.00  0.00    -0.305 N 
ATOM     15  H2  UNL     1      35.065  47.999  19.267  1.00  0.00     0.186 HD
ATOM     16  H3  UNL     1      34.604  50.236  18.276  1.00  0.00     0.186 HD
ENDBRANCH   9  10
ENDBRANCH   1   9
TORSDOF 3
ENDMDL
MODEL 2
REMARK VINA RESULT: -6.003069379      1.314      5.581
REMARK  3 active torsions:
REMARK  status: ('A' for Active; 'I' for Inactive)
REMARK    1  A    between atoms: C3_5  and  C4_6 
REMARK    2  A    between atoms: C4_6  and  C5_7 
REMARK    3  A    between atoms: C5_7  and  C6_8 
ROOT
HETATM    1  C4  UNL     1      34.648  51.811  18.630  1.00  0.00     0.033 C 
ENDROOT
BRANCH   1   2
HETATM    2  C3  UNL     1      34.230  50.748  19.610  1.00  0.00     0.100 C 
HETATM    3  C2  UNL     1      34.155  51.215  21.025  1.00  0.00     0.145 C 
HETATM    4  N1  UNL     1      34.488  50.001  21.775  1.00  0.00    -0.384 N 
HETATM    5  C1  UNL     1      35.067  49.146  21.006  1.00  0.00     0.171 C 
ATOM      6  H1  UNL     1      34.289  49.854  22.765  1.00  0.00     0.160 HD
HETATM    7  N4  UNL     1      35.191  49.666  19.688  1.00  0.00    -0.380 N 
ATOM      8  H4  UNL     1      35.822  49.345  18.954  1.00  0.00     0.160 HD
ENDBRANCH   1   2
BRANCH   1   9
HETATM    9  C5  UNL     1      35.853  52.573  19.065  1.00  0.00     0.061 C 
BRANCH   9  10
HETATM   10  C6  UNL     1      36.051  53.687  18.073  1.00  0.00     0.027 A 
HETATM   11  C7  UNL     1      37.219  54.329  17.728  1.00  0.00     0.045 A 
HETATM   12  C8  UNL     1      36.945  55.293  16.774  1.00  0.00     0.109 A 
HETATM   13  N2  UNL     1      35.613  55.207  16.567  1.00  0.00    -0.312 N 
HETATM   14  N3  UNL     1      35.084  54.265  17.328  1.00  0.00    -0.305 N 
ATOM     15  H2  UNL     1      35.088  55.789  15.914  1.00  0.00     0.186 HD
ATOM     16  H3  UNL     1      34.096  54.013  17.349  1.00  0.00     0.186 HD
ENDBRANCH   9  10
ENDBRANCH   1   9
TORSDOF 3
ENDMDL
MODEL 3
REMARK VINA RESULT: -5.896903536      0.859      1.261
REMARK  3 active torsions:
REMARK  status: ('A' for Active; 'I' for Inactive)
REMARK    1  A    between atoms: C3_5  and  C4_6 
REMARK    2  A    between atoms: C4_6  and  C5_7 
REMARK    3  A    between atoms: C5_7  and  C6_8 
ROOT
HETATM    1  C4  UNL     1      35.082  53.048  18.225  1.00  0.00     0.033 C 
ENDROOT
BRANCH   1   2
HETATM    2  C3  UNL     1      36.147  53.744  17.420  1.00  0.00     0.100 C 
HETATM    3  C2  UNL     1      37.283  54.268  18.232  1.00  0.00     0.145 C 
HETATM    4  N1  UNL     1      37.706  55.440  17.460  1.00  0.00    -0.384 N 
HETATM    5  C1  UNL     1      36.775  55.799  16.648  1.00  0.00     0.171 C 
ATOM      6  H1  UNL     1      38.610  55.905  17.554  1.00  0.00     0.160 HD
HETATM    7  N4  UNL     1      35.648  54.940  16.771  1.00  0.00    -0.380 N 
ATOM      8  H4  UNL     1      34.692  55.126  16.467  1.00  0.00     0.160 HD
ENDBRANCH   1   2
BRANCH   1   9
HETATM    9  C5  UNL     1      35.478  52.807  19.642  1.00  0.00     0.061 C 
BRANCH   9  10
HETATM   10  C6  UNL     1      35.381  51.325  19.881  1.00  0.00     0.027 A 
HETATM   11  C7  UNL     1      35.670  50.621  21.028  1.00  0.00     0.045 A 
HETATM   12  C8  UNL     1      35.441  49.274  20.807  1.00  0.00     0.109 A 
HETATM   13  N2  UNL     1      35.018  49.200  19.526  1.00  0.00    -0.312 N 
HETATM   14  N3  UNL     1      34.981  50.402  18.979  1.00  0.00    -0.305 N 
ATOM     15  H2  UNL     1      34.763  48.336  19.049  1.00  0.00     0.186 HD
ATOM     16  H3  UNL     1      34.695  50.603  18.020  1.00  0.00     0.186 HD
ENDBRANCH   9  10
ENDBRANCH   1   9
TORSDOF 3
ENDMDL
MODEL 4
REMARK VINA RESULT: -5.888046396      1.102      5.646
REMARK  3 active torsions:
REMARK  status: ('A' for Active; 'I' for Inactive)
REMARK    1  A    between atoms: C3_5  and  C4_6 
REMARK    2  A    between atoms: C4_6  and  C5_7 
REMARK    3  A    between atoms: C5_7  and  C6_8 
ROOT
HETATM    1  C4  UNL     1      35.563  52.042  19.444  1.00  0.00     0.033 C 
ENDROOT
BRANCH   1   2
HETATM    2  C3  UNL     1      35.068  50.885  20.269  1.00  0.00     0.100 C 
HETATM    3  C2  UNL     1      35.990  50.478  21.369  1.00  0.00     0.145 C 
HETATM    4  N1  UNL     1      35.729  49.040  21.482  1.00  0.00    -0.384 N 
HETATM    5  C1  UNL     1      35.146  48.607  20.419  1.00  0.00     0.171 C 
ATOM      6  H1  UNL     1      35.974  48.465  22.289  1.00  0.00     0.160 HD
HETATM    7  N4  UNL     1      34.952  49.667  19.491  1.00  0.00    -0.380 N 
ATOM      8  H4  UNL     1      34.770  49.588  18.491  1.00  0.00     0.160 HD
ENDBRANCH   1   2
BRANCH   1   9
HETATM    9  C5  UNL     1      35.247  51.910  17.993  1.00  0.00     0.061 C 
BRANCH   9  10
HETATM   10  C6  UNL     1      35.706  53.177  17.325  1.00  0.00     0.027 A 
HETATM   11  C7  UNL     1      36.877  53.408  16.639  1.00  0.00     0.045 A 
HETATM   12  C8  UNL     1      36.891  54.717  16.188  1.00  0.00     0.109 A 
HETATM   13  N2  UNL     1      35.724  55.243  16.616  1.00  0.00    -0.312 N 
HETATM   14  N3  UNL     1      35.025  54.343  17.284  1.00  0.00    -0.305 N 
ATOM     15  H2  UNL     1      35.423  56.203  16.447  1.00  0.00     0.186 HD
ATOM     16  H3  UNL     1      34.110  54.503  17.705  1.00  0.00     0.186 HD
ENDBRANCH   9  10
ENDBRANCH   1   9
TORSDOF 3
ENDMDL
MODEL 5
REMARK VINA RESULT: -5.882768052      3.201      4.194
REMARK  3 active torsions:
REMARK  status: ('A' for Active; 'I' for Inactive)
REMARK    1  A    between atoms: C3_5  and  C4_6 
REMARK    2  A    between atoms: C4_6  and  C5_7 
REMARK    3  A    between atoms: C5_7  and  C6_8 
ROOT
HETATM    1  C4  UNL     1      34.134  48.767  19.344  1.00  0.00     0.033 C 
ENDROOT
BRANCH   1   2
HETATM    2  C3  UNL     1      33.985  49.560  18.073  1.00  0.00     0.100 C 
HETATM    3  C2  UNL     1      34.367  48.815  16.839  1.00  0.00     0.145 C 
HETATM    4  N1  UNL     1      34.855  49.885  15.964  1.00  0.00    -0.384 N 
HETATM    5  C1  UNL     1      35.132  50.935  16.656  1.00  0.00     0.171 C 
ATOM      6  H1  UNL     1      34.961  49.808  14.952  1.00  0.00     0.160 HD
HETATM    7  N4  UNL     1      34.872  50.706  18.035  1.00  0.00    -0.380 N 
ATOM      8  H4  UNL     1      35.233  51.235  18.829  1.00  0.00     0.160 HD
ENDBRANCH   1   2
BRANCH   1   9
HETATM    9  C5  UNL     1      32.876  48.688  20.140  1.00  0.00     0.061 C 
BRANCH   9  10
HETATM   10  C6  UNL     1      32.985  49.709  21.240  1.00  0.00     0.027 A 
HETATM   11  C7  UNL     1      32.947  51.081  21.141  1.00  0.00     0.045 A 
HETATM   12  C8  UNL     1      33.084  51.634  22.403  1.00  0.00     0.109 A 
HETATM   13  N2  UNL     1      33.201  50.575  23.233  1.00  0.00    -0.312 N 
HETATM   14  N3  UNL     1      33.143  49.443  22.554  1.00  0.00    -0.305 N 
ATOM     15  H2  UNL     1      33.318  50.640  24.244  1.00  0.00     0.186 HD
ATOM     16  H3  UNL     1      33.209  48.510  22.961  1.00  0.00     0.186 HD
ENDBRANCH   9  10
ENDBRANCH   1   9
TORSDOF 3
ENDMDL
