MODEL 1
REMARK VINA RESULT: -5.749841622      0.000      0.000
REMARK  5 active torsions:
REMARK  status: ('A' for Active; 'I' for Inactive)
REMARK    1  A    between atoms: N1_2  and  C2_5 
REMARK    2  A    between atoms: C2_5  and  C3_6 
REMARK    3  A    between atoms: C3_6  and  N2_7 
REMARK    4  A    between atoms: N2_7  and  C4_9 
REMARK    5  A    between atoms: C7_14  and  N4_15 
ROOT
HETATM    1  C4  UNL     1      36.577  55.402  16.599  1.00  0.00     0.679 A 
HETATM    2  N3  UNL     1      36.680  56.675  16.984  1.00  0.00    -0.202 N 
ATOM      3  H3  UNL     1      35.923  57.091  17.529  1.00  0.00     0.183 HD
HETATM    4  C5  UNL     1      37.768  57.437  16.671  1.00  0.00     0.110 A 
HETATM    5  C6  UNL     1      38.752  56.817  15.934  1.00  0.00     0.066 A 
HETATM    6  C7  UNL     1      38.671  55.509  15.525  1.00  0.00     0.116 A 
HETATM    7  N5  UNL     1      37.552  54.823  15.881  1.00  0.00    -0.177 N 
ATOM      8  H5  UNL     1      37.452  53.849  15.597  1.00  0.00     0.185 HD
ENDROOT
BRANCH   1   9
HETATM    9  N2  UNL     1      35.540  54.735  16.918  1.00  0.00    -0.224 N 
ATOM     10  H2  UNL     1      34.614  55.109  16.711  1.00  0.00     0.177 HD
BRANCH   9  11
HETATM   11  C3  UNL     1      35.665  53.465  17.563  1.00  0.00     0.165 C 
BRANCH  11  12
HETATM   12  C2  UNL     1      36.300  53.629  18.934  1.00  0.00     0.252 C 
BRANCH  12  13
HETATM   13  N1  UNL     1      35.272  53.792  19.946  1.00  0.00    -0.077 N 
HETATM   14  C1  UNL     1      34.736  52.461  20.218  1.00  0.00     0.267 C 
ATOM     15  H12 UNL     1      34.555  54.470  19.687  1.00  0.00     0.276 HD
ATOM     16  H11 UNL     1      35.604  54.271  20.783  1.00  0.00     0.276 HD
ENDBRANCH  12  13
ENDBRANCH  11  12
ENDBRANCH   9  11
ENDBRANCH   1   9
BRANCH   6  17
HETATM   17  N4  UNL     1      39.609  54.955  14.837  1.00  0.00    -0.385 N 
ATOM     18  H42 UNL     1      40.392  55.497  14.472  1.00  0.00     0.157 HD
ATOM     19  H41 UNL     1      39.605  53.956  14.631  1.00  0.00     0.157 HD
ENDBRANCH   6  17
TORSDOF 5
ENDMDL
MODEL 2
REMARK VINA RESULT: -5.646934817      1.399      2.076
REMARK  5 active torsions:
REMARK  status: ('A' for Active; 'I' for Inactive)
REMARK    1  A    between atoms: N1_2  and  C2_5 
REMARK    2  A    between atoms: C2_5  and  C3_6 
REMARK    3  A    between atoms: C3_6  and  N2_7 
REMARK    4  A    between atoms: N2_7  and  C4_9 
REMARK    5  A    between atoms: C7_14  and  N4_15 
ROOT
HETATM    1  C4  UNL     1      36.519  55.321  16.549  1.00  0.00     0.679 A 
HETATM    2  N3  UNL     1      36.604  56.592  16.948  1.00  0.00    -0.202 N 
ATOM      3  H3  UNL     1      35.830  57.000  17.473  1.00  0.00     0.183 HD
HETATM    4  C5  UNL     1      37.698  57.361  16.673  1.00  0.00     0.110 A 
HETATM    5  C6  UNL     1      38.706  56.751  15.962  1.00  0.00     0.066 A 
HETATM    6  C7  UNL     1      38.643  55.446  15.540  1.00  0.00     0.116 A 
HETATM    7  N5  UNL     1      37.517  54.753  15.857  1.00  0.00    -0.177 N 
ATOM      8  H5  UNL     1      37.430  53.780  15.562  1.00  0.00     0.185 HD
ENDROOT
BRANCH   1   9
HETATM    9  N2  UNL     1      35.475  54.647  16.832  1.00  0.00    -0.224 N 
ATOM     10  H2  UNL     1      34.586  54.881  16.390  1.00  0.00     0.177 HD
BRANCH   9  11
HETATM   11  C3  UNL     1      35.542  53.566  17.765  1.00  0.00     0.165 C 
BRANCH  11  12
HETATM   12  C2  UNL     1      34.946  52.306  17.159  1.00  0.00     0.252 C 
BRANCH  12  13
HETATM   13  N1  UNL     1      35.993  51.486  16.577  1.00  0.00    -0.077 N 
HETATM   14  C1  UNL     1      35.645  51.295  15.172  1.00  0.00     0.267 C 
ATOM     15  H12 UNL     1      36.143  50.610  17.078  1.00  0.00     0.276 HD
ATOM     16  H11 UNL     1      36.927  51.871  16.712  1.00  0.00     0.276 HD
ENDBRANCH  12  13
ENDBRANCH  11  12
ENDBRANCH   9  11
ENDBRANCH   1   9
BRANCH   6  17
HETATM   17  N4  UNL     1      39.604  54.902  14.875  1.00  0.00    -0.385 N 
ATOM     18  H42 UNL     1      39.554  54.790  13.862  1.00  0.00     0.157 HD
ATOM     19  H41 UNL     1      40.449  54.563  15.335  1.00  0.00     0.157 HD
ENDBRANCH   6  17
TORSDOF 5
ENDMDL
MODEL 3
REMARK VINA RESULT: -5.590358553      1.076      1.240
REMARK  5 active torsions:
REMARK  status: ('A' for Active; 'I' for Inactive)
REMARK    1  A    between atoms: N1_2  and  C2_5 
REMARK    2  A    between atoms: C2_5  and  C3_6 
REMARK    3  A    between atoms: C3_6  and  N2_7 
REMARK    4  A    between atoms: N2_7  and  C4_9 
REMARK    5  A    between atoms: C7_14  and  N4_15 
ROOT
HETATM    1  C4  UNL     1      36.521  55.303  16.566  1.00  0.00     0.679 A 
HETATM    2  N3  UNL     1      36.619  56.563  16.996  1.00  0.00    -0.202 N 
ATOM      3  H3  UNL     1      35.853  56.962  17.538  1.00  0.00     0.183 HD
HETATM    4  C5  UNL     1      37.715  57.332  16.728  1.00  0.00     0.110 A 
HETATM    5  C6  UNL     1      38.712  56.733  15.991  1.00  0.00     0.066 A 
HETATM    6  C7  UNL     1      38.636  55.440  15.538  1.00  0.00     0.116 A 
HETATM    7  N5  UNL     1      37.509  54.746  15.849  1.00  0.00    -0.177 N 
ATOM      8  H5  UNL     1      37.412  53.781  15.531  1.00  0.00     0.185 HD
ENDROOT
BRANCH   1   9
HETATM    9  N2  UNL     1      35.476  54.629  16.843  1.00  0.00    -0.224 N 
ATOM     10  H2  UNL     1      34.595  54.846  16.376  1.00  0.00     0.177 HD
BRANCH   9  11
HETATM   11  C3  UNL     1      35.530  53.571  17.803  1.00  0.00     0.165 C 
BRANCH  11  12
HETATM   12  C2  UNL     1      34.985  52.285  17.204  1.00  0.00     0.252 C 
BRANCH  12  13
HETATM   13  N1  UNL     1      35.211  51.175  18.111  1.00  0.00    -0.077 N 
HETATM   14  C1  UNL     1      35.372  51.749  19.445  1.00  0.00     0.267 C 
ATOM     15  H12 UNL     1      35.991  50.579  17.833  1.00  0.00     0.276 HD
ATOM     16  H11 UNL     1      34.483  50.462  18.065  1.00  0.00     0.276 HD
ENDBRANCH  12  13
ENDBRANCH  11  12
ENDBRANCH   9  11
ENDBRANCH   1   9
BRANCH   6  17
HETATM   17  N4  UNL     1      39.586  54.907  14.850  1.00  0.00    -0.385 N 
ATOM     18  H42 UNL     1      40.418  54.523  15.298  1.00  0.00     0.157 HD
ATOM     19  H41 UNL     1      39.543  54.847  13.832  1.00  0.00     0.157 HD
ENDBRANCH   6  17
TORSDOF 5
ENDMDL
MODEL 4
REMARK VINA RESULT: -5.572157313      2.905      7.253
REMARK  5 active torsions:
REMARK  status: ('A' for Active; 'I' for Inactive)
REMARK    1  A    between atoms: N1_2  and  C2_5 
REMARK    2  A    between atoms: C2_5  and  C3_6 
REMARK    3  A    between atoms: C3_6  and  N2_7 
REMARK    4  A    between atoms: N2_7  and  C4_9 
REMARK    5  A    between atoms: C7_14  and  N4_15 
ROOT
HETATM    1  C4  UNL     1      35.016  50.790  19.878  1.00  0.00     0.679 A 
HETATM    2  N3  UNL     1      34.767  49.621  19.284  1.00  0.00    -0.202 N 
ATOM      3  H3  UNL     1      35.173  49.434  18.368  1.00  0.00     0.183 HD
HETATM    4  C5  UNL     1      33.982  48.669  19.870  1.00  0.00     0.110 A 
HETATM    5  C6  UNL     1      33.464  48.985  21.105  1.00  0.00     0.066 A 
HETATM    6  C7  UNL     1      33.706  50.179  21.737  1.00  0.00     0.116 A 
HETATM    7  N5  UNL     1      34.498  51.070  21.083  1.00  0.00    -0.177 N 
ATOM      8  H5  UNL     1      34.702  51.970  21.518  1.00  0.00     0.185 HD
ENDROOT
BRANCH   1   9
HETATM    9  N2  UNL     1      35.755  51.643  19.288  1.00  0.00    -0.224 N 
ATOM     10  H2  UNL     1      36.696  51.382  18.995  1.00  0.00     0.177 HD
BRANCH   9  11
HETATM   11  C3  UNL     1      35.273  52.966  19.034  1.00  0.00     0.165 C 
BRANCH  11  12
HETATM   12  C2  UNL     1      34.982  53.148  17.553  1.00  0.00     0.252 C 
BRANCH  12  13
HETATM   13  N1  UNL     1      35.334  54.493  17.136  1.00  0.00    -0.077 N 
HETATM   14  C1  UNL     1      36.534  54.377  16.312  1.00  0.00     0.267 C 
ATOM     15  H12 UNL     1      35.443  55.141  17.916  1.00  0.00     0.276 HD
ATOM     16  H11 UNL     1      34.571  54.982  16.669  1.00  0.00     0.276 HD
ENDBRANCH  12  13
ENDBRANCH  11  12
ENDBRANCH   9  11
ENDBRANCH   1   9
BRANCH   6  17
HETATM   17  N4  UNL     1      33.206  50.446  22.895  1.00  0.00    -0.385 N 
ATOM     18  H42 UNL     1      32.357  49.989  23.227  1.00  0.00     0.157 HD
ATOM     19  H41 UNL     1      33.641  51.122  23.523  1.00  0.00     0.157 HD
ENDBRANCH   6  17
TORSDOF 5
ENDMDL
MODEL 5
REMARK VINA RESULT: -5.533904312      1.462      2.274
REMARK  5 active torsions:
REMARK  status: ('A' for Active; 'I' for Inactive)
REMARK    1  A    between atoms: N1_2  and  C2_5 
REMARK    2  A    between atoms: C2_5  and  C3_6 
REMARK    3  A    between atoms: C3_6  and  N2_7 
REMARK    4  A    between atoms: N2_7  and  C4_9 
REMARK    5  A    between atoms: C7_14  and  N4_15 
ROOT
HETATM    1  C4  UNL     1      36.213  54.820  16.876  1.00  0.00     0.679 A 
HETATM    2  N3  UNL     1      37.410  54.244  16.750  1.00  0.00    -0.202 N 
ATOM      3  H3  UNL     1      37.503  53.246  16.939  1.00  0.00     0.183 HD
HETATM    4  C5  UNL     1      38.515  54.954  16.375  1.00  0.00     0.110 A 
HETATM    5  C6  UNL     1      38.322  56.296  16.136  1.00  0.00     0.066 A 
HETATM    6  C7  UNL     1      37.102  56.912  16.259  1.00  0.00     0.116 A 
HETATM    7  N5  UNL     1      36.055  56.130  16.636  1.00  0.00    -0.177 N 
ATOM      8  H5  UNL     1      35.131  56.549  16.740  1.00  0.00     0.185 HD
ENDROOT
BRANCH   1   9
HETATM    9  N2  UNL     1      35.215  54.112  17.230  1.00  0.00    -0.224 N 
ATOM     10  H2  UNL     1      34.327  54.207  16.738  1.00  0.00     0.177 HD
BRANCH   9  11
HETATM   11  C3  UNL     1      35.332  53.184  18.311  1.00  0.00     0.165 C 
BRANCH  11  12
HETATM   12  C2  UNL     1      34.733  51.841  17.924  1.00  0.00     0.252 C 
BRANCH  12  13
HETATM   13  N1  UNL     1      35.128  50.823  18.880  1.00  0.00    -0.077 N 
HETATM   14  C1  UNL     1      35.441  51.516  20.127  1.00  0.00     0.267 C 
ATOM     15  H12 UNL     1      35.889  50.230  18.547  1.00  0.00     0.276 HD
ATOM     16  H11 UNL     1      34.433  50.086  18.993  1.00  0.00     0.276 HD
ENDBRANCH  12  13
ENDBRANCH  11  12
ENDBRANCH   9  11
ENDBRANCH   1   9
BRANCH   6  17
HETATM   17  N4  UNL     1      36.952  58.171  16.027  1.00  0.00    -0.385 N 
ATOM     18  H42 UNL     1      37.585  58.864  16.426  1.00  0.00     0.157 HD
ATOM     19  H41 UNL     1      36.198  58.522  15.437  1.00  0.00     0.157 HD
ENDBRANCH   6  17
TORSDOF 5
ENDMDL
