MODEL 1
REMARK VINA RESULT: -5.379648609      0.000      0.000
REMARK  4 active torsions:
REMARK  status: ('A' for Active; 'I' for Inactive)
REMARK    1  A    between atoms: N1_2  and  C3_4 
REMARK    2  A    between atoms: C3_4  and  C4_5 
REMARK    3  A    between atoms: C4_5  and  C5_6 
REMARK    4  A    between atoms: C8_13  and  N4_14 
ROOT
HETATM    1  C5  UNL     1      34.859  52.389  18.233  1.00  0.00     0.003 A 
HETATM    2  C6  UNL     1      35.001  52.110  16.892  1.00  0.00     0.099 A 
HETATM    3  N2  UNL     1      35.678  52.989  16.095  1.00  0.00    -0.361 N 
ATOM      4  H2  UNL     1      35.789  52.790  15.101  1.00  0.00     0.166 HD
HETATM    5  C7  UNL     1      36.198  54.110  16.614  1.00  0.00     0.181 A 
HETATM    6  N3  UNL     1      36.046  54.360  17.925  1.00  0.00    -0.339 N 
ATOM      7  H3  UNL     1      36.449  55.218  18.301  1.00  0.00     0.168 HD
HETATM    8  C8  UNL     1      35.394  53.542  18.767  1.00  0.00     0.107 A 
ENDROOT
BRANCH   1   9
HETATM    9  C4  UNL     1      34.123  51.444  19.102  1.00  0.00     0.074 C 
BRANCH   9  10
HETATM   10  C3  UNL     1      34.154  50.050  18.553  1.00  0.00     0.276 C 
BRANCH  10  11
HETATM   11  N1  UNL     1      34.198  49.076  19.595  1.00  0.00     0.080 N 
HETATM   12  C1  UNL     1      35.196  49.341  20.576  1.00  0.00     0.309 C 
HETATM   13  C2  UNL     1      32.929  48.866  20.222  1.00  0.00     0.309 C 
ENDBRANCH  10  11
ENDBRANCH   9  10
ENDBRANCH   1   9
BRANCH   8  14
HETATM   14  N4  UNL     1      35.258  53.800  20.027  1.00  0.00    -0.385 N 
ATOM     15  H42 UNL     1      34.348  53.929  20.469  1.00  0.00     0.157 HD
ATOM     16  H41 UNL     1      36.080  53.882  20.625  1.00  0.00     0.157 HD
ENDBRANCH   8  14
TORSDOF 4
ENDMDL
MODEL 2
REMARK VINA RESULT: -5.303748320      1.690      2.853
REMARK  4 active torsions:
REMARK  status: ('A' for Active; 'I' for Inactive)
REMARK    1  A    between atoms: N1_2  and  C3_4 
REMARK    2  A    between atoms: C3_4  and  C4_5 
REMARK    3  A    between atoms: C4_5  and  C5_6 
REMARK    4  A    between atoms: C8_13  and  N4_14 
ROOT
HETATM    1  C5  UNL     1      36.442  53.344  17.144  1.00  0.00     0.003 A 
HETATM    2  C6  UNL     1      37.002  53.887  18.278  1.00  0.00     0.099 A 
HETATM    3  N2  UNL     1      37.703  55.055  18.182  1.00  0.00    -0.361 N 
ATOM      4  H2  UNL     1      38.121  55.465  19.017  1.00  0.00     0.166 HD
HETATM    5  C7  UNL     1      37.843  55.665  16.996  1.00  0.00     0.181 A 
HETATM    6  N3  UNL     1      37.287  55.116  15.905  1.00  0.00    -0.339 N 
ATOM      7  H3  UNL     1      37.405  55.594  15.012  1.00  0.00     0.168 HD
HETATM    8  C8  UNL     1      36.586  53.970  15.924  1.00  0.00     0.107 A 
ENDROOT
BRANCH   1   9
HETATM    9  C4  UNL     1      35.684  52.076  17.238  1.00  0.00     0.074 C 
BRANCH   9  10
HETATM   10  C3  UNL     1      34.543  52.184  18.203  1.00  0.00     0.276 C 
BRANCH  10  11
HETATM   11  N1  UNL     1      34.448  51.030  19.037  1.00  0.00     0.080 N 
HETATM   12  C1  UNL     1      35.339  51.060  20.148  1.00  0.00     0.309 C 
HETATM   13  C2  UNL     1      33.113  50.764  19.477  1.00  0.00     0.309 C 
ENDBRANCH  10  11
ENDBRANCH   9  10
ENDBRANCH   1   9
BRANCH   8  14
HETATM   14  N4  UNL     1      36.056  53.456  14.861  1.00  0.00    -0.385 N 
ATOM     15  H42 UNL     1      35.566  52.561  14.867  1.00  0.00     0.157 HD
ATOM     16  H41 UNL     1      36.118  53.946  13.969  1.00  0.00     0.157 HD
ENDBRANCH   8  14
TORSDOF 4
ENDMDL
MODEL 3
REMARK VINA RESULT: -5.240170740      2.025      3.207
REMARK  4 active torsions:
REMARK  status: ('A' for Active; 'I' for Inactive)
REMARK    1  A    between atoms: N1_2  and  C3_4 
REMARK    2  A    between atoms: C3_4  and  C4_5 
REMARK    3  A    between atoms: C4_5  and  C5_6 
REMARK    4  A    between atoms: C8_13  and  N4_14 
ROOT
HETATM    1  C5  UNL     1      36.607  54.068  17.299  1.00  0.00     0.003 A 
HETATM    2  C6  UNL     1      37.737  53.311  17.511  1.00  0.00     0.099 A 
HETATM    3  N2  UNL     1      38.905  53.669  16.901  1.00  0.00    -0.361 N 
ATOM      4  H2  UNL     1      39.747  53.114  17.053  1.00  0.00     0.166 HD
HETATM    5  C7  UNL     1      38.950  54.746  16.104  1.00  0.00     0.181 A 
HETATM    6  N3  UNL     1      37.834  55.469  15.913  1.00  0.00    -0.339 N 
ATOM      7  H3  UNL     1      37.888  56.285  15.303  1.00  0.00     0.168 HD
HETATM    8  C8  UNL     1      36.652  55.176  16.480  1.00  0.00     0.107 A 
ENDROOT
BRANCH   1   9
HETATM    9  C4  UNL     1      35.336  53.684  17.953  1.00  0.00     0.074 C 
BRANCH   9  10
HETATM   10  C3  UNL     1      35.554  53.244  19.369  1.00  0.00     0.276 C 
BRANCH  10  11
HETATM   11  N1  UNL     1      34.832  52.050  19.665  1.00  0.00     0.080 N 
HETATM   12  C1  UNL     1      34.365  51.368  18.506  1.00  0.00     0.309 C 
HETATM   13  C2  UNL     1      35.553  51.152  20.514  1.00  0.00     0.309 C 
ENDBRANCH  10  11
ENDBRANCH   9  10
ENDBRANCH   1   9
BRANCH   8  14
HETATM   14  N4  UNL     1      35.588  55.885  16.284  1.00  0.00    -0.385 N 
ATOM     15  H42 UNL     1      34.746  55.507  15.849  1.00  0.00     0.157 HD
ATOM     16  H41 UNL     1      35.565  56.865  16.566  1.00  0.00     0.157 HD
ENDBRANCH   8  14
TORSDOF 4
ENDMDL
MODEL 4
REMARK VINA RESULT: -5.233921014      2.065      5.420
REMARK  4 active torsions:
REMARK  status: ('A' for Active; 'I' for Inactive)
REMARK    1  A    between atoms: N1_2  and  C3_4 
REMARK    2  A    between atoms: C3_4  and  C4_5 
REMARK    3  A    between atoms: C4_5  and  C5_6 
REMARK    4  A    between atoms: C8_13  and  N4_14 
ROOT
HETATM    1  C5  UNL     1      36.240  53.203  17.994  1.00  0.00     0.003 A 
HETATM    2  C6  UNL     1      36.263  52.260  16.991  1.00  0.00     0.099 A 
HETATM    3  N2  UNL     1      35.412  51.194  17.057  1.00  0.00    -0.361 N 
ATOM      4  H2  UNL     1      35.422  50.491  16.318  1.00  0.00     0.166 HD
HETATM    5  C7  UNL     1      34.564  51.068  18.088  1.00  0.00     0.181 A 
HETATM    6  N3  UNL     1      34.560  52.000  19.053  1.00  0.00    -0.339 N 
ATOM      7  H3  UNL     1      33.908  51.887  19.830  1.00  0.00     0.168 HD
HETATM    8  C8  UNL     1      35.368  53.073  19.054  1.00  0.00     0.107 A 
ENDROOT
BRANCH   1   9
HETATM    9  C4  UNL     1      37.162  54.358  17.932  1.00  0.00     0.074 C 
BRANCH   9  10
HETATM   10  C3  UNL     1      36.810  55.286  16.809  1.00  0.00     0.276 C 
BRANCH  10  11
HETATM   11  N1  UNL     1      37.716  56.386  16.733  1.00  0.00     0.080 N 
HETATM   12  C1  UNL     1      38.848  56.130  15.907  1.00  0.00     0.309 C 
HETATM   13  C2  UNL     1      37.084  57.609  16.343  1.00  0.00     0.309 C 
ENDBRANCH  10  11
ENDBRANCH   9  10
ENDBRANCH   1   9
BRANCH   8  14
HETATM   14  N4  UNL     1      35.349  53.962  19.994  1.00  0.00    -0.385 N 
ATOM     15  H42 UNL     1      36.102  54.060  20.676  1.00  0.00     0.157 HD
ATOM     16  H41 UNL     1      34.560  54.603  20.078  1.00  0.00     0.157 HD
ENDBRANCH   8  14
TORSDOF 4
ENDMDL
MODEL 5
REMARK VINA RESULT: -5.229543054      1.531      4.612
REMARK  4 active torsions:
REMARK  status: ('A' for Active; 'I' for Inactive)
REMARK    1  A    between atoms: N1_2  and  C3_4 
REMARK    2  A    between atoms: C3_4  and  C4_5 
REMARK    3  A    between atoms: C4_5  and  C5_6 
REMARK    4  A    between atoms: C8_13  and  N4_14 
ROOT
HETATM    1  C5  UNL     1      35.124  52.534  18.248  1.00  0.00     0.003 A 
HETATM    2  C6  UNL     1      34.924  51.261  17.762  1.00  0.00     0.099 A 
HETATM    3  N2  UNL     1      34.773  50.227  18.640  1.00  0.00    -0.361 N 
ATOM      4  H2  UNL     1      34.624  49.281  18.289  1.00  0.00     0.166 HD
HETATM    5  C7  UNL     1      34.820  50.449  19.962  1.00  0.00     0.181 A 
HETATM    6  N3  UNL     1      35.017  51.699  20.412  1.00  0.00    -0.339 N 
ATOM      7  H3  UNL     1      35.050  51.848  21.420  1.00  0.00     0.168 HD
HETATM    8  C8  UNL     1      35.173  52.763  19.607  1.00  0.00     0.107 A 
ENDROOT
BRANCH   1   9
HETATM    9  C4  UNL     1      35.293  53.659  17.303  1.00  0.00     0.074 C 
BRANCH   9  10
HETATM   10  C3  UNL     1      36.313  53.349  16.250  1.00  0.00     0.276 C 
BRANCH  10  11
HETATM   11  N1  UNL     1      37.464  54.184  16.370  1.00  0.00     0.080 N 
HETATM   12  C1  UNL     1      37.155  55.519  16.761  1.00  0.00     0.309 C 
HETATM   13  C2  UNL     1      38.470  53.636  17.226  1.00  0.00     0.309 C 
ENDBRANCH  10  11
ENDBRANCH   9  10
ENDBRANCH   1   9
BRANCH   8  14
HETATM   14  N4  UNL     1      35.360  53.960  20.059  1.00  0.00    -0.385 N 
ATOM     15  H42 UNL     1      35.119  54.796  19.525  1.00  0.00     0.157 HD
ATOM     16  H41 UNL     1      35.765  54.102  20.984  1.00  0.00     0.157 HD
ENDBRANCH   8  14
TORSDOF 4
ENDMDL
