MODEL 1
REMARK VINA RESULT: -5.872644916      0.000      0.000
REMARK  3 active torsions:
REMARK  status: ('A' for Active; 'I' for Inactive)
REMARK    1  A    between atoms: C3_3  and  C4_4 
REMARK    2  A    between atoms: C4_4  and  N1_5 
REMARK    3  A    between atoms: N1_5  and  C5_8 
ROOT
HETATM    1  C1  UNL     1      34.293  48.332  16.915  1.00  0.00     0.012 C 
HETATM    2  C2  UNL     1      34.643  49.379  16.422  1.00  0.00    -0.116 C 
HETATM    3  C3  UNL     1      35.082  50.620  15.801  1.00  0.00     0.120 C 
ENDROOT
BRANCH   3   4
HETATM    4  C4  UNL     1      35.064  51.722  16.833  1.00  0.00     0.245 C 
BRANCH   4   5
HETATM    5  N1  UNL     1      36.425  52.086  17.130  1.00  0.00    -0.067 N 
ATOM      6  H12 UNL     1      36.755  51.621  17.976  1.00  0.00     0.277 HD
ATOM      7  H11 UNL     1      37.072  51.677  16.457  1.00  0.00     0.277 HD
BRANCH   5   8
HETATM    8  C5  UNL     1      36.599  53.521  17.220  1.00  0.00     0.236 C 
HETATM    9  C6  UNL     1      36.397  54.275  15.957  1.00  0.00     0.267 C 
HETATM   10  N2  UNL     1      35.814  55.577  16.267  1.00  0.00    -0.072 N 
HETATM   11  C7  UNL     1      36.781  56.615  16.479  1.00  0.00     0.259 C 
ATOM     12  H22 UNL     1      35.147  55.851  15.545  1.00  0.00     0.277 HD
ATOM     13  H21 UNL     1      35.184  55.506  17.066  1.00  0.00     0.277 HD
HETATM   14  C8  UNL     1      38.068  56.165  17.086  1.00  0.00     0.259 C 
HETATM   15  N3  UNL     1      37.870  55.274  18.218  1.00  0.00    -0.072 N 
HETATM   16  C9  UNL     1      37.948  53.888  17.798  1.00  0.00     0.267 C 
ATOM     17  H32 UNL     1      38.520  55.476  18.978  1.00  0.00     0.277 HD
ATOM     18  H31 UNL     1      36.997  55.472  18.707  1.00  0.00     0.277 HD
ENDBRANCH   5   8
ENDBRANCH   4   5
ENDBRANCH   3   4
TORSDOF 3
ENDMDL
MODEL 2
REMARK VINA RESULT: -5.805358970      2.236      2.997
REMARK  3 active torsions:
REMARK  status: ('A' for Active; 'I' for Inactive)
REMARK    1  A    between atoms: C3_3  and  C4_4 
REMARK    2  A    between atoms: C4_4  and  N1_5 
REMARK    3  A    between atoms: N1_5  and  C5_8 
ROOT
HETATM    1  C1  UNL     1      34.350  48.221  16.926  1.00  0.00     0.012 C 
HETATM    2  C2  UNL     1      34.306  48.387  18.123  1.00  0.00    -0.116 C 
HETATM    3  C3  UNL     1      34.229  48.557  19.566  1.00  0.00     0.120 C 
ENDROOT
BRANCH   3   4
HETATM    4  C4  UNL     1      34.673  49.957  19.923  1.00  0.00     0.245 C 
BRANCH   4   5
HETATM    5  N1  UNL     1      33.780  50.891  19.289  1.00  0.00    -0.067 N 
ATOM      6  H12 UNL     1      33.254  50.446  18.536  1.00  0.00     0.277 HD
ATOM      7  H11 UNL     1      33.005  51.137  19.905  1.00  0.00     0.277 HD
BRANCH   5   8
HETATM    8  C5  UNL     1      34.471  52.073  18.817  1.00  0.00     0.236 C 
HETATM    9  C6  UNL     1      35.048  51.981  17.452  1.00  0.00     0.267 C 
HETATM   10  N2  UNL     1      34.968  53.290  16.812  1.00  0.00    -0.072 N 
HETATM   11  C7  UNL     1      36.128  54.110  17.012  1.00  0.00     0.259 C 
ATOM     12  H22 UNL     1      34.768  53.190  15.817  1.00  0.00     0.277 HD
ATOM     13  H21 UNL     1      34.126  53.783  17.109  1.00  0.00     0.277 HD
HETATM   14  C8  UNL     1      36.822  53.915  18.319  1.00  0.00     0.259 C 
HETATM   15  N3  UNL     1      35.899  53.878  19.442  1.00  0.00    -0.072 N 
HETATM   16  C9  UNL     1      35.557  52.509  19.778  1.00  0.00     0.267 C 
ATOM     17  H32 UNL     1      36.262  54.385  20.248  1.00  0.00     0.277 HD
ATOM     18  H31 UNL     1      35.068  54.443  19.267  1.00  0.00     0.277 HD
ENDBRANCH   5   8
ENDBRANCH   4   5
ENDBRANCH   3   4
TORSDOF 3
ENDMDL
MODEL 3
REMARK VINA RESULT: -5.767812474      1.005      1.640
REMARK  3 active torsions:
REMARK  status: ('A' for Active; 'I' for Inactive)
REMARK    1  A    between atoms: C3_3  and  C4_4 
REMARK    2  A    between atoms: C4_4  and  N1_5 
REMARK    3  A    between atoms: N1_5  and  C5_8 
ROOT
HETATM    1  C1  UNL     1      34.310  48.472  16.769  1.00  0.00     0.012 C 
HETATM    2  C2  UNL     1      34.669  49.528  16.303  1.00  0.00    -0.116 C 
HETATM    3  C3  UNL     1      35.114  50.781  15.711  1.00  0.00     0.120 C 
ENDROOT
BRANCH   3   4
HETATM    4  C4  UNL     1      35.250  51.820  16.799  1.00  0.00     0.245 C 
BRANCH   4   5
HETATM    5  N1  UNL     1      36.650  52.097  16.989  1.00  0.00    -0.067 N 
ATOM      6  H12 UNL     1      36.928  51.942  17.959  1.00  0.00     0.277 HD
ATOM      7  H11 UNL     1      37.231  51.389  16.539  1.00  0.00     0.277 HD
BRANCH   5   8
HETATM    8  C5  UNL     1      37.008  53.428  16.548  1.00  0.00     0.236 C 
HETATM    9  C6  UNL     1      38.378  53.879  16.902  1.00  0.00     0.267 C 
HETATM   10  N2  UNL     1      38.889  54.735  15.836  1.00  0.00    -0.072 N 
HETATM   11  C7  UNL     1      38.615  56.130  16.025  1.00  0.00     0.259 C 
ATOM     12  H22 UNL     1      39.889  54.581  15.703  1.00  0.00     0.277 HD
ATOM     13  H21 UNL     1      38.543  54.421  14.929  1.00  0.00     0.277 HD
HETATM   14  C8  UNL     1      37.335  56.433  16.731  1.00  0.00     0.259 C 
HETATM   15  N3  UNL     1      36.218  55.654  16.220  1.00  0.00    -0.072 N 
HETATM   16  C9  UNL     1      36.014  54.465  17.025  1.00  0.00     0.267 C 
ATOM     17  H32 UNL     1      35.368  56.213  16.149  1.00  0.00     0.277 HD
ATOM     18  H31 UNL     1      36.335  55.427  15.233  1.00  0.00     0.277 HD
ENDBRANCH   5   8
ENDBRANCH   4   5
ENDBRANCH   3   4
TORSDOF 3
ENDMDL
MODEL 4
REMARK VINA RESULT: -5.727574862      0.978      1.748
REMARK  3 active torsions:
REMARK  status: ('A' for Active; 'I' for Inactive)
REMARK    1  A    between atoms: C3_3  and  C4_4 
REMARK    2  A    between atoms: C4_4  and  N1_5 
REMARK    3  A    between atoms: N1_5  and  C5_8 
ROOT
HETATM    1  C1  UNL     1      35.784  51.767  13.227  1.00  0.00     0.012 C 
HETATM    2  C2  UNL     1      35.514  51.277  14.299  1.00  0.00    -0.116 C 
HETATM    3  C3  UNL     1      35.174  50.658  15.571  1.00  0.00     0.120 C 
ENDROOT
BRANCH   3   4
HETATM    4  C4  UNL     1      35.134  51.720  16.644  1.00  0.00     0.245 C 
BRANCH   4   5
HETATM    5  N1  UNL     1      36.488  52.095  16.960  1.00  0.00    -0.067 N 
ATOM      6  H12 UNL     1      36.826  51.596  17.783  1.00  0.00     0.277 HD
ATOM      7  H11 UNL     1      37.143  51.731  16.268  1.00  0.00     0.277 HD
BRANCH   5   8
HETATM    8  C5  UNL     1      36.634  53.527  17.118  1.00  0.00     0.236 C 
HETATM    9  C6  UNL     1      36.401  54.338  15.896  1.00  0.00     0.267 C 
HETATM   10  N2  UNL     1      35.797  55.611  16.277  1.00  0.00    -0.072 N 
HETATM   11  C7  UNL     1      36.746  56.657  16.528  1.00  0.00     0.259 C 
ATOM     12  H22 UNL     1      35.116  55.906  15.578  1.00  0.00     0.277 HD
ATOM     13  H21 UNL     1      35.179  55.488  17.080  1.00  0.00     0.277 HD
HETATM   14  C8  UNL     1      38.050  56.204  17.097  1.00  0.00     0.259 C 
HETATM   15  N3  UNL     1      37.884  55.255  18.186  1.00  0.00    -0.072 N 
HETATM   16  C9  UNL     1      37.984  53.893  17.697  1.00  0.00     0.267 C 
ATOM     17  H32 UNL     1      38.540  55.432  18.947  1.00  0.00     0.277 HD
ATOM     18  H31 UNL     1      37.014  55.411  18.694  1.00  0.00     0.277 HD
ENDBRANCH   5   8
ENDBRANCH   4   5
ENDBRANCH   3   4
TORSDOF 3
ENDMDL
MODEL 5
REMARK VINA RESULT: -5.721692723      2.816      2.991
REMARK  3 active torsions:
REMARK  status: ('A' for Active; 'I' for Inactive)
REMARK    1  A    between atoms: C3_3  and  C4_4 
REMARK    2  A    between atoms: C4_4  and  N1_5 
REMARK    3  A    between atoms: N1_5  and  C5_8 
ROOT
HETATM    1  C1  UNL     1      36.697  48.441  21.431  1.00  0.00     0.012 C 
HETATM    2  C2  UNL     1      35.872  49.221  21.014  1.00  0.00    -0.116 C 
HETATM    3  C3  UNL     1      34.858  50.129  20.499  1.00  0.00     0.120 C 
ENDROOT
BRANCH   3   4
HETATM    4  C4  UNL     1      35.477  51.490  20.286  1.00  0.00     0.245 C 
BRANCH   4   5
HETATM    5  N1  UNL     1      34.710  52.185  19.286  1.00  0.00    -0.067 N 
ATOM      6  H12 UNL     1      34.386  51.547  18.559  1.00  0.00     0.277 HD
ATOM      7  H11 UNL     1      33.806  52.484  19.654  1.00  0.00     0.277 HD
BRANCH   5   8
HETATM    8  C5  UNL     1      35.438  53.300  18.716  1.00  0.00     0.236 C 
HETATM    9  C6  UNL     1      35.419  53.394  17.235  1.00  0.00     0.267 C 
HETATM   10  N2  UNL     1      35.425  54.801  16.846  1.00  0.00    -0.072 N 
HETATM   11  C7  UNL     1      36.737  55.347  16.648  1.00  0.00     0.259 C 
ATOM     12  H22 UNL     1      34.848  54.946  16.018  1.00  0.00     0.277 HD
ATOM     13  H21 UNL     1      34.903  55.361  17.521  1.00  0.00     0.277 HD
HETATM   14  C8  UNL     1      37.801  54.767  17.519  1.00  0.00     0.259 C 
HETATM   15  N3  UNL     1      37.388  54.660  18.909  1.00  0.00    -0.072 N 
HETATM   16  C9  UNL     1      36.876  53.332  19.189  1.00  0.00     0.267 C 
ATOM     17  H32 UNL     1      38.139  54.918  19.549  1.00  0.00     0.277 HD
ATOM     18  H31 UNL     1      36.716  55.385  19.161  1.00  0.00     0.277 HD
ENDBRANCH   5   8
ENDBRANCH   4   5
ENDBRANCH   3   4
TORSDOF 3
ENDMDL
