MODEL 1
REMARK VINA RESULT: -8.584022318      0.000      0.000
REMARK  6 active torsions:
REMARK  status: ('A' for Active; 'I' for Inactive)
REMARK    1  A    between atoms: N1_5  and  S1_6 
REMARK    2  A    between atoms: S1_6  and  C5_9 
REMARK    3  A    between atoms: C5_9  and  C6_10 
REMARK    4  A    between atoms: C9_13  and  N2_14 
REMARK       I    between atoms: N2_14  and  C10_16 
REMARK       I    between atoms: C10_16  and  N3_18 
REMARK    5  A    between atoms: N3_18  and  C11_20 
REMARK    6  A    between atoms: N4_25  and  O4_26 
ROOT
HETATM    1  N2  UNL     1      22.394   5.485  32.228  1.00  0.00    -0.339 N 
ATOM      2  H2  UNL     1      21.858   5.046  32.976  1.00  0.00     0.164 HD
HETATM    3  C10 UNL     1      23.613   4.921  31.786  1.00  0.00     0.316 C 
HETATM    4  O3  UNL     1      24.278   5.447  30.874  1.00  0.00    -0.247 OA
HETATM    5  N3  UNL     1      24.087   3.735  32.392  1.00  0.00    -0.338 N 
ATOM      6  H3  UNL     1      23.555   3.290  33.141  1.00  0.00     0.164 HD
ENDROOT
BRANCH   1   7
HETATM    7  C9  UNL     1      21.923   6.700  31.594  1.00  0.00     0.086 C 
HETATM    8  C8  UNL     1      22.865   7.817  31.950  1.00  0.00     0.026 C 
HETATM    9  C7  UNL     1      22.358   8.616  33.142  1.00  0.00     0.007 C 
HETATM   10  C6  UNL     1      21.090   9.325  32.859  1.00  0.00     0.001 C 
HETATM   11  C21 UNL     1      20.197   8.414  32.021  1.00  0.00     0.007 C 
HETATM   12  C20 UNL     1      20.556   6.978  32.239  1.00  0.00     0.026 C 
BRANCH  10  13
HETATM   13  C5  UNL     1      21.149  10.659  32.225  1.00  0.00     0.162 C 
BRANCH  13  14
HETATM   14  S1  UNL     1      20.633  11.993  33.233  1.00  0.00     0.211 S 
HETATM   15  O1  UNL     1      21.284  13.266  32.737  1.00  0.00    -0.211 OA
HETATM   16  O2  UNL     1      20.927  11.714  34.660  1.00  0.00    -0.211 OA
BRANCH  14  17
HETATM   17  N1  UNL     1      18.923  12.269  33.084  1.00  0.00    -0.211 NA
HETATM   18  C4  UNL     1      18.657  13.614  32.696  1.00  0.00     0.107 C 
HETATM   19  C3  UNL     1      17.582  14.271  33.513  1.00  0.00     0.020 C 
HETATM   20  C2  UNL     1      17.957  14.246  34.984  1.00  0.00    -0.016 C 
HETATM   21  C1  UNL     1      16.723  14.723  35.750  1.00  0.00     0.010 C 
HETATM   22  C23 UNL     1      18.242  12.840  35.392  1.00  0.00     0.020 C 
HETATM   23  C22 UNL     1      18.184  11.871  34.233  1.00  0.00     0.107 C 
ENDBRANCH  14  17
ENDBRANCH  13  14
ENDBRANCH  10  13
ENDBRANCH   1   7
BRANCH   5  24
HETATM   24  C11 UNL     1      25.325   3.162  31.941  1.00  0.00     0.091 C 
HETATM   25  C12 UNL     1      25.734   1.959  32.768  1.00  0.00     0.057 C 
HETATM   26  C13 UNL     1      26.792   1.237  31.968  1.00  0.00     0.049 C 
HETATM   27  C14 UNL     1      26.089   0.131  31.208  1.00  0.00     0.040 C 
HETATM   28  C15 UNL     1      27.785   0.579  32.903  1.00  0.00     0.040 C 
HETATM   29  N4  UNL     1      27.472   2.070  31.031  1.00  0.00    -0.278 N 
HETATM   30  C16 UNL     1      27.675   3.418  31.414  1.00  0.00     0.049 C 
HETATM   31  C17 UNL     1      28.854   3.567  32.382  1.00  0.00     0.040 C 
HETATM   32  C18 UNL     1      28.089   4.214  30.168  1.00  0.00     0.040 C 
HETATM   33  C19 UNL     1      26.491   4.125  32.006  1.00  0.00     0.057 C 
BRANCH  29  34
HETATM   34  O4  UNL     1      27.219   1.846  29.753  1.00  0.00    -0.291 OA
ATOM     35  H4  UNL     1      27.733   1.167  29.332  1.00  0.00     0.244 HD
ENDBRANCH  29  34
ENDBRANCH   5  24
TORSDOF 6
ENDMDL
MODEL 2
REMARK VINA RESULT: -8.373920630      7.793      9.532
REMARK  6 active torsions:
REMARK  status: ('A' for Active; 'I' for Inactive)
REMARK    1  A    between atoms: N1_5  and  S1_6 
REMARK    2  A    between atoms: S1_6  and  C5_9 
REMARK    3  A    between atoms: C5_9  and  C6_10 
REMARK    4  A    between atoms: C9_13  and  N2_14 
REMARK       I    between atoms: N2_14  and  C10_16 
REMARK       I    between atoms: C10_16  and  N3_18 
REMARK    5  A    between atoms: N3_18  and  C11_20 
REMARK    6  A    between atoms: N4_25  and  O4_26 
ROOT
HETATM    1  N2  UNL     1      26.252  12.506  28.976  1.00  0.00    -0.339 N 
ATOM      2  H2  UNL     1      26.530  13.069  29.779  1.00  0.00     0.164 HD
HETATM    3  C10 UNL     1      26.772  12.777  27.689  1.00  0.00     0.316 C 
HETATM    4  O3  UNL     1      26.441  12.097  26.700  1.00  0.00    -0.247 OA
HETATM    5  N3  UNL     1      27.690  13.840  27.523  1.00  0.00    -0.338 N 
ATOM      6  H3  UNL     1      27.972  14.407  28.323  1.00  0.00     0.164 HD
ENDROOT
BRANCH   1   7
HETATM    7  C9  UNL     1      25.315  11.411  29.128  1.00  0.00     0.086 C 
HETATM    8  C8  UNL     1      23.923  11.980  29.171  1.00  0.00     0.026 C 
HETATM    9  C7  UNL     1      23.443  12.175  30.601  1.00  0.00     0.007 C 
HETATM   10  C6  UNL     1      23.306  10.900  31.338  1.00  0.00     0.001 C 
HETATM   11  C21 UNL     1      24.473   9.990  30.964  1.00  0.00     0.007 C 
HETATM   12  C20 UNL     1      25.642  10.798  30.499  1.00  0.00     0.026 C 
BRANCH  10  13
HETATM   13  C5  UNL     1      22.043  10.141  31.214  1.00  0.00     0.162 C 
BRANCH  13  14
HETATM   14  S1  UNL     1      21.261   9.732  32.725  1.00  0.00     0.211 S 
HETATM   15  O1  UNL     1      22.060   8.648  33.417  1.00  0.00    -0.211 OA
HETATM   16  O2  UNL     1      19.847   9.345  32.494  1.00  0.00    -0.211 OA
BRANCH  14  17
HETATM   17  N1  UNL     1      21.274  11.078  33.825  1.00  0.00    -0.211 NA
HETATM   18  C4  UNL     1      20.475  10.804  34.973  1.00  0.00     0.107 C 
HETATM   19  C3  UNL     1      19.545  11.926  35.337  1.00  0.00     0.020 C 
HETATM   20  C2  UNL     1      18.634  12.247  34.165  1.00  0.00    -0.016 C 
HETATM   21  C1  UNL     1      17.890  13.529  34.539  1.00  0.00     0.010 C 
HETATM   22  C23 UNL     1      19.467  12.528  32.960  1.00  0.00     0.020 C 
HETATM   23  C22 UNL     1      20.943  12.315  33.207  1.00  0.00     0.107 C 
ENDBRANCH  14  17
ENDBRANCH  13  14
ENDBRANCH  10  13
ENDBRANCH   1   7
BRANCH   5  24
HETATM   24  C11 UNL     1      28.219  14.112  26.215  1.00  0.00     0.091 C 
HETATM   25  C12 UNL     1      29.730  14.000  26.175  1.00  0.00     0.057 C 
HETATM   26  C13 UNL     1      30.108  13.912  24.715  1.00  0.00     0.049 C 
HETATM   27  C14 UNL     1      30.264  12.439  24.391  1.00  0.00     0.040 C 
HETATM   28  C15 UNL     1      31.454  14.567  24.491  1.00  0.00     0.040 C 
HETATM   29  N4  UNL     1      29.134  14.469  23.835  1.00  0.00    -0.278 N 
HETATM   30  C16 UNL     1      28.422  15.595  24.312  1.00  0.00     0.049 C 
HETATM   31  C17 UNL     1      29.244  16.884  24.196  1.00  0.00     0.040 C 
HETATM   32  C18 UNL     1      27.211  15.822  23.396  1.00  0.00     0.040 C 
HETATM   33  C19 UNL     1      27.894  15.503  25.713  1.00  0.00     0.057 C 
BRANCH  29  34
HETATM   34  O4  UNL     1      28.461  13.613  23.085  1.00  0.00    -0.291 OA
ATOM     35  H4  UNL     1      28.788  13.475  22.204  1.00  0.00     0.244 HD
ENDBRANCH  29  34
ENDBRANCH   5  24
TORSDOF 6
ENDMDL
MODEL 3
REMARK VINA RESULT: -8.372108306      7.226      8.834
REMARK  6 active torsions:
REMARK  status: ('A' for Active; 'I' for Inactive)
REMARK    1  A    between atoms: N1_5  and  S1_6 
REMARK    2  A    between atoms: S1_6  and  C5_9 
REMARK    3  A    between atoms: C5_9  and  C6_10 
REMARK    4  A    between atoms: C9_13  and  N2_14 
REMARK       I    between atoms: N2_14  and  C10_16 
REMARK       I    between atoms: C10_16  and  N3_18 
REMARK    5  A    between atoms: N3_18  and  C11_20 
REMARK    6  A    between atoms: N4_25  and  O4_26 
ROOT
HETATM    1  N2  UNL     1      25.563  12.874  29.210  1.00  0.00    -0.339 N 
ATOM      2  H2  UNL     1      25.754  13.652  29.843  1.00  0.00     0.164 HD
HETATM    3  C10 UNL     1      26.202  12.795  27.951  1.00  0.00     0.316 C 
HETATM    4  O3  UNL     1      25.978  11.853  27.169  1.00  0.00    -0.247 OA
HETATM    5  N3  UNL     1      27.115  13.807  27.574  1.00  0.00    -0.338 N 
ATOM      6  H3  UNL     1      27.310  14.587  28.201  1.00  0.00     0.164 HD
ENDROOT
BRANCH   1   7
HETATM    7  C9  UNL     1      24.633  11.828  29.582  1.00  0.00     0.086 C 
HETATM    8  C8  UNL     1      23.285  12.453  29.818  1.00  0.00     0.026 C 
HETATM    9  C7  UNL     1      23.056  12.747  31.293  1.00  0.00     0.007 C 
HETATM   10  C6  UNL     1      23.006  11.521  32.120  1.00  0.00     0.001 C 
HETATM   11  C21 UNL     1      24.066  10.546  31.616  1.00  0.00     0.007 C 
HETATM   12  C20 UNL     1      25.166  11.280  30.915  1.00  0.00     0.026 C 
BRANCH  10  13
HETATM   13  C5  UNL     1      21.718  10.807  32.253  1.00  0.00     0.162 C 
BRANCH  13  14
HETATM   14  S1  UNL     1      20.727  11.292  33.611  1.00  0.00     0.211 S 
HETATM   15  O1  UNL     1      21.389  12.456  34.314  1.00  0.00    -0.211 OA
HETATM   16  O2  UNL     1      20.477  10.141  34.513  1.00  0.00    -0.211 OA
BRANCH  14  17
HETATM   17  N1  UNL     1      19.186  11.899  33.080  1.00  0.00    -0.211 NA
HETATM   18  C4  UNL     1      19.284  13.267  32.696  1.00  0.00     0.107 C 
HETATM   19  C3  UNL     1      18.195  14.129  33.266  1.00  0.00     0.020 C 
HETATM   20  C2  UNL     1      18.200  14.039  34.782  1.00  0.00    -0.016 C 
HETATM   21  C1  UNL     1      16.936  14.754  35.259  1.00  0.00     0.010 C 
HETATM   22  C23 UNL     1      18.104  12.606  35.188  1.00  0.00     0.020 C 
HETATM   23  C22 UNL     1      18.135  11.661  34.009  1.00  0.00     0.107 C 
ENDBRANCH  14  17
ENDBRANCH  13  14
ENDBRANCH  10  13
ENDBRANCH   1   7
BRANCH   5  24
HETATM   24  C11 UNL     1      27.764  13.724  26.294  1.00  0.00     0.091 C 
HETATM   25  C12 UNL     1      29.106  13.023  26.378  1.00  0.00     0.057 C 
HETATM   26  C13 UNL     1      29.480  12.655  24.962  1.00  0.00     0.049 C 
HETATM   27  C14 UNL     1      29.049  11.217  24.754  1.00  0.00     0.040 C 
HETATM   28  C15 UNL     1      30.984  12.704  24.797  1.00  0.00     0.040 C 
HETATM   29  N4  UNL     1      28.847  13.465  23.972  1.00  0.00    -0.278 N 
HETATM   30  C16 UNL     1      28.623  14.821  24.313  1.00  0.00     0.049 C 
HETATM   31  C17 UNL     1      29.895  15.664  24.172  1.00  0.00     0.040 C 
HETATM   32  C18 UNL     1      27.644  15.417  23.293  1.00  0.00     0.040 C 
HETATM   33  C19 UNL     1      28.042  15.076  25.673  1.00  0.00     0.057 C 
BRANCH  29  34
HETATM   34  O4  UNL     1      27.921  12.876  23.234  1.00  0.00    -0.291 OA
ATOM     35  H4  UNL     1      28.208  12.520  22.401  1.00  0.00     0.244 HD
ENDBRANCH  29  34
ENDBRANCH   5  24
TORSDOF 6
ENDMDL
MODEL 4
REMARK VINA RESULT: -8.358179016      7.924     10.350
REMARK  6 active torsions:
REMARK  status: ('A' for Active; 'I' for Inactive)
REMARK    1  A    between atoms: N1_5  and  S1_6 
REMARK    2  A    between atoms: S1_6  and  C5_9 
REMARK    3  A    between atoms: C5_9  and  C6_10 
REMARK    4  A    between atoms: C9_13  and  N2_14 
REMARK       I    between atoms: N2_14  and  C10_16 
REMARK       I    between atoms: C10_16  and  N3_18 
REMARK    5  A    between atoms: N3_18  and  C11_20 
REMARK    6  A    between atoms: N4_25  and  O4_26 
ROOT
HETATM    1  N2  UNL     1      26.408  12.854  28.813  1.00  0.00    -0.339 N 
ATOM      2  H2  UNL     1      26.970  13.169  29.604  1.00  0.00     0.164 HD
HETATM    3  C10 UNL     1      26.503  13.498  27.558  1.00  0.00     0.316 C 
HETATM    4  O3  UNL     1      25.822  13.124  26.585  1.00  0.00    -0.247 OA
HETATM    5  N3  UNL     1      27.390  14.588  27.405  1.00  0.00    -0.338 N 
ATOM      6  H3  UNL     1      27.955  14.908  28.191  1.00  0.00     0.164 HD
ENDROOT
BRANCH   1   7
HETATM    7  C9  UNL     1      25.495  11.737  28.952  1.00  0.00     0.086 C 
HETATM    8  C8  UNL     1      24.092  12.276  29.014  1.00  0.00     0.026 C 
HETATM    9  C7  UNL     1      23.618  12.435  30.451  1.00  0.00     0.007 C 
HETATM   10  C6  UNL     1      23.513  11.144  31.166  1.00  0.00     0.001 C 
HETATM   11  C21 UNL     1      24.696  10.266  30.768  1.00  0.00     0.007 C 
HETATM   12  C20 UNL     1      25.845  11.107  30.309  1.00  0.00     0.026 C 
BRANCH  10  13
HETATM   13  C5  UNL     1      22.266  10.360  31.037  1.00  0.00     0.162 C 
BRANCH  13  14
HETATM   14  S1  UNL     1      21.545   9.841  32.544  1.00  0.00     0.211 S 
HETATM   15  O1  UNL     1      22.457   8.829  33.204  1.00  0.00    -0.211 OA
HETATM   16  O2  UNL     1      20.176   9.319  32.317  1.00  0.00    -0.211 OA
BRANCH  14  17
HETATM   17  N1  UNL     1      21.434  11.157  33.675  1.00  0.00    -0.211 NA
HETATM   18  C4  UNL     1      20.500  10.861  34.709  1.00  0.00     0.107 C 
HETATM   19  C3  UNL     1      19.541  11.982  34.989  1.00  0.00     0.020 C 
HETATM   20  C2  UNL     1      18.781  12.344  33.725  1.00  0.00    -0.016 C 
HETATM   21  C1  UNL     1      18.006  13.623  34.041  1.00  0.00     0.010 C 
HETATM   22  C23 UNL     1      19.756  12.649  32.638  1.00  0.00     0.020 C 
HETATM   23  C22 UNL     1      21.189  12.414  33.056  1.00  0.00     0.107 C 
ENDBRANCH  14  17
ENDBRANCH  13  14
ENDBRANCH  10  13
ENDBRANCH   1   7
BRANCH   5  24
HETATM   24  C11 UNL     1      27.487  15.240  26.127  1.00  0.00     0.091 C 
HETATM   25  C12 UNL     1      28.908  15.258  25.600  1.00  0.00     0.057 C 
HETATM   26  C13 UNL     1      28.809  15.592  24.131  1.00  0.00     0.049 C 
HETATM   27  C14 UNL     1      28.837  14.276  23.378  1.00  0.00     0.040 C 
HETATM   28  C15 UNL     1      30.025  16.383  23.699  1.00  0.00     0.040 C 
HETATM   29  N4  UNL     1      27.615  16.289  23.779  1.00  0.00    -0.278 N 
HETATM   30  C16 UNL     1      27.102  17.189  24.744  1.00  0.00     0.049 C 
HETATM   31  C17 UNL     1      27.863  18.520  24.746  1.00  0.00     0.040 C 
HETATM   32  C18 UNL     1      25.668  17.560  24.340  1.00  0.00     0.040 C 
HETATM   33  C19 UNL     1      27.038  16.685  26.155  1.00  0.00     0.057 C 
BRANCH  29  34
HETATM   34  O4  UNL     1      26.730  15.617  23.063  1.00  0.00    -0.291 OA
ATOM     35  H4  UNL     1      26.601  14.705  23.297  1.00  0.00     0.244 HD
ENDBRANCH  29  34
ENDBRANCH   5  24
TORSDOF 6
ENDMDL
MODEL 5
REMARK VINA RESULT: -8.272208183      7.624     10.573
REMARK  6 active torsions:
REMARK  status: ('A' for Active; 'I' for Inactive)
REMARK    1  A    between atoms: N1_5  and  S1_6 
REMARK    2  A    between atoms: S1_6  and  C5_9 
REMARK    3  A    between atoms: C5_9  and  C6_10 
REMARK    4  A    between atoms: C9_13  and  N2_14 
REMARK       I    between atoms: N2_14  and  C10_16 
REMARK       I    between atoms: C10_16  and  N3_18 
REMARK    5  A    between atoms: N3_18  and  C11_20 
REMARK    6  A    between atoms: N4_25  and  O4_26 
ROOT
HETATM    1  N2  UNL     1      26.384  12.819  28.661  1.00  0.00    -0.339 N 
ATOM      2  H2  UNL     1      27.288  12.726  29.125  1.00  0.00     0.164 HD
HETATM    3  C10 UNL     1      26.188  13.786  27.649  1.00  0.00     0.316 C 
HETATM    4  O3  UNL     1      25.090  13.910  27.075  1.00  0.00    -0.247 OA
HETATM    5  N3  UNL     1      27.262  14.629  27.280  1.00  0.00    -0.338 N 
ATOM      6  H3  UNL     1      28.169  14.541  27.739  1.00  0.00     0.164 HD
ENDROOT
BRANCH   1   7
HETATM    7  C9  UNL     1      25.274  11.962  29.025  1.00  0.00     0.086 C 
HETATM    8  C8  UNL     1      24.114  12.833  29.423  1.00  0.00     0.026 C 
HETATM    9  C7  UNL     1      24.050  13.025  30.931  1.00  0.00     0.007 C 
HETATM   10  C6  UNL     1      23.788  11.763  31.659  1.00  0.00     0.001 C 
HETATM   11  C21 UNL     1      24.575  10.640  30.990  1.00  0.00     0.007 C 
HETATM   12  C20 UNL     1      25.760  11.188  30.260  1.00  0.00     0.026 C 
BRANCH  10  13
HETATM   13  C5  UNL     1      22.387  11.329  31.842  1.00  0.00     0.162 C 
BRANCH  13  14
HETATM   14  S1  UNL     1      21.367  12.437  32.732  1.00  0.00     0.211 S 
HETATM   15  O1  UNL     1      21.124  13.670  31.889  1.00  0.00    -0.211 OA
HETATM   16  O2  UNL     1      21.965  12.752  34.053  1.00  0.00    -0.211 OA
BRANCH  14  17
HETATM   17  N1  UNL     1      19.791  11.758  33.009  1.00  0.00    -0.211 NA
HETATM   18  C4  UNL     1      18.818  12.785  33.185  1.00  0.00     0.107 C 
HETATM   19  C3  UNL     1      17.918  12.560  34.365  1.00  0.00     0.020 C 
HETATM   20  C2  UNL     1      18.743  12.438  35.634  1.00  0.00    -0.016 C 
HETATM   21  C1  UNL     1      17.779  11.991  36.732  1.00  0.00     0.010 C 
HETATM   22  C23 UNL     1      19.766  11.368  35.451  1.00  0.00     0.020 C 
HETATM   23  C22 UNL     1      19.767  10.793  34.053  1.00  0.00     0.107 C 
ENDBRANCH  14  17
ENDBRANCH  13  14
ENDBRANCH  10  13
ENDBRANCH   1   7
BRANCH   5  24
HETATM   24  C11 UNL     1      27.062  15.610  26.249  1.00  0.00     0.091 C 
HETATM   25  C12 UNL     1      28.372  16.142  25.703  1.00  0.00     0.057 C 
HETATM   26  C13 UNL     1      28.038  16.832  24.401  1.00  0.00     0.049 C 
HETATM   27  C14 UNL     1      28.299  15.830  23.294  1.00  0.00     0.040 C 
HETATM   28  C15 UNL     1      28.976  18.000  24.182  1.00  0.00     0.040 C 
HETATM   29  N4  UNL     1      26.681  17.263  24.312  1.00  0.00    -0.278 N 
HETATM   30  C16 UNL     1      26.075  17.696  25.515  1.00  0.00     0.049 C 
HETATM   31  C17 UNL     1      26.490  19.124  25.885  1.00  0.00     0.040 C 
HETATM   32  C18 UNL     1      24.559  17.778  25.287  1.00  0.00     0.040 C 
HETATM   33  C19 UNL     1      26.285  16.823  26.717  1.00  0.00     0.057 C 
BRANCH  29  34
HETATM   34  O4  UNL     1      25.911  16.609  23.459  1.00  0.00    -0.291 OA
ATOM     35  H4  UNL     1      25.125  16.212  23.817  1.00  0.00     0.244 HD
ENDBRANCH  29  34
ENDBRANCH   5  24
TORSDOF 6
ENDMDL
