MODEL 1
REMARK VINA RESULT: -7.631347148      0.000      0.000
REMARK  7 active torsions:
REMARK  status: ('A' for Active; 'I' for Inactive)
REMARK    1  A    between atoms: C2_2  and  C4_4 
REMARK    2  A    between atoms: C7_8  and  N1_9 
REMARK    3  A    between atoms: C10_12  and  C11_13 
REMARK    4  A    between atoms: C11_13  and  N2_14 
REMARK    5  A    between atoms: N2_14  and  C13_16 
REMARK    6  A    between atoms: C21_24  and  C22_25 
REMARK       I    between atoms: C22_25  and  N3_27 
REMARK    7  A    between atoms: N3_27  and  C23_29 
ROOT
HETATM    1  C4  UNL     1      23.636   5.732  30.571  1.00  0.00     0.059 C 
HETATM    2  C5  UNL     1      22.403   6.181  31.187  1.00  0.00     0.163 C 
HETATM    3  O1  UNL     1      21.323   5.742  30.664  1.00  0.00    -0.292 OA
HETATM    4  C6  UNL     1      22.048   7.063  32.316  1.00  0.00     0.108 C 
HETATM    5  C7  UNL     1      21.769   8.531  31.871  1.00  0.00     0.086 C 
HETATM    6  C19 UNL     1      22.536   8.643  30.674  1.00  0.00     0.028 C 
HETATM    7  C20 UNL     1      22.873   9.729  29.773  1.00  0.00     0.037 C 
HETATM    8  C21 UNL     1      23.895   9.012  28.831  1.00  0.00     0.177 C 
HETATM    9  N4  UNL     1      23.666   7.611  28.696  1.00  0.00    -0.344 N 
ATOM     10  H4  UNL     1      23.035   7.437  27.913  1.00  0.00     0.163 HD
HETATM   11  C27 UNL     1      24.022   6.418  29.281  1.00  0.00     0.252 C 
HETATM   12  O3  UNL     1      24.865   5.711  28.600  1.00  0.00    -0.268 OA
ENDROOT
BRANCH   5  13
HETATM   13  N1  UNL     1      21.964   9.446  32.940  1.00  0.00    -0.407 N 
HETATM   14  C8  UNL     1      22.385  10.720  32.491  1.00  0.00     0.121 C 
HETATM   15  C9  UNL     1      21.364  11.834  32.554  1.00  0.00     0.055 C 
HETATM   16  C10 UNL     1      20.393  11.704  33.672  1.00  0.00    -0.063 C 
HETATM   17  C16 UNL     1      21.025  10.790  34.696  1.00  0.00     0.029 C 
HETATM   18  C17 UNL     1      20.262  10.663  35.974  1.00  0.00     0.016 C 
HETATM   19  C18 UNL     1      21.050   9.402  34.017  1.00  0.00     0.126 C 
BRANCH  16  20
HETATM   20  C11 UNL     1      19.679  12.872  34.168  1.00  0.00     0.062 C 
BRANCH  20  21
HETATM   21  N2  UNL     1      18.616  13.483  33.495  1.00  0.00    -0.293 NA
HETATM   22  C12 UNL     1      17.553  12.635  33.040  1.00  0.00     0.116 C 
BRANCH  21  23
HETATM   23  C13 UNL     1      18.038  14.464  34.433  1.00  0.00     0.054 C 
HETATM   24  C14 UNL     1      17.556  15.706  33.717  1.00  0.00     0.026 C 
HETATM   25  C15 UNL     1      16.948  13.911  35.280  1.00  0.00     0.026 C 
ENDBRANCH  21  23
ENDBRANCH  20  21
ENDBRANCH  16  20
ENDBRANCH   5  13
BRANCH   1  26
HETATM   26  C2  UNL     1      24.748   5.282  31.440  1.00  0.00     0.020 C 
HETATM   27  C1  UNL     1      24.493   3.981  32.197  1.00  0.00     0.015 C 
HETATM   28  C3  UNL     1      26.119   5.156  30.890  1.00  0.00     0.015 C 
ENDBRANCH   1  26
BRANCH   8  29
HETATM   29  C22 UNL     1      25.212   9.441  29.307  1.00  0.00     0.241 C 
HETATM   30  O2  UNL     1      25.405   9.972  30.435  1.00  0.00    -0.271 OA
HETATM   31  N3  UNL     1      26.375   9.276  28.506  1.00  0.00    -0.351 N 
ATOM     32  H3  UNL     1      26.273   8.844  27.588  1.00  0.00     0.163 HD
BRANCH  31  33
HETATM   33  C23 UNL     1      27.697   9.688  28.927  1.00  0.00     0.022 C 
HETATM   34  C24 UNL     1      28.319   8.719  29.923  1.00  0.00     0.037 C 
HETATM   35  C25 UNL     1      28.599   9.704  27.692  1.00  0.00     0.037 C 
HETATM   36  C26 UNL     1      27.732  11.065  29.506  1.00  0.00     0.037 C 
ENDBRANCH  31  33
ENDBRANCH   8  29
TORSDOF 7
ENDMDL
MODEL 2
REMARK VINA RESULT: -7.392340566      3.525      9.357
REMARK  7 active torsions:
REMARK  status: ('A' for Active; 'I' for Inactive)
REMARK    1  A    between atoms: C2_2  and  C4_4 
REMARK    2  A    between atoms: C7_8  and  N1_9 
REMARK    3  A    between atoms: C10_12  and  C11_13 
REMARK    4  A    between atoms: C11_13  and  N2_14 
REMARK    5  A    between atoms: N2_14  and  C13_16 
REMARK    6  A    between atoms: C21_24  and  C22_25 
REMARK       I    between atoms: C22_25  and  N3_27 
REMARK    7  A    between atoms: N3_27  and  C23_29 
ROOT
HETATM    1  C4  UNL     1      26.085   7.976  29.167  1.00  0.00     0.059 C 
HETATM    2  C5  UNL     1      26.727   6.680  29.268  1.00  0.00     0.163 C 
HETATM    3  O1  UNL     1      27.015   6.109  28.162  1.00  0.00    -0.292 OA
HETATM    4  C6  UNL     1      27.154   5.798  30.372  1.00  0.00     0.108 C 
HETATM    5  C7  UNL     1      26.078   4.731  30.742  1.00  0.00     0.086 C 
HETATM    6  C19 UNL     1      24.865   5.358  30.330  1.00  0.00     0.028 C 
HETATM    7  C20 UNL     1      23.455   5.043  30.461  1.00  0.00     0.037 C 
HETATM    8  C21 UNL     1      22.815   6.351  29.887  1.00  0.00     0.177 C 
HETATM    9  N4  UNL     1      23.626   7.008  28.916  1.00  0.00    -0.344 N 
ATOM     10  H4  UNL     1      23.404   6.656  27.984  1.00  0.00     0.163 HD
HETATM   11  C27 UNL     1      24.612   7.963  28.830  1.00  0.00     0.252 C 
HETATM   12  O3  UNL     1      24.222   9.104  28.360  1.00  0.00    -0.268 OA
ENDROOT
BRANCH   5  13
HETATM   13  N1  UNL     1      26.235   4.273  32.078  1.00  0.00    -0.407 N 
HETATM   14  C8  UNL     1      25.116   3.536  32.532  1.00  0.00     0.121 C 
HETATM   15  C9  UNL     1      25.296   2.040  32.663  1.00  0.00     0.055 C 
HETATM   16  C10 UNL     1      26.678   1.626  33.022  1.00  0.00    -0.063 C 
HETATM   17  C16 UNL     1      27.349   2.830  33.641  1.00  0.00     0.029 C 
HETATM   18  C17 UNL     1      28.702   2.564  34.215  1.00  0.00     0.016 C 
HETATM   19  C18 UNL     1      27.516   3.827  32.473  1.00  0.00     0.126 C 
BRANCH  16  20
HETATM   20  C11 UNL     1      26.921   0.331  33.644  1.00  0.00     0.062 C 
BRANCH  20  21
HETATM   21  N2  UNL     1      26.128  -0.209  34.661  1.00  0.00    -0.293 NA
HETATM   22  C12 UNL     1      25.350  -1.369  34.339  1.00  0.00     0.116 C 
BRANCH  21  23
HETATM   23  C13 UNL     1      27.046  -0.574  35.755  1.00  0.00     0.054 C 
HETATM   24  C14 UNL     1      28.425  -0.922  35.237  1.00  0.00     0.026 C 
HETATM   25  C15 UNL     1      27.151   0.460  36.819  1.00  0.00     0.026 C 
ENDBRANCH  21  23
ENDBRANCH  20  21
ENDBRANCH  16  20
ENDBRANCH   5  13
BRANCH   1  26
HETATM   26  C2  UNL     1      26.555   9.078  30.039  1.00  0.00     0.020 C 
HETATM   27  C1  UNL     1      27.468  10.096  29.360  1.00  0.00     0.015 C 
HETATM   28  C3  UNL     1      25.580   9.880  30.816  1.00  0.00     0.015 C 
ENDBRANCH   1  26
BRANCH   8  29
HETATM   29  C22 UNL     1      22.410   7.120  31.065  1.00  0.00     0.241 C 
HETATM   30  O2  UNL     1      22.148   6.595  32.183  1.00  0.00    -0.271 OA
HETATM   31  N3  UNL     1      22.291   8.536  31.016  1.00  0.00    -0.351 N 
ATOM     32  H3  UNL     1      22.499   9.008  30.136  1.00  0.00     0.163 HD
BRANCH  31  33
HETATM   33  C23 UNL     1      21.889   9.341  32.148  1.00  0.00     0.022 C 
HETATM   34  C24 UNL     1      22.271  10.807  31.985  1.00  0.00     0.037 C 
HETATM   35  C25 UNL     1      20.364   9.283  32.249  1.00  0.00     0.037 C 
HETATM   36  C26 UNL     1      22.427   8.845  33.450  1.00  0.00     0.037 C 
ENDBRANCH  31  33
ENDBRANCH   8  29
TORSDOF 7
ENDMDL
MODEL 3
REMARK VINA RESULT: -7.382352327      3.272      6.738
REMARK  7 active torsions:
REMARK  status: ('A' for Active; 'I' for Inactive)
REMARK    1  A    between atoms: C2_2  and  C4_4 
REMARK    2  A    between atoms: C7_8  and  N1_9 
REMARK    3  A    between atoms: C10_12  and  C11_13 
REMARK    4  A    between atoms: C11_13  and  N2_14 
REMARK    5  A    between atoms: N2_14  and  C13_16 
REMARK    6  A    between atoms: C21_24  and  C22_25 
REMARK       I    between atoms: C22_25  and  N3_27 
REMARK    7  A    between atoms: N3_27  and  C23_29 
ROOT
HETATM    1  C4  UNL     1      29.173  10.206  26.222  1.00  0.00     0.059 C 
HETATM    2  C5  UNL     1      28.603  11.410  26.795  1.00  0.00     0.163 C 
HETATM    3  O1  UNL     1      29.430  12.338  27.088  1.00  0.00    -0.292 OA
HETATM    4  C6  UNL     1      27.245  11.869  27.149  1.00  0.00     0.108 C 
HETATM    5  C7  UNL     1      26.887  11.595  28.642  1.00  0.00     0.086 C 
HETATM    6  C19 UNL     1      27.718  10.481  28.962  1.00  0.00     0.028 C 
HETATM    7  C20 UNL     1      27.851   9.600  30.106  1.00  0.00     0.037 C 
HETATM    8  C21 UNL     1      28.867   8.552  29.542  1.00  0.00     0.177 C 
HETATM    9  N4  UNL     1      29.751   9.082  28.557  1.00  0.00    -0.344 N 
ATOM     10  H4  UNL     1      30.591   9.448  29.006  1.00  0.00     0.163 HD
HETATM   11  C27 UNL     1      29.835   9.258  27.195  1.00  0.00     0.252 C 
HETATM   12  O3  UNL     1      30.653   8.456  26.595  1.00  0.00    -0.268 OA
ENDROOT
BRANCH   5  13
HETATM   13  N1  UNL     1      25.482  11.526  28.838  1.00  0.00    -0.407 N 
HETATM   14  C8  UNL     1      24.938  10.288  28.421  1.00  0.00     0.121 C 
HETATM   15  C9  UNL     1      24.505   9.334  29.511  1.00  0.00     0.055 C 
HETATM   16  C10 UNL     1      24.012  10.006  30.743  1.00  0.00    -0.063 C 
HETATM   17  C16 UNL     1      23.617  11.409  30.347  1.00  0.00     0.029 C 
HETATM   18  C17 UNL     1      22.944  12.195  31.425  1.00  0.00     0.016 C 
HETATM   19  C18 UNL     1      24.952  12.111  30.011  1.00  0.00     0.126 C 
BRANCH  16  20
HETATM   20  C11 UNL     1      23.136   9.299  31.667  1.00  0.00     0.062 C 
BRANCH  20  21
HETATM   21  N2  UNL     1      22.265   8.273  31.289  1.00  0.00    -0.293 NA
HETATM   22  C12 UNL     1      22.668   6.929  31.582  1.00  0.00     0.116 C 
BRANCH  21  23
HETATM   23  C13 UNL     1      20.994   8.525  31.994  1.00  0.00     0.054 C 
HETATM   24  C14 UNL     1      20.287   7.235  32.350  1.00  0.00     0.026 C 
HETATM   25  C15 UNL     1      21.141   9.374  33.207  1.00  0.00     0.026 C 
ENDBRANCH  21  23
ENDBRANCH  20  21
ENDBRANCH  16  20
ENDBRANCH   5  13
BRANCH   1  26
HETATM   26  C2  UNL     1      28.517   9.594  25.044  1.00  0.00     0.020 C 
HETATM   27  C1  UNL     1      28.934  10.176  23.696  1.00  0.00     0.015 C 
HETATM   28  C3  UNL     1      28.538   8.122  24.861  1.00  0.00     0.015 C 
ENDBRANCH   1  26
BRANCH   8  29
HETATM   29  C22 UNL     1      28.049   7.396  29.169  1.00  0.00     0.241 C 
HETATM   30  O2  UNL     1      27.655   7.175  27.990  1.00  0.00    -0.271 OA
HETATM   31  N3  UNL     1      27.646   6.435  30.135  1.00  0.00    -0.351 N 
ATOM     32  H3  UNL     1      27.946   6.565  31.101  1.00  0.00     0.163 HD
BRANCH  31  33
HETATM   33  C23 UNL     1      26.833   5.280  29.819  1.00  0.00     0.022 C 
HETATM   34  C24 UNL     1      27.572   4.268  28.953  1.00  0.00     0.037 C 
HETATM   35  C25 UNL     1      26.484   4.578  31.132  1.00  0.00     0.037 C 
HETATM   36  C26 UNL     1      25.540   5.629  29.157  1.00  0.00     0.037 C 
ENDBRANCH  31  33
ENDBRANCH   8  29
TORSDOF 7
ENDMDL
MODEL 4
REMARK VINA RESULT: -7.357538417      3.194      9.312
REMARK  7 active torsions:
REMARK  status: ('A' for Active; 'I' for Inactive)
REMARK    1  A    between atoms: C2_2  and  C4_4 
REMARK    2  A    between atoms: C7_8  and  N1_9 
REMARK    3  A    between atoms: C10_12  and  C11_13 
REMARK    4  A    between atoms: C11_13  and  N2_14 
REMARK    5  A    between atoms: N2_14  and  C13_16 
REMARK    6  A    between atoms: C21_24  and  C22_25 
REMARK       I    between atoms: C22_25  and  N3_27 
REMARK    7  A    between atoms: N3_27  and  C23_29 
ROOT
HETATM    1  C4  UNL     1      26.093   8.815  28.955  1.00  0.00     0.059 C 
HETATM    2  C5  UNL     1      26.922   7.630  28.862  1.00  0.00     0.163 C 
HETATM    3  O1  UNL     1      27.226   7.248  27.682  1.00  0.00    -0.292 OA
HETATM    4  C6  UNL     1      27.539   6.696  29.826  1.00  0.00     0.108 C 
HETATM    5  C7  UNL     1      26.655   5.440  30.098  1.00  0.00     0.086 C 
HETATM    6  C19 UNL     1      25.341   5.919  29.819  1.00  0.00     0.028 C 
HETATM    7  C20 UNL     1      24.003   5.378  29.965  1.00  0.00     0.037 C 
HETATM    8  C21 UNL     1      23.145   6.632  29.591  1.00  0.00     0.177 C 
HETATM    9  N4  UNL     1      23.792   7.519  28.680  1.00  0.00    -0.344 N 
ATOM     10  H4  UNL     1      23.569   7.253  27.721  1.00  0.00     0.163 HD
HETATM   11  C27 UNL     1      24.620   8.617  28.679  1.00  0.00     0.252 C 
HETATM   12  O3  UNL     1      24.039   9.733  28.376  1.00  0.00    -0.268 OA
ENDROOT
BRANCH   5  13
HETATM   13  N1  UNL     1      26.956   4.853  31.356  1.00  0.00    -0.407 N 
HETATM   14  C8  UNL     1      25.827   4.245  31.953  1.00  0.00     0.121 C 
HETATM   15  C9  UNL     1      25.794   2.733  31.961  1.00  0.00     0.055 C 
HETATM   16  C10 UNL     1      27.136   2.099  32.049  1.00  0.00    -0.063 C 
HETATM   17  C16 UNL     1      28.076   3.139  32.612  1.00  0.00     0.029 C 
HETATM   18  C17 UNL     1      29.448   2.636  32.924  1.00  0.00     0.016 C 
HETATM   19  C18 UNL     1      28.201   4.198  31.494  1.00  0.00     0.126 C 
BRANCH  16  20
HETATM   20  C11 UNL     1      27.276   0.734  32.540  1.00  0.00     0.062 C 
BRANCH  20  21
HETATM   21  N2  UNL     1      26.209  -0.043  33.002  1.00  0.00    -0.293 NA
HETATM   22  C12 UNL     1      26.088  -1.370  32.473  1.00  0.00     0.116 C 
BRANCH  21  23
HETATM   23  C13 UNL     1      26.379  -0.156  34.463  1.00  0.00     0.054 C 
HETATM   24  C14 UNL     1      27.840  -0.138  34.860  1.00  0.00     0.026 C 
HETATM   25  C15 UNL     1      25.632   0.873  35.234  1.00  0.00     0.026 C 
ENDBRANCH  21  23
ENDBRANCH  20  21
ENDBRANCH  16  20
ENDBRANCH   5  13
BRANCH   1  26
HETATM   26  C2  UNL     1      26.447   9.861  29.942  1.00  0.00     0.020 C 
HETATM   27  C1  UNL     1      26.950  11.172  29.343  1.00  0.00     0.015 C 
HETATM   28  C3  UNL     1      25.475  10.254  30.991  1.00  0.00     0.015 C 
ENDBRANCH   1  26
BRANCH   8  29
HETATM   29  C22 UNL     1      22.702   7.182  30.874  1.00  0.00     0.241 C 
HETATM   30  O2  UNL     1      22.659   6.509  31.941  1.00  0.00    -0.271 OA
HETATM   31  N3  UNL     1      22.290   8.538  30.992  1.00  0.00    -0.351 N 
ATOM     32  H3  UNL     1      22.315   9.125  30.159  1.00  0.00     0.163 HD
BRANCH  31  33
HETATM   33  C23 UNL     1      21.839   9.127  32.234  1.00  0.00     0.022 C 
HETATM   34  C24 UNL     1      22.112  10.624  32.300  1.00  0.00     0.037 C 
HETATM   35  C25 UNL     1      20.323   8.944  32.317  1.00  0.00     0.037 C 
HETATM   36  C26 UNL     1      22.420   8.476  33.446  1.00  0.00     0.037 C 
ENDBRANCH  31  33
ENDBRANCH   8  29
TORSDOF 7
ENDMDL
MODEL 5
REMARK VINA RESULT: -7.355913173      3.901      9.111
REMARK  7 active torsions:
REMARK  status: ('A' for Active; 'I' for Inactive)
REMARK    1  A    between atoms: C2_2  and  C4_4 
REMARK    2  A    between atoms: C7_8  and  N1_9 
REMARK    3  A    between atoms: C10_12  and  C11_13 
REMARK    4  A    between atoms: C11_13  and  N2_14 
REMARK    5  A    between atoms: N2_14  and  C13_16 
REMARK    6  A    between atoms: C21_24  and  C22_25 
REMARK       I    between atoms: C22_25  and  N3_27 
REMARK    7  A    between atoms: N3_27  and  C23_29 
ROOT
HETATM    1  C4  UNL     1      28.790   6.308  28.542  1.00  0.00     0.059 C 
HETATM    2  C5  UNL     1      28.487   4.975  29.025  1.00  0.00     0.163 C 
HETATM    3  O1  UNL     1      28.476   4.049  28.145  1.00  0.00    -0.292 OA
HETATM    4  C6  UNL     1      28.167   4.375  30.335  1.00  0.00     0.108 C 
HETATM    5  C7  UNL     1      26.632   4.270  30.592  1.00  0.00     0.086 C 
HETATM    6  C19 UNL     1      26.109   5.320  29.781  1.00  0.00     0.028 C 
HETATM    7  C20 UNL     1      24.798   5.912  29.595  1.00  0.00     0.037 C 
HETATM    8  C21 UNL     1      25.158   7.116  28.662  1.00  0.00     0.177 C 
HETATM    9  N4  UNL     1      26.296   6.880  27.835  1.00  0.00    -0.344 N 
ATOM     10  H4  UNL     1      26.001   6.463  26.951  1.00  0.00     0.163 HD
HETATM   11  C27 UNL     1      27.663   7.034  27.845  1.00  0.00     0.252 C 
HETATM   12  O3  UNL     1      28.105   7.997  27.102  1.00  0.00    -0.268 OA
ENDROOT
BRANCH   5  13
HETATM   13  N1  UNL     1      26.338   4.218  31.981  1.00  0.00    -0.407 N 
HETATM   14  C8  UNL     1      24.987   3.883  32.235  1.00  0.00     0.121 C 
HETATM   15  C9  UNL     1      24.720   2.492  32.766  1.00  0.00     0.055 C 
HETATM   16  C10 UNL     1      25.812   1.948  33.615  1.00  0.00    -0.063 C 
HETATM   17  C16 UNL     1      26.616   3.130  34.104  1.00  0.00     0.029 C 
HETATM   18  C17 UNL     1      27.670   2.794  35.108  1.00  0.00     0.016 C 
HETATM   19  C18 UNL     1      27.319   3.673  32.840  1.00  0.00     0.126 C 
BRANCH  16  20
HETATM   20  C11 UNL     1      25.542   0.881  34.570  1.00  0.00     0.062 C 
BRANCH  20  21
HETATM   21  N2  UNL     1      26.027  -0.424  34.442  1.00  0.00    -0.293 NA
HETATM   22  C12 UNL     1      27.212  -0.609  33.656  1.00  0.00     0.116 C 
BRANCH  21  23
HETATM   23  C13 UNL     1      26.316  -0.896  35.809  1.00  0.00     0.054 C 
HETATM   24  C14 UNL     1      27.782  -0.749  36.154  1.00  0.00     0.026 C 
HETATM   25  C15 UNL     1      25.481  -0.246  36.855  1.00  0.00     0.026 C 
ENDBRANCH  21  23
ENDBRANCH  20  21
ENDBRANCH  16  20
ENDBRANCH   5  13
BRANCH   1  26
HETATM   26  C2  UNL     1      29.745   7.146  29.305  1.00  0.00     0.020 C 
HETATM   27  C1  UNL     1      31.217   6.910  28.978  1.00  0.00     0.015 C 
HETATM   28  C3  UNL     1      29.579   8.620  29.339  1.00  0.00     0.015 C 
ENDBRANCH   1  26
BRANCH   8  29
HETATM   29  C22 UNL     1      25.193   8.282  29.547  1.00  0.00     0.241 C 
HETATM   30  O2  UNL     1      26.249   8.715  30.086  1.00  0.00    -0.271 OA
HETATM   31  N3  UNL     1      24.012   9.012  29.852  1.00  0.00    -0.351 N 
ATOM     32  H3  UNL     1      23.133   8.706  29.434  1.00  0.00     0.163 HD
BRANCH  31  33
HETATM   33  C23 UNL     1      23.992  10.166  30.724  1.00  0.00     0.022 C 
HETATM   34  C24 UNL     1      23.324  11.372  30.077  1.00  0.00     0.037 C 
HETATM   35  C25 UNL     1      23.167   9.806  31.961  1.00  0.00     0.037 C 
HETATM   36  C26 UNL     1      25.346  10.567  31.209  1.00  0.00     0.037 C 
ENDBRANCH  31  33
ENDBRANCH   8  29
TORSDOF 7
ENDMDL
