MODEL 1
REMARK VINA RESULT: -7.754649266      0.000      0.000
REMARK  8 active torsions:
REMARK  status: ('A' for Active; 'I' for Inactive)
REMARK    1  A    between atoms: C2_2  and  C4_4 
REMARK    2  A    between atoms: C4_4  and  N1_5 
REMARK    3  A    between atoms: C8_9  and  C9_10 
REMARK       I    between atoms: C9_10  and  N2_12 
REMARK    4  A    between atoms: N2_12  and  C10_14 
REMARK    5  A    between atoms: C10_14  and  C11_15 
REMARK    6  A    between atoms: C22_27  and  O3_28 
REMARK    7  A    between atoms: C23_32  and  C24_33 
REMARK    8  A    between atoms: C27_36  and  O4_37 
ROOT
HETATM    1  N1  UNL     1      23.346   6.425  31.166  1.00  0.00    -0.339 N 
HETATM    2  C5  UNL     1      24.067   7.599  30.760  1.00  0.00     0.073 C 
HETATM    3  C6  UNL     1      24.435   7.841  29.365  1.00  0.00     0.058 C 
HETATM    4  C7  UNL     1      23.549   8.771  28.572  1.00  0.00     0.018 C 
HETATM    5  C8  UNL     1      25.817   8.514  29.331  1.00  0.00     0.221 C 
HETATM    6  O2  UNL     1      26.620   8.163  28.329  1.00  0.00    -0.375 OA
HETATM    7  C15 UNL     1      27.107   6.903  28.227  1.00  0.00     0.174 C 
HETATM    8  C16 UNL     1      27.805   6.359  29.427  1.00  0.00     0.021 C 
HETATM    9  C17 UNL     1      29.157   7.020  29.543  1.00  0.00     0.007 C 
HETATM   10  C18 UNL     1      30.173   6.577  28.556  1.00  0.00     0.001 C 
HETATM   11  C19 UNL     1      30.264   5.063  28.451  1.00  0.00     0.001 C 
HETATM   12  C20 UNL     1      28.876   4.574  28.206  1.00  0.00     0.013 C 
HETATM   13  C21 UNL     1      27.963   4.859  29.415  1.00  0.00     0.066 C 
HETATM   14  C22 UNL     1      26.706   4.110  29.279  1.00  0.00     0.120 C 
HETATM   15  N3  UNL     1      25.430   4.227  29.789  1.00  0.00    -0.340 N 
ATOM     16  H3  UNL     1      24.785   4.450  29.031  1.00  0.00     0.167 HD
HETATM   17  C23 UNL     1      24.720   4.146  30.982  1.00  0.00     0.066 C 
HETATM   18  C27 UNL     1      23.833   5.146  31.513  1.00  0.00     0.165 C 
ENDROOT
BRANCH   5  19
HETATM   19  C9  UNL     1      25.597  10.002  29.290  1.00  0.00     0.247 C 
HETATM   20  O1  UNL     1      25.622  10.627  28.201  1.00  0.00    -0.271 OA
HETATM   21  N2  UNL     1      25.357  10.725  30.480  1.00  0.00    -0.358 N 
ATOM     22  H2  UNL     1      25.331  10.245  31.379  1.00  0.00     0.162 HD
BRANCH  21  23
HETATM   23  C10 UNL     1      25.148  12.153  30.408  1.00  0.00     0.131 C 
BRANCH  23  24
HETATM   24  C11 UNL     1      23.738  12.537  30.801  1.00  0.00    -0.035 C 
HETATM   25  C12 UNL     1      23.069  13.124  29.567  1.00  0.00     0.016 C 
HETATM   26  C13 UNL     1      23.771  13.620  31.855  1.00  0.00     0.016 C 
HETATM   27  C14 UNL     1      22.990  11.363  31.359  1.00  0.00     0.016 C 
ENDBRANCH  23  24
ENDBRANCH  21  23
ENDBRANCH   5  19
BRANCH   1  28
HETATM   28  C4  UNL     1      21.904   6.603  31.259  1.00  0.00     0.134 C 
BRANCH  28  29
HETATM   29  C2  UNL     1      21.370   7.422  32.360  1.00  0.00    -0.004 C 
HETATM   30  C1  UNL     1      20.249   6.544  32.976  1.00  0.00     0.011 C 
HETATM   31  C3  UNL     1      20.611   8.655  31.871  1.00  0.00     0.011 C 
ENDBRANCH  28  29
ENDBRANCH   1  28
BRANCH  18  32
HETATM   32  O4  UNL     1      23.339   4.722  32.658  1.00  0.00    -0.344 OA
ATOM     33  H4  UNL     1      24.019   4.561  33.302  1.00  0.00     0.219 HD
ENDBRANCH  18  32
BRANCH  17  34
HETATM   34  C24 UNL     1      25.571   3.584  32.105  1.00  0.00     0.032 C 
HETATM   35  C25 UNL     1      25.554   2.080  32.159  1.00  0.00     0.016 C 
HETATM   36  C26 UNL     1      26.918   4.216  32.249  1.00  0.00     0.016 C 
ENDBRANCH  17  34
BRANCH  14  37
HETATM   37  O3  UNL     1      26.845   3.088  28.473  1.00  0.00    -0.349 OA
ATOM     38  H3  UNL     1      26.818   2.267  28.949  1.00  0.00     0.219 HD
ENDBRANCH  14  37
TORSDOF 8
ENDMDL
MODEL 2
REMARK VINA RESULT: -6.395615127      2.217      3.819
REMARK  8 active torsions:
REMARK  status: ('A' for Active; 'I' for Inactive)
REMARK    1  A    between atoms: C2_2  and  C4_4 
REMARK    2  A    between atoms: C4_4  and  N1_5 
REMARK    3  A    between atoms: C8_9  and  C9_10 
REMARK       I    between atoms: C9_10  and  N2_12 
REMARK    4  A    between atoms: N2_12  and  C10_14 
REMARK    5  A    between atoms: C10_14  and  C11_15 
REMARK    6  A    between atoms: C22_27  and  O3_28 
REMARK    7  A    between atoms: C23_32  and  C24_33 
REMARK    8  A    between atoms: C27_36  and  O4_37 
ROOT
HETATM    1  N1  UNL     1      26.537   5.596  29.665  1.00  0.00    -0.339 N 
HETATM    2  C5  UNL     1      26.467   7.015  29.872  1.00  0.00     0.073 C 
HETATM    3  C6  UNL     1      26.262   7.953  28.768  1.00  0.00     0.058 C 
HETATM    4  C7  UNL     1      24.857   8.460  28.549  1.00  0.00     0.018 C 
HETATM    5  C8  UNL     1      27.086   9.222  29.041  1.00  0.00     0.221 C 
HETATM    6  O2  UNL     1      27.636   9.808  27.981  1.00  0.00    -0.375 OA
HETATM    7  C15 UNL     1      28.610   9.196  27.266  1.00  0.00     0.174 C 
HETATM    8  C16 UNL     1      29.791   8.705  28.031  1.00  0.00     0.021 C 
HETATM    9  C17 UNL     1      30.637   9.888  28.431  1.00  0.00     0.007 C 
HETATM   10  C18 UNL     1      31.413  10.520  27.334  1.00  0.00     0.001 C 
HETATM   11  C19 UNL     1      32.176   9.504  26.499  1.00  0.00     0.001 C 
HETATM   12  C20 UNL     1      31.182   8.477  26.073  1.00  0.00     0.013 C 
HETATM   13  C21 UNL     1      30.629   7.699  27.283  1.00  0.00     0.066 C 
HETATM   14  C22 UNL     1      29.898   6.511  26.822  1.00  0.00     0.120 C 
HETATM   15  N3  UNL     1      28.924   5.688  27.348  1.00  0.00    -0.340 N 
ATOM     16  H3  UNL     1      28.065   5.798  26.809  1.00  0.00     0.167 HD
HETATM   17  C23 UNL     1      28.711   4.760  28.361  1.00  0.00     0.066 C 
HETATM   18  C27 UNL     1      27.648   4.790  29.331  1.00  0.00     0.165 C 
ENDROOT
BRANCH   5  19
HETATM   19  C9  UNL     1      26.185  10.206  29.738  1.00  0.00     0.247 C 
HETATM   20  O1  UNL     1      26.042  11.372  29.297  1.00  0.00    -0.271 OA
HETATM   21  N2  UNL     1      25.482   9.833  30.907  1.00  0.00    -0.358 N 
ATOM     22  H2  UNL     1      25.580   8.892  31.289  1.00  0.00     0.162 HD
BRANCH  21  23
HETATM   23  C10 UNL     1      24.625  10.800  31.553  1.00  0.00     0.131 C 
BRANCH  23  24
HETATM   24  C11 UNL     1      23.163  10.437  31.415  1.00  0.00    -0.035 C 
HETATM   25  C12 UNL     1      22.734  10.813  30.004  1.00  0.00     0.016 C 
HETATM   26  C13 UNL     1      22.332  11.258  32.374  1.00  0.00     0.016 C 
HETATM   27  C14 UNL     1      22.930   8.987  31.719  1.00  0.00     0.016 C 
ENDBRANCH  23  24
ENDBRANCH  21  23
ENDBRANCH   5  19
BRANCH   1  28
HETATM   28  C4  UNL     1      25.278   4.892  29.861  1.00  0.00     0.134 C 
BRANCH  28  29
HETATM   29  C2  UNL     1      24.334   5.413  30.865  1.00  0.00    -0.004 C 
HETATM   30  C1  UNL     1      24.294   4.309  31.954  1.00  0.00     0.011 C 
HETATM   31  C3  UNL     1      22.892   5.452  30.362  1.00  0.00     0.011 C 
ENDBRANCH  28  29
ENDBRANCH   1  28
BRANCH  18  32
HETATM   32  O4  UNL     1      27.764   3.750  30.131  1.00  0.00    -0.344 OA
ATOM     33  H4  UNL     1      27.837   4.008  31.043  1.00  0.00     0.219 HD
ENDBRANCH  18  32
BRANCH  17  34
HETATM   34  C24 UNL     1      30.006   4.371  29.049  1.00  0.00     0.032 C 
HETATM   35  C25 UNL     1      30.979   3.690  28.125  1.00  0.00     0.016 C 
HETATM   36  C26 UNL     1      30.589   5.425  29.933  1.00  0.00     0.016 C 
ENDBRANCH  17  34
BRANCH  14  37
HETATM   37  O3  UNL     1      30.269   6.161  25.617  1.00  0.00    -0.349 OA
ATOM     38  H3  UNL     1      31.083   5.673  25.633  1.00  0.00     0.219 HD
ENDBRANCH  14  37
TORSDOF 8
ENDMDL
MODEL 3
REMARK VINA RESULT: -6.391960316      4.639      7.798
REMARK  8 active torsions:
REMARK  status: ('A' for Active; 'I' for Inactive)
REMARK    1  A    between atoms: C2_2  and  C4_4 
REMARK    2  A    between atoms: C4_4  and  N1_5 
REMARK    3  A    between atoms: C8_9  and  C9_10 
REMARK       I    between atoms: C9_10  and  N2_12 
REMARK    4  A    between atoms: N2_12  and  C10_14 
REMARK    5  A    between atoms: C10_14  and  C11_15 
REMARK    6  A    between atoms: C22_27  and  O3_28 
REMARK    7  A    between atoms: C23_32  and  C24_33 
REMARK    8  A    between atoms: C27_36  and  O4_37 
ROOT
HETATM    1  N1  UNL     1      25.790  13.943  27.755  1.00  0.00    -0.339 N 
HETATM    2  C5  UNL     1      27.111  13.453  27.476  1.00  0.00     0.073 C 
HETATM    3  C6  UNL     1      27.354  12.381  26.512  1.00  0.00     0.058 C 
HETATM    4  C7  UNL     1      27.799  12.788  25.128  1.00  0.00     0.018 C 
HETATM    5  C8  UNL     1      28.501  11.500  27.035  1.00  0.00     0.221 C 
HETATM    6  O2  UNL     1      28.400  10.195  26.794  1.00  0.00    -0.375 OA
HETATM    7  C15 UNL     1      27.421   9.449  27.359  1.00  0.00     0.174 C 
HETATM    8  C16 UNL     1      27.294   9.530  28.843  1.00  0.00     0.021 C 
HETATM    9  C17 UNL     1      28.431   8.762  29.470  1.00  0.00     0.007 C 
HETATM   10  C18 UNL     1      28.330   7.284  29.384  1.00  0.00     0.001 C 
HETATM   11  C19 UNL     1      26.965   6.767  29.808  1.00  0.00     0.001 C 
HETATM   12  C20 UNL     1      25.960   7.526  29.009  1.00  0.00     0.013 C 
HETATM   13  C21 UNL     1      25.976   9.024  29.371  1.00  0.00     0.066 C 
HETATM   14  C22 UNL     1      24.792   9.687  28.807  1.00  0.00     0.120 C 
HETATM   15  N3  UNL     1      24.452  10.982  28.476  1.00  0.00    -0.340 N 
ATOM     16  H3  UNL     1      24.343  11.053  27.464  1.00  0.00     0.167 HD
HETATM   17  C23 UNL     1      24.208  12.226  29.048  1.00  0.00     0.066 C 
HETATM   18  C27 UNL     1      24.831  13.469  28.678  1.00  0.00     0.165 C 
ENDROOT
BRANCH   5  19
HETATM   19  C9  UNL     1      29.780  12.017  26.434  1.00  0.00     0.247 C 
HETATM   20  O1  UNL     1      30.302  11.448  25.444  1.00  0.00    -0.271 OA
HETATM   21  N2  UNL     1      30.419  13.156  26.974  1.00  0.00    -0.358 N 
ATOM     22  H2  UNL     1      30.018  13.638  27.779  1.00  0.00     0.162 HD
BRANCH  21  23
HETATM   23  C10 UNL     1      31.645  13.628  26.375  1.00  0.00     0.131 C 
BRANCH  23  24
HETATM   24  C11 UNL     1      31.693  15.139  26.306  1.00  0.00    -0.035 C 
HETATM   25  C12 UNL     1      30.343  15.612  25.788  1.00  0.00     0.016 C 
HETATM   26  C13 UNL     1      32.740  15.580  25.309  1.00  0.00     0.016 C 
HETATM   27  C14 UNL     1      32.038  15.734  27.639  1.00  0.00     0.016 C 
ENDBRANCH  23  24
ENDBRANCH  21  23
ENDBRANCH   5  19
BRANCH   1  28
HETATM   28  C4  UNL     1      25.406  15.120  26.990  1.00  0.00     0.134 C 
BRANCH  28  29
HETATM   29  C2  UNL     1      26.444  16.113  26.666  1.00  0.00    -0.004 C 
HETATM   30  C1  UNL     1      25.765  17.478  26.951  1.00  0.00     0.011 C 
HETATM   31  C3  UNL     1      26.750  16.187  25.170  1.00  0.00     0.011 C 
ENDBRANCH  28  29
ENDBRANCH   1  28
BRANCH  18  32
HETATM   32  O4  UNL     1      24.351  14.435  29.434  1.00  0.00    -0.344 OA
ATOM     33  H4  UNL     1      24.497  14.271  30.358  1.00  0.00     0.219 HD
ENDBRANCH  18  32
BRANCH  17  34
HETATM   34  C24 UNL     1      24.116  12.141  30.560  1.00  0.00     0.032 C 
HETATM   35  C25 UNL     1      22.964  11.297  31.032  1.00  0.00     0.016 C 
HETATM   36  C26 UNL     1      25.417  11.899  31.255  1.00  0.00     0.016 C 
ENDBRANCH  17  34
BRANCH  14  37
HETATM   37  O3  UNL     1      23.837   8.827  28.561  1.00  0.00    -0.349 OA
ATOM     38  H3  UNL     1      24.125   8.152  27.958  1.00  0.00     0.219 HD
ENDBRANCH  14  37
TORSDOF 8
ENDMDL
MODEL 4
REMARK VINA RESULT: -6.347887370      1.701      2.382
REMARK  8 active torsions:
REMARK  status: ('A' for Active; 'I' for Inactive)
REMARK    1  A    between atoms: C2_2  and  C4_4 
REMARK    2  A    between atoms: C4_4  and  N1_5 
REMARK    3  A    between atoms: C8_9  and  C9_10 
REMARK       I    between atoms: C9_10  and  N2_12 
REMARK    4  A    between atoms: N2_12  and  C10_14 
REMARK    5  A    between atoms: C10_14  and  C11_15 
REMARK    6  A    between atoms: C22_27  and  O3_28 
REMARK    7  A    between atoms: C23_32  and  C24_33 
REMARK    8  A    between atoms: C27_36  and  O4_37 
ROOT
HETATM    1  N1  UNL     1      25.396   4.966  30.971  1.00  0.00    -0.339 N 
HETATM    2  C5  UNL     1      25.758   6.310  30.617  1.00  0.00     0.073 C 
HETATM    3  C6  UNL     1      25.884   6.739  29.224  1.00  0.00     0.058 C 
HETATM    4  C7  UNL     1      24.709   7.472  28.622  1.00  0.00     0.018 C 
HETATM    5  C8  UNL     1      27.048   7.738  29.121  1.00  0.00     0.221 C 
HETATM    6  O2  UNL     1      27.784   7.675  28.014  1.00  0.00    -0.375 OA
HETATM    7  C15 UNL     1      28.545   6.590  27.737  1.00  0.00     0.174 C 
HETATM    8  C16 UNL     1      29.494   6.152  28.800  1.00  0.00     0.021 C 
HETATM    9  C17 UNL     1      30.650   7.121  28.848  1.00  0.00     0.007 C 
HETATM   10  C18 UNL     1      31.615   7.022  27.724  1.00  0.00     0.001 C 
HETATM   11  C19 UNL     1      32.056   5.592  27.457  1.00  0.00     0.001 C 
HETATM   12  C20 UNL     1      30.808   4.789  27.303  1.00  0.00     0.013 C 
HETATM   13  C21 UNL     1      30.007   4.745  28.619  1.00  0.00     0.066 C 
HETATM   14  C22 UNL     1      28.961   3.716  28.533  1.00  0.00     0.120 C 
HETATM   15  N3  UNL     1      27.767   3.470  29.178  1.00  0.00    -0.340 N 
ATOM     16  H3  UNL     1      26.999   3.579  28.514  1.00  0.00     0.167 HD
HETATM   17  C23 UNL     1      27.248   3.125  30.420  1.00  0.00     0.066 C 
HETATM   18  C27 UNL     1      26.216   3.828  31.136  1.00  0.00     0.165 C 
ENDROOT
BRANCH   5  19
HETATM   19  C9  UNL     1      26.471   9.122  29.254  1.00  0.00     0.247 C 
HETATM   20  O1  UNL     1      26.465   9.913  28.279  1.00  0.00    -0.271 OA
HETATM   21  N2  UNL     1      25.925   9.557  30.482  1.00  0.00    -0.358 N 
ATOM     22  H2  UNL     1      25.917   8.937  31.292  1.00  0.00     0.162 HD
BRANCH  21  23
HETATM   23  C10 UNL     1      25.378  10.891  30.578  1.00  0.00     0.131 C 
BRANCH  23  24
HETATM   24  C11 UNL     1      23.873  10.873  30.735  1.00  0.00    -0.035 C 
HETATM   25  C12 UNL     1      23.516   9.629  31.535  1.00  0.00     0.016 C 
HETATM   26  C13 UNL     1      23.213  10.746  29.382  1.00  0.00     0.016 C 
HETATM   27  C14 UNL     1      23.378  12.134  31.380  1.00  0.00     0.016 C 
ENDBRANCH  23  24
ENDBRANCH  21  23
ENDBRANCH   5  19
BRANCH   1  28
HETATM   28  C4  UNL     1      23.976   4.768  31.225  1.00  0.00     0.134 C 
BRANCH  28  29
HETATM   29  C2  UNL     1      23.068   5.913  31.051  1.00  0.00    -0.004 C 
HETATM   30  C1  UNL     1      22.344   6.033  32.419  1.00  0.00     0.011 C 
HETATM   31  C3  UNL     1      21.923   5.624  30.081  1.00  0.00     0.011 C 
ENDBRANCH  28  29
ENDBRANCH   1  28
BRANCH  18  32
HETATM   32  O4  UNL     1      25.983   3.210  32.275  1.00  0.00    -0.344 OA
ATOM     33  H4  UNL     1      25.124   2.805  32.292  1.00  0.00     0.219 HD
ENDBRANCH  18  32
BRANCH  17  34
HETATM   34  C24 UNL     1      28.340   2.714  31.390  1.00  0.00     0.032 C 
HETATM   35  C25 UNL     1      29.094   1.491  30.942  1.00  0.00     0.016 C 
HETATM   36  C26 UNL     1      29.184   3.838  31.899  1.00  0.00     0.016 C 
ENDBRANCH  17  34
BRANCH  14  37
HETATM   37  O3  UNL     1      29.244   2.825  27.619  1.00  0.00    -0.349 OA
ATOM     38  H3  UNL     1      30.169   2.607  27.622  1.00  0.00     0.219 HD
ENDBRANCH  14  37
TORSDOF 8
ENDMDL
MODEL 5
REMARK VINA RESULT: -6.343970214      2.674      4.441
REMARK  8 active torsions:
REMARK  status: ('A' for Active; 'I' for Inactive)
REMARK    1  A    between atoms: C2_2  and  C4_4 
REMARK    2  A    between atoms: C4_4  and  N1_5 
REMARK    3  A    between atoms: C8_9  and  C9_10 
REMARK       I    between atoms: C9_10  and  N2_12 
REMARK    4  A    between atoms: N2_12  and  C10_14 
REMARK    5  A    between atoms: C10_14  and  C11_15 
REMARK    6  A    between atoms: C22_27  and  O3_28 
REMARK    7  A    between atoms: C23_32  and  C24_33 
REMARK    8  A    between atoms: C27_36  and  O4_37 
ROOT
HETATM    1  N1  UNL     1      26.476   6.401  29.191  1.00  0.00    -0.339 N 
HETATM    2  C5  UNL     1      26.368   7.691  29.812  1.00  0.00     0.073 C 
HETATM    3  C6  UNL     1      26.008   8.890  29.056  1.00  0.00     0.058 C 
HETATM    4  C7  UNL     1      24.568   9.338  29.122  1.00  0.00     0.018 C 
HETATM    5  C8  UNL     1      26.802  10.082  29.616  1.00  0.00     0.221 C 
HETATM    6  O2  UNL     1      27.212  10.987  28.730  1.00  0.00    -0.375 OA
HETATM    7  C15 UNL     1      28.129  10.679  27.783  1.00  0.00     0.174 C 
HETATM    8  C16 UNL     1      29.404  10.073  28.262  1.00  0.00     0.021 C 
HETATM    9  C17 UNL     1      30.238  11.148  28.915  1.00  0.00     0.007 C 
HETATM   10  C18 UNL     1      30.865  12.123  27.988  1.00  0.00     0.001 C 
HETATM   11  C19 UNL     1      31.577  11.448  26.827  1.00  0.00     0.001 C 
HETATM   12  C20 UNL     1      30.588  10.520  26.207  1.00  0.00     0.013 C 
HETATM   13  C21 UNL     1      30.200   9.388  27.179  1.00  0.00     0.066 C 
HETATM   14  C22 UNL     1      29.475   8.335  26.456  1.00  0.00     0.120 C 
HETATM   15  N3  UNL     1      28.598   7.328  26.801  1.00  0.00    -0.340 N 
ATOM     16  H3  UNL     1      27.683   7.527  26.397  1.00  0.00     0.167 HD
HETATM   17  C23 UNL     1      28.532   6.134  27.511  1.00  0.00     0.066 C 
HETATM   18  C27 UNL     1      27.578   5.807  28.537  1.00  0.00     0.165 C 
ENDROOT
BRANCH   5  19
HETATM   19  C9  UNL     1      25.940  10.756  30.649  1.00  0.00     0.247 C 
HETATM   20  O1  UNL     1      25.769  10.241  31.781  1.00  0.00    -0.271 OA
HETATM   21  N2  UNL     1      25.305  11.986  30.363  1.00  0.00    -0.358 N 
ATOM     22  H2  UNL     1      25.425  12.429  29.451  1.00  0.00     0.162 HD
BRANCH  21  23
HETATM   23  C10 UNL     1      24.484  12.609  31.375  1.00  0.00     0.131 C 
BRANCH  23  24
HETATM   24  C11 UNL     1      23.010  12.381  31.123  1.00  0.00    -0.035 C 
HETATM   25  C12 UNL     1      22.776  12.538  29.628  1.00  0.00     0.016 C 
HETATM   26  C13 UNL     1      22.194  13.445  31.822  1.00  0.00     0.016 C 
HETATM   27  C14 UNL     1      22.570  11.042  31.637  1.00  0.00     0.016 C 
ENDBRANCH  23  24
ENDBRANCH  21  23
ENDBRANCH   5  19
BRANCH   1  28
HETATM   28  C4  UNL     1      25.275   5.583  29.283  1.00  0.00     0.134 C 
BRANCH  28  29
HETATM   29  C2  UNL     1      24.396   5.759  30.450  1.00  0.00    -0.004 C 
HETATM   30  C1  UNL     1      24.713   4.535  31.350  1.00  0.00     0.011 C 
HETATM   31  C3  UNL     1      22.918   5.566  30.117  1.00  0.00     0.011 C 
ENDBRANCH  28  29
ENDBRANCH   1  28
BRANCH  18  32
HETATM   32  O4  UNL     1      27.822   4.592  28.982  1.00  0.00    -0.344 OA
ATOM     33  H4  UNL     1      28.637   4.545  29.467  1.00  0.00     0.219 HD
ENDBRANCH  18  32
BRANCH  17  34
HETATM   34  C24 UNL     1      29.908   5.656  27.936  1.00  0.00     0.032 C 
HETATM   35  C25 UNL     1      30.808   5.347  26.770  1.00  0.00     0.016 C 
HETATM   36  C26 UNL     1      30.535   6.447  29.038  1.00  0.00     0.016 C 
ENDBRANCH  17  34
BRANCH  14  37
HETATM   37  O3  UNL     1      29.730   8.375  25.173  1.00  0.00    -0.349 OA
ATOM     38  H3  UNL     1      28.931   8.378  24.661  1.00  0.00     0.219 HD
ENDBRANCH  14  37
TORSDOF 8
ENDMDL
