MODEL 1
REMARK VINA RESULT: -6.570448482      0.000      0.000
REMARK  8 active torsions:
REMARK  status: ('A' for Active; 'I' for Inactive)
REMARK    1  A    between atoms: C2_2  and  N1_3 
REMARK    2  A    between atoms: N1_3  and  C3_4 
REMARK    3  A    between atoms: N1_3  and  C26_35 
REMARK    4  A    between atoms: C3_4  and  C4_5 
REMARK    5  A    between atoms: C5_6  and  C6_7 
REMARK       I    between atoms: N2_11  and  C10_12 
REMARK       I    between atoms: C10_12  and  N5_17 
REMARK    6  A    between atoms: N5_17  and  C12_19 
REMARK    7  A    between atoms: C13_20  and  C14_21 
REMARK    8  A    between atoms: C15_24  and  C16_25 
ROOT
HETATM    1  C6  UNL     1      26.664   9.522  30.040  1.00  0.00     0.182 C 
HETATM    2  C7  UNL     1      26.508   8.035  29.683  1.00  0.00     0.040 C 
HETATM    3  C8  UNL     1      27.378   7.814  28.501  1.00  0.00     0.023 C 
HETATM    4  C9  UNL     1      28.018   9.130  28.219  1.00  0.00     0.143 C 
HETATM    5  N2  UNL     1      27.175  10.138  28.887  1.00  0.00    -0.202 N 
HETATM    6  C10 UNL     1      27.025  11.425  28.340  1.00  0.00     0.686 C 
HETATM    7  N3  UNL     1      25.891  11.996  28.422  1.00  0.00    -0.126 N 
ATOM      8  H3  UNL     1      25.152  11.471  28.889  1.00  0.00     0.197 HD
HETATM    9  C11 UNL     1      25.547  13.255  27.945  1.00  0.00     0.196 C 
HETATM   10  N4  UNL     1      25.266  14.298  27.529  1.00  0.00    -0.171 NA
HETATM   11  N5  UNL     1      28.079  12.120  27.688  1.00  0.00    -0.220 N 
ATOM     12  H5  UNL     1      27.823  12.865  27.040  1.00  0.00     0.178 HD
ENDROOT
BRANCH  11  13
HETATM   13  C12 UNL     1      29.463  11.855  27.870  1.00  0.00     0.119 A 
HETATM   14  C13 UNL     1      30.531  12.732  27.335  1.00  0.00     0.117 A 
HETATM   15  C15 UNL     1      30.343  11.487  26.664  1.00  0.00     0.031 A 
BRANCH  14  16
HETATM   16  C14 UNL     1      30.333  14.105  26.922  1.00  0.00     0.179 C 
HETATM   17  O1  UNL     1      31.266  14.882  26.617  1.00  0.00    -0.648 OA
HETATM   18  O2  UNL     1      29.055  14.678  26.831  1.00  0.00    -0.648 OA
ENDBRANCH  14  16
BRANCH  15  19
HETATM   19  C16 UNL     1      29.686  10.922  25.523  1.00  0.00     0.002 C 
HETATM   20  C17 UNL     1      29.012  11.541  24.426  1.00  0.00     0.011 C 
HETATM   21  C18 UNL     1      29.367  10.721  23.158  1.00  0.00    -0.006 C 
HETATM   22  C19 UNL     1      30.735  11.204  22.744  1.00  0.00     0.006 C 
HETATM   23  C23 UNL     1      29.717   9.382  23.776  1.00  0.00    -0.036 C 
HETATM   24  C20 UNL     1      31.575  10.789  23.965  1.00  0.00     0.011 C 
HETATM   25  C21 UNL     1      30.684   9.962  24.819  1.00  0.00    -0.033 C 
HETATM   26  C22 UNL     1      31.292   8.971  25.693  1.00  0.00     0.016 C 
HETATM   27  C24 UNL     1      28.560   8.669  24.382  1.00  0.00     0.016 C 
HETATM   28  C25 UNL     1      30.466   8.514  22.785  1.00  0.00     0.016 C 
ENDBRANCH  15  19
ENDBRANCH  11  13
BRANCH   1  29
HETATM   29  C5  UNL     1      25.357  10.081  30.385  1.00  0.00    -0.079 C 
HETATM   30  C4  UNL     1      24.253  10.522  30.685  1.00  0.00    -0.074 C 
BRANCH  30  31
HETATM   31  C3  UNL     1      22.949  11.058  31.067  1.00  0.00     0.366 C 
BRANCH  31  32
HETATM   32  N1  UNL     1      22.340  10.315  32.169  1.00  0.00     0.102 N 
BRANCH  32  33
HETATM   33  C2  UNL     1      21.601  11.120  33.043  1.00  0.00     0.269 C 
HETATM   34  C1  UNL     1      21.485  12.543  32.635  1.00  0.00     0.037 C 
ENDBRANCH  32  33
BRANCH  32  35
HETATM   35  C26 UNL     1      21.788   9.105  31.716  1.00  0.00     0.216 C 
HETATM   36  C27 UNL     1      20.312   8.910  32.002  1.00  0.00     0.042 C 
HETATM   37  C28 UNL     1      22.539   7.852  32.023  1.00  0.00     0.042 C 
ENDBRANCH  32  35
ENDBRANCH  31  32
ENDBRANCH  30  31
ENDBRANCH   1  29
TORSDOF 8
ENDMDL
MODEL 2
REMARK VINA RESULT: -6.532876906      0.737      1.228
REMARK  8 active torsions:
REMARK  status: ('A' for Active; 'I' for Inactive)
REMARK    1  A    between atoms: C2_2  and  N1_3 
REMARK    2  A    between atoms: N1_3  and  C3_4 
REMARK    3  A    between atoms: N1_3  and  C26_35 
REMARK    4  A    between atoms: C3_4  and  C4_5 
REMARK    5  A    between atoms: C5_6  and  C6_7 
REMARK       I    between atoms: N2_11  and  C10_12 
REMARK       I    between atoms: C10_12  and  N5_17 
REMARK    6  A    between atoms: N5_17  and  C12_19 
REMARK    7  A    between atoms: C13_20  and  C14_21 
REMARK    8  A    between atoms: C15_24  and  C16_25 
ROOT
HETATM    1  C6  UNL     1      26.871   9.061  29.624  1.00  0.00     0.182 C 
HETATM    2  C7  UNL     1      26.836   7.628  29.069  1.00  0.00     0.040 C 
HETATM    3  C8  UNL     1      27.723   7.639  27.879  1.00  0.00     0.023 C 
HETATM    4  C9  UNL     1      28.255   9.027  27.785  1.00  0.00     0.143 C 
HETATM    5  N2  UNL     1      27.333   9.865  28.571  1.00  0.00    -0.202 N 
HETATM    6  C10 UNL     1      27.081  11.198  28.200  1.00  0.00     0.686 C 
HETATM    7  N3  UNL     1      25.904  11.661  28.343  1.00  0.00    -0.126 N 
ATOM      8  H3  UNL     1      25.209  11.020  28.726  1.00  0.00     0.197 HD
HETATM    9  C11 UNL     1      25.460  12.942  28.036  1.00  0.00     0.196 C 
HETATM   10  N4  UNL     1      25.096  14.005  27.760  1.00  0.00    -0.171 NA
HETATM   11  N5  UNL     1      28.076  12.057  27.661  1.00  0.00    -0.220 N 
ATOM     12  H5  UNL     1      27.762  12.859  27.115  1.00  0.00     0.178 HD
ENDROOT
BRANCH  11  13
HETATM   13  C12 UNL     1      29.477  11.881  27.824  1.00  0.00     0.119 A 
HETATM   14  C13 UNL     1      30.474  12.880  27.373  1.00  0.00     0.117 A 
HETATM   15  C15 UNL     1      30.377  11.690  26.592  1.00  0.00     0.031 A 
BRANCH  14  16
HETATM   16  C14 UNL     1      30.172  14.266  27.085  1.00  0.00     0.179 C 
HETATM   17  O1  UNL     1      31.016  15.190  27.145  1.00  0.00    -0.648 OA
HETATM   18  O2  UNL     1      28.886  14.686  26.710  1.00  0.00    -0.648 OA
ENDBRANCH  14  16
BRANCH  15  19
HETATM   19  C16 UNL     1      29.761  11.182  25.403  1.00  0.00     0.002 C 
HETATM   20  C17 UNL     1      29.183  11.857  24.285  1.00  0.00     0.011 C 
HETATM   21  C18 UNL     1      29.571  11.048  23.019  1.00  0.00    -0.006 C 
HETATM   22  C19 UNL     1      30.982  11.471  22.696  1.00  0.00     0.006 C 
HETATM   23  C23 UNL     1      29.819   9.681  23.624  1.00  0.00    -0.036 C 
HETATM   24  C20 UNL     1      31.728  10.989  23.951  1.00  0.00     0.011 C 
HETATM   25  C21 UNL     1      30.751  10.190  24.734  1.00  0.00    -0.033 C 
HETATM   26  C22 UNL     1      31.258   9.151  25.616  1.00  0.00     0.016 C 
HETATM   27  C24 UNL     1      28.596   9.013  24.146  1.00  0.00     0.016 C 
HETATM   28  C25 UNL     1      30.581   8.798  22.656  1.00  0.00     0.016 C 
ENDBRANCH  15  19
ENDBRANCH  11  13
BRANCH   1  29
HETATM   29  C5  UNL     1      25.523   9.462  30.025  1.00  0.00    -0.079 C 
HETATM   30  C4  UNL     1      24.381   9.782  30.337  1.00  0.00    -0.074 C 
BRANCH  30  31
HETATM   31  C3  UNL     1      23.020  10.143  30.728  1.00  0.00     0.366 C 
BRANCH  31  32
HETATM   32  N1  UNL     1      22.989  11.223  31.712  1.00  0.00     0.102 N 
BRANCH  32  33
HETATM   33  C2  UNL     1      23.058  12.499  31.141  1.00  0.00     0.269 C 
HETATM   34  C1  UNL     1      24.299  13.255  31.448  1.00  0.00     0.037 C 
ENDBRANCH  32  33
BRANCH  32  35
HETATM   35  C26 UNL     1      22.034  10.968  32.710  1.00  0.00     0.216 C 
HETATM   36  C27 UNL     1      21.244   9.684  32.551  1.00  0.00     0.042 C 
HETATM   37  C28 UNL     1      21.120  12.088  33.085  1.00  0.00     0.042 C 
ENDBRANCH  32  35
ENDBRANCH  31  32
ENDBRANCH  30  31
ENDBRANCH   1  29
TORSDOF 8
ENDMDL
MODEL 3
REMARK VINA RESULT: -6.363228462      0.407      1.367
REMARK  8 active torsions:
REMARK  status: ('A' for Active; 'I' for Inactive)
REMARK    1  A    between atoms: C2_2  and  N1_3 
REMARK    2  A    between atoms: N1_3  and  C3_4 
REMARK    3  A    between atoms: N1_3  and  C26_35 
REMARK    4  A    between atoms: C3_4  and  C4_5 
REMARK    5  A    between atoms: C5_6  and  C6_7 
REMARK       I    between atoms: N2_11  and  C10_12 
REMARK       I    between atoms: C10_12  and  N5_17 
REMARK    6  A    between atoms: N5_17  and  C12_19 
REMARK    7  A    between atoms: C13_20  and  C14_21 
REMARK    8  A    between atoms: C15_24  and  C16_25 
ROOT
HETATM    1  C6  UNL     1      26.643   9.581  30.007  1.00  0.00     0.182 C 
HETATM    2  C7  UNL     1      26.455   8.095  29.659  1.00  0.00     0.040 C 
HETATM    3  C8  UNL     1      27.333   7.844  28.489  1.00  0.00     0.023 C 
HETATM    4  C9  UNL     1      28.008   9.141  28.206  1.00  0.00     0.143 C 
HETATM    5  N2  UNL     1      27.183  10.175  28.856  1.00  0.00    -0.202 N 
HETATM    6  C10 UNL     1      27.072  11.461  28.297  1.00  0.00     0.686 C 
HETATM    7  N3  UNL     1      25.951  12.060  28.360  1.00  0.00    -0.126 N 
ATOM      8  H3  UNL     1      25.194  11.557  28.822  1.00  0.00     0.197 HD
HETATM    9  C11 UNL     1      25.644  13.324  27.869  1.00  0.00     0.196 C 
HETATM   10  N4  UNL     1      25.393  14.370  27.441  1.00  0.00    -0.171 NA
HETATM   11  N5  UNL     1      28.151  12.125  27.652  1.00  0.00    -0.220 N 
ATOM     12  H5  UNL     1      27.920  12.870  26.995  1.00  0.00     0.178 HD
ENDROOT
BRANCH  11  13
HETATM   13  C12 UNL     1      29.525  11.828  27.854  1.00  0.00     0.119 A 
HETATM   14  C13 UNL     1      30.620  12.678  27.333  1.00  0.00     0.117 A 
HETATM   15  C15 UNL     1      30.412  11.437  26.660  1.00  0.00     0.031 A 
BRANCH  14  16
HETATM   16  C14 UNL     1      30.461  14.055  26.916  1.00  0.00     0.179 C 
HETATM   17  O1  UNL     1      31.414  14.802  26.600  1.00  0.00    -0.648 OA
HETATM   18  O2  UNL     1      29.200  14.667  26.836  1.00  0.00    -0.648 OA
ENDBRANCH  14  16
BRANCH  15  19
HETATM   19  C16 UNL     1      29.758  10.887  25.511  1.00  0.00     0.002 C 
HETATM   20  C17 UNL     1      29.136  11.521  24.392  1.00  0.00     0.011 C 
HETATM   21  C18 UNL     1      29.484  10.672  23.141  1.00  0.00    -0.006 C 
HETATM   22  C19 UNL     1      30.880  11.093  22.754  1.00  0.00     0.006 C 
HETATM   23  C23 UNL     1      29.764   9.328  23.781  1.00  0.00    -0.036 C 
HETATM   24  C20 UNL     1      31.674  10.658  23.998  1.00  0.00     0.011 C 
HETATM   25  C21 UNL     1      30.731   9.879  24.840  1.00  0.00    -0.033 C 
HETATM   26  C22 UNL     1      31.277   8.873  25.737  1.00  0.00     0.016 C 
HETATM   27  C24 UNL     1      28.565   8.670  24.368  1.00  0.00     0.016 C 
HETATM   28  C25 UNL     1      30.498   8.418  22.817  1.00  0.00     0.016 C 
ENDBRANCH  15  19
ENDBRANCH  11  13
BRANCH   1  29
HETATM   29  C5  UNL     1      25.346  10.175  30.331  1.00  0.00    -0.079 C 
HETATM   30  C4  UNL     1      24.269  10.678  30.631  1.00  0.00    -0.074 C 
BRANCH  30  31
HETATM   31  C3  UNL     1      22.993  11.302  30.976  1.00  0.00     0.366 C 
BRANCH  31  32
HETATM   32  N1  UNL     1      22.225  10.510  31.934  1.00  0.00     0.102 N 
BRANCH  32  33
HETATM   33  C2  UNL     1      22.818   9.281  32.244  1.00  0.00     0.269 C 
HETATM   34  C1  UNL     1      22.039   8.088  31.825  1.00  0.00     0.037 C 
ENDBRANCH  32  33
BRANCH  32  35
HETATM   35  C26 UNL     1      21.733  11.317  32.974  1.00  0.00     0.216 C 
HETATM   36  C27 UNL     1      20.597  10.723  33.784  1.00  0.00     0.042 C 
HETATM   37  C28 UNL     1      21.440  12.746  32.652  1.00  0.00     0.042 C 
ENDBRANCH  32  35
ENDBRANCH  31  32
ENDBRANCH  30  31
ENDBRANCH   1  29
TORSDOF 8
ENDMDL
MODEL 4
REMARK VINA RESULT: -6.165509957      1.287      2.155
REMARK  8 active torsions:
REMARK  status: ('A' for Active; 'I' for Inactive)
REMARK    1  A    between atoms: C2_2  and  N1_3 
REMARK    2  A    between atoms: N1_3  and  C3_4 
REMARK    3  A    between atoms: N1_3  and  C26_35 
REMARK    4  A    between atoms: C3_4  and  C4_5 
REMARK    5  A    between atoms: C5_6  and  C6_7 
REMARK       I    between atoms: N2_11  and  C10_12 
REMARK       I    between atoms: C10_12  and  N5_17 
REMARK    6  A    between atoms: N5_17  and  C12_19 
REMARK    7  A    between atoms: C13_20  and  C14_21 
REMARK    8  A    between atoms: C15_24  and  C16_25 
ROOT
HETATM    1  C6  UNL     1      27.284   9.012  28.900  1.00  0.00     0.182 C 
HETATM    2  C7  UNL     1      27.337   7.649  28.190  1.00  0.00     0.040 C 
HETATM    3  C8  UNL     1      28.356   7.796  27.120  1.00  0.00     0.023 C 
HETATM    4  C9  UNL     1      28.872   9.188  27.242  1.00  0.00     0.143 C 
HETATM    5  N2  UNL     1      27.851   9.930  28.003  1.00  0.00    -0.202 N 
HETATM    6  C10 UNL     1      27.621  11.295  27.754  1.00  0.00     0.686 C 
HETATM    7  N3  UNL     1      26.429  11.734  27.809  1.00  0.00    -0.126 N 
ATOM      8  H3  UNL     1      25.705  11.052  28.035  1.00  0.00     0.197 HD
HETATM    9  C11 UNL     1      26.002  13.040  27.594  1.00  0.00     0.196 C 
HETATM   10  N4  UNL     1      25.655  14.126  27.397  1.00  0.00    -0.171 NA
HETATM   11  N5  UNL     1      28.658  12.212  27.433  1.00  0.00    -0.220 N 
ATOM     12  H5  UNL     1      28.396  13.069  26.946  1.00  0.00     0.178 HD
ENDROOT
BRANCH  11  13
HETATM   13  C12 UNL     1      30.033  12.024  27.738  1.00  0.00     0.119 A 
HETATM   14  C13 UNL     1      31.050  13.088  27.569  1.00  0.00     0.117 A 
HETATM   15  C15 UNL     1      31.080  12.031  26.611  1.00  0.00     0.031 A 
BRANCH  14  16
HETATM   16  C14 UNL     1      30.749  14.499  27.459  1.00  0.00     0.179 C 
HETATM   17  O1  UNL     1      29.819  14.961  26.760  1.00  0.00    -0.648 OA
HETATM   18  O2  UNL     1      31.494  15.475  28.141  1.00  0.00    -0.648 OA
ENDBRANCH  14  16
BRANCH  15  19
HETATM   19  C16 UNL     1      30.625  11.707  25.292  1.00  0.00     0.002 C 
HETATM   20  C17 UNL     1      30.228  12.544  24.205  1.00  0.00     0.011 C 
HETATM   21  C18 UNL     1      30.769  11.886  22.909  1.00  0.00    -0.006 C 
HETATM   22  C19 UNL     1      32.222  12.284  22.839  1.00  0.00     0.006 C 
HETATM   23  C23 UNL     1      30.894  10.443  23.355  1.00  0.00    -0.036 C 
HETATM   24  C20 UNL     1      32.771  11.613  24.110  1.00  0.00     0.011 C 
HETATM   25  C21 UNL     1      31.673  10.765  24.639  1.00  0.00    -0.033 C 
HETATM   26  C22 UNL     1      32.023   9.601  25.437  1.00  0.00     0.016 C 
HETATM   27  C24 UNL     1      29.592   9.769  23.612  1.00  0.00     0.016 C 
HETATM   28  C25 UNL     1      31.761   9.658  22.392  1.00  0.00     0.016 C 
ENDBRANCH  15  19
ENDBRANCH  11  13
BRANCH   1  29
HETATM   29  C5  UNL     1      25.892   9.360  29.181  1.00  0.00    -0.079 C 
HETATM   30  C4  UNL     1      24.718   9.648  29.388  1.00  0.00    -0.074 C 
BRANCH  30  31
HETATM   31  C3  UNL     1      23.314   9.964  29.645  1.00  0.00     0.366 C 
BRANCH  31  32
HETATM   32  N1  UNL     1      23.150  10.966  30.696  1.00  0.00     0.102 N 
BRANCH  32  33
HETATM   33  C2  UNL     1      23.354  10.460  31.985  1.00  0.00     0.269 C 
HETATM   34  C1  UNL     1      22.510   9.291  32.338  1.00  0.00     0.037 C 
ENDBRANCH  32  33
BRANCH  32  35
HETATM   35  C26 UNL     1      23.754  12.181  30.332  1.00  0.00     0.216 C 
HETATM   36  C27 UNL     1      24.761  12.736  31.320  1.00  0.00     0.042 C 
HETATM   37  C28 UNL     1      22.858  13.273  29.846  1.00  0.00     0.042 C 
ENDBRANCH  32  35
ENDBRANCH  31  32
ENDBRANCH  30  31
ENDBRANCH   1  29
TORSDOF 8
ENDMDL
MODEL 5
REMARK VINA RESULT: -6.152353026      2.331      4.429
REMARK  8 active torsions:
REMARK  status: ('A' for Active; 'I' for Inactive)
REMARK    1  A    between atoms: C2_2  and  N1_3 
REMARK    2  A    between atoms: N1_3  and  C3_4 
REMARK    3  A    between atoms: N1_3  and  C26_35 
REMARK    4  A    between atoms: C3_4  and  C4_5 
REMARK    5  A    between atoms: C5_6  and  C6_7 
REMARK       I    between atoms: N2_11  and  C10_12 
REMARK       I    between atoms: C10_12  and  N5_17 
REMARK    6  A    between atoms: N5_17  and  C12_19 
REMARK    7  A    between atoms: C13_20  and  C14_21 
REMARK    8  A    between atoms: C15_24  and  C16_25 
ROOT
HETATM    1  C6  UNL     1      24.142  11.576  28.587  1.00  0.00     0.182 C 
HETATM    2  C7  UNL     1      23.324  12.564  29.435  1.00  0.00     0.040 C 
HETATM    3  C8  UNL     1      24.146  13.798  29.515  1.00  0.00     0.023 C 
HETATM    4  C9  UNL     1      25.373  13.518  28.718  1.00  0.00     0.143 C 
HETATM    5  N2  UNL     1      25.463  12.050  28.621  1.00  0.00    -0.202 N 
HETATM    6  C10 UNL     1      26.714  11.409  28.575  1.00  0.00     0.686 C 
HETATM    7  N3  UNL     1      26.853  10.297  29.178  1.00  0.00    -0.126 N 
ATOM      8  H3  UNL     1      26.031   9.938  29.663  1.00  0.00     0.197 HD
HETATM    9  C11 UNL     1      28.001   9.516  29.250  1.00  0.00     0.196 C 
HETATM   10  N4  UNL     1      28.967   8.883  29.319  1.00  0.00    -0.171 NA
HETATM   11  N5  UNL     1      27.839  11.947  27.895  1.00  0.00    -0.220 N 
ATOM     12  H5  UNL     1      28.763  11.621  28.180  1.00  0.00     0.178 HD
ENDROOT
BRANCH  11  13
HETATM   13  C12 UNL     1      27.775  12.906  26.848  1.00  0.00     0.119 A 
HETATM   14  C13 UNL     1      28.215  12.620  25.463  1.00  0.00     0.117 A 
HETATM   15  C15 UNL     1      29.070  13.463  26.234  1.00  0.00     0.031 A 
BRANCH  14  16
HETATM   16  C14 UNL     1      28.388  11.291  24.916  1.00  0.00     0.179 C 
HETATM   17  O1  UNL     1      28.679  11.062  23.720  1.00  0.00    -0.648 OA
HETATM   18  O2  UNL     1      28.236  10.137  25.702  1.00  0.00    -0.648 OA
ENDBRANCH  14  16
BRANCH  15  19
HETATM   19  C16 UNL     1      30.251  13.416  27.042  1.00  0.00     0.002 C 
HETATM   20  C17 UNL     1      31.008  12.308  27.533  1.00  0.00     0.011 C 
HETATM   21  C18 UNL     1      32.504  12.709  27.444  1.00  0.00    -0.006 C 
HETATM   22  C19 UNL     1      32.889  12.485  26.003  1.00  0.00     0.006 C 
HETATM   23  C23 UNL     1      32.394  14.220  27.474  1.00  0.00    -0.036 C 
HETATM   24  C20 UNL     1      31.968  13.493  25.293  1.00  0.00     0.011 C 
HETATM   25  C21 UNL     1      31.333  14.301  26.366  1.00  0.00    -0.033 C 
HETATM   26  C22 UNL     1      30.900  15.652  26.046  1.00  0.00     0.016 C 
HETATM   27  C24 UNL     1      31.926  14.772  28.774  1.00  0.00     0.016 C 
HETATM   28  C25 UNL     1      33.688  14.860  27.016  1.00  0.00     0.016 C 
ENDBRANCH  15  19
ENDBRANCH  11  13
BRANCH   1  29
HETATM   29  C5  UNL     1      24.060  10.241  29.179  1.00  0.00    -0.079 C 
HETATM   30  C4  UNL     1      23.960   9.124  29.674  1.00  0.00    -0.074 C 
BRANCH  30  31
HETATM   31  C3  UNL     1      23.844   7.781  30.239  1.00  0.00     0.366 C 
BRANCH  31  32
HETATM   32  N1  UNL     1      22.939   7.734  31.386  1.00  0.00     0.102 N 
BRANCH  32  33
HETATM   33  C2  UNL     1      22.050   8.814  31.439  1.00  0.00     0.269 C 
HETATM   34  C1  UNL     1      22.204   9.691  32.628  1.00  0.00     0.037 C 
ENDBRANCH  32  33
BRANCH  32  35
HETATM   35  C26 UNL     1      22.451   6.432  31.588  1.00  0.00     0.216 C 
HETATM   36  C27 UNL     1      22.512   5.513  30.384  1.00  0.00     0.042 C 
HETATM   37  C28 UNL     1      21.129   6.295  32.270  1.00  0.00     0.042 C 
ENDBRANCH  32  35
ENDBRANCH  31  32
ENDBRANCH  30  31
ENDBRANCH   1  29
TORSDOF 8
ENDMDL
