MODEL 1
REMARK VINA RESULT: -7.215184277      0.000      0.000
REMARK  5 active torsions:
REMARK  status: ('A' for Active; 'I' for Inactive)
REMARK    1  A    between atoms: O1_2  and  C2_3 
REMARK    2  A    between atoms: C5_6  and  C6_7 
REMARK    3  A    between atoms: C14_18  and  O2_19 
REMARK    4  A    between atoms: C21_27  and  N2_28 
REMARK    5  A    between atoms: C28_35  and  O3_36 
ROOT
HETATM    1  C6  UNL     1      25.686   2.297  32.709  1.00  0.00    -0.004 C 
HETATM    2  C7  UNL     1      24.941   1.115  32.080  1.00  0.00     0.020 C 
HETATM    3  C8  UNL     1      24.446   0.592  33.361  1.00  0.00    -0.008 C 
HETATM    4  C9  UNL     1      24.755  -0.633  34.037  1.00  0.00     0.010 C 
HETATM    5  C10 UNL     1      25.904  -1.296  34.527  1.00  0.00    -0.009 C 
HETATM    6  C11 UNL     1      27.132  -1.370  33.602  1.00  0.00     0.012 C 
HETATM    7  C12 UNL     1      27.658  -0.013  33.703  1.00  0.00     0.025 C 
HETATM    8  C13 UNL     1      29.175   0.150  33.917  1.00  0.00     0.241 C 
HETATM    9  N1  UNL     1      29.182   1.599  33.968  1.00  0.00    -0.042 N 
ATOM     10  H11 UNL     1      29.636   2.013  33.154  1.00  0.00     0.280 HD
ATOM     11  H12 UNL     1      29.816   1.957  34.683  1.00  0.00     0.280 HD
HETATM   12  C14 UNL     1      27.845   2.072  34.143  1.00  0.00     0.233 C 
HETATM   13  C15 UNL     1      27.125   2.435  32.841  1.00  0.00     0.084 C 
HETATM   14  C16 UNL     1      27.100   0.905  34.693  1.00  0.00     0.027 C 
HETATM   15  C17 UNL     1      25.823   1.465  34.969  1.00  0.00     0.021 C 
HETATM   16  C18 UNL     1      24.911   1.928  33.888  1.00  0.00     0.004 C 
HETATM   17  C19 UNL     1      27.385   0.245  35.979  1.00  0.00     0.006 C 
HETATM   18  C20 UNL     1      26.910   0.797  37.263  1.00  0.00     0.039 C 
HETATM   19  C21 UNL     1      26.593  -0.468  38.077  1.00  0.00     0.190 C 
HETATM   20  C25 UNL     1      25.772  -1.263  37.060  1.00  0.00     0.039 C 
HETATM   21  C26 UNL     1      26.566  -1.048  35.838  1.00  0.00    -0.003 C 
ENDROOT
BRANCH   1  22
HETATM   22  C5  UNL     1      25.119   3.519  32.027  1.00  0.00    -0.046 A 
HETATM   23  C4  UNL     1      25.986   4.064  31.095  1.00  0.00     0.011 A 
HETATM   24  C3  UNL     1      25.682   5.205  30.382  1.00  0.00     0.040 A 
HETATM   25  C2  UNL     1      24.495   5.816  30.597  1.00  0.00     0.101 A 
HETATM   26  C28 UNL     1      23.585   5.279  31.555  1.00  0.00     0.102 A 
HETATM   27  C27 UNL     1      23.943   4.114  32.254  1.00  0.00     0.047 A 
BRANCH  25  28
HETATM   28  O1  UNL     1      24.101   6.975  29.913  1.00  0.00    -0.353 OA
HETATM   29  C1  UNL     1      24.957   7.606  29.001  1.00  0.00     0.210 C 
ENDBRANCH  25  28
BRANCH  26  30
HETATM   30  O3  UNL     1      22.469   5.940  31.708  1.00  0.00    -0.353 OA
HETATM   31  C29 UNL     1      21.420   6.304  32.436  1.00  0.00     0.210 C 
ENDBRANCH  26  30
ENDBRANCH   1  22
BRANCH  12  32
HETATM   32  O2  UNL     1      27.819   3.101  35.083  1.00  0.00    -0.364 OA
ATOM     33  H2  UNL     1      27.375   3.861  34.724  1.00  0.00     0.212 HD
ENDBRANCH  12  32
BRANCH  19  34
HETATM   34  N2  UNL     1      25.889  -0.221  39.280  1.00  0.00    -0.074 N 
HETATM   35  C22 UNL     1      26.577   0.871  39.985  1.00  0.00     0.272 C 
HETATM   36  C23 UNL     1      25.912  -1.352  40.219  1.00  0.00     0.272 C 
HETATM   37  C24 UNL     1      24.496   0.127  39.109  1.00  0.00     0.272 C 
ENDBRANCH  19  34
TORSDOF 5
ENDMDL
MODEL 2
REMARK VINA RESULT: -7.159637730      8.023      9.730
REMARK  5 active torsions:
REMARK  status: ('A' for Active; 'I' for Inactive)
REMARK    1  A    between atoms: O1_2  and  C2_3 
REMARK    2  A    between atoms: C5_6  and  C6_7 
REMARK    3  A    between atoms: C14_18  and  O2_19 
REMARK    4  A    between atoms: C21_27  and  N2_28 
REMARK    5  A    between atoms: C28_35  and  O3_36 
ROOT
HETATM    1  C6  UNL     1      25.971   9.040  29.300  1.00  0.00    -0.004 C 
HETATM    2  C7  UNL     1      25.535   7.688  28.724  1.00  0.00     0.020 C 
HETATM    3  C8  UNL     1      26.677   6.949  29.277  1.00  0.00    -0.008 C 
HETATM    4  C9  UNL     1      27.764   6.296  28.608  1.00  0.00     0.010 C 
HETATM    5  C10 UNL     1      28.785   6.640  27.692  1.00  0.00    -0.009 C 
HETATM    6  C11 UNL     1      28.387   7.476  26.463  1.00  0.00     0.012 C 
HETATM    7  C12 UNL     1      28.226   8.802  27.048  1.00  0.00     0.025 C 
HETATM    8  C13 UNL     1      28.864   9.992  26.307  1.00  0.00     0.241 C 
HETATM    9  N1  UNL     1      28.460  11.015  27.251  1.00  0.00    -0.042 N 
ATOM     10  H11 UNL     1      27.754  11.641  26.865  1.00  0.00     0.280 HD
ATOM     11  H12 UNL     1      29.193  11.706  27.410  1.00  0.00     0.280 HD
HETATM   12  C14 UNL     1      28.029  10.394  28.463  1.00  0.00     0.233 C 
HETATM   13  C15 UNL     1      26.518  10.158  28.553  1.00  0.00     0.084 C 
HETATM   14  C16 UNL     1      28.638   9.035  28.430  1.00  0.00     0.027 C 
HETATM   15  C17 UNL     1      28.290   8.516  29.707  1.00  0.00     0.021 C 
HETATM   16  C18 UNL     1      26.882   8.210  30.080  1.00  0.00     0.004 C 
HETATM   17  C19 UNL     1      30.085   8.754  28.414  1.00  0.00     0.006 C 
HETATM   18  C20 UNL     1      30.900   8.784  29.644  1.00  0.00     0.039 C 
HETATM   19  C21 UNL     1      31.917   7.656  29.402  1.00  0.00     0.190 C 
HETATM   20  C25 UNL     1      30.989   6.530  28.943  1.00  0.00     0.039 C 
HETATM   21  C26 UNL     1      30.094   7.265  28.033  1.00  0.00    -0.003 C 
ENDROOT
BRANCH   1  22
HETATM   22  C5  UNL     1      24.795   9.506  30.125  1.00  0.00    -0.046 A 
HETATM   23  C4  UNL     1      24.967  10.785  30.628  1.00  0.00     0.011 A 
HETATM   24  C3  UNL     1      24.029  11.392  31.437  1.00  0.00     0.040 A 
HETATM   25  C2  UNL     1      22.900  10.718  31.752  1.00  0.00     0.101 A 
HETATM   26  C28 UNL     1      22.699   9.399  31.251  1.00  0.00     0.102 A 
HETATM   27  C27 UNL     1      23.685   8.825  30.430  1.00  0.00     0.047 A 
BRANCH  25  28
HETATM   28  O1  UNL     1      21.891  11.261  32.562  1.00  0.00    -0.353 OA
HETATM   29  C1  UNL     1      21.629  12.637  32.570  1.00  0.00     0.210 C 
ENDBRANCH  25  28
BRANCH  26  30
HETATM   30  O3  UNL     1      21.587   8.818  31.616  1.00  0.00    -0.353 OA
HETATM   31  C29 UNL     1      20.921   7.925  32.338  1.00  0.00     0.210 C 
ENDBRANCH  26  30
ENDBRANCH   1  22
BRANCH  12  32
HETATM   32  O2  UNL     1      28.537  11.084  29.564  1.00  0.00    -0.364 OA
ATOM     33  H2  UNL     1      28.418  12.020  29.446  1.00  0.00     0.212 HD
ENDBRANCH  12  32
BRANCH  19  34
HETATM   34  N2  UNL     1      32.681   7.310  30.542  1.00  0.00    -0.074 N 
HETATM   35  C22 UNL     1      32.295   8.220  31.632  1.00  0.00     0.272 C 
HETATM   36  C23 UNL     1      34.126   7.519  30.368  1.00  0.00     0.272 C 
HETATM   37  C24 UNL     1      32.526   5.943  30.986  1.00  0.00     0.272 C 
ENDBRANCH  19  34
TORSDOF 5
ENDMDL
MODEL 3
REMARK VINA RESULT: -6.810491441      8.218      9.942
REMARK  5 active torsions:
REMARK  status: ('A' for Active; 'I' for Inactive)
REMARK    1  A    between atoms: O1_2  and  C2_3 
REMARK    2  A    between atoms: C5_6  and  C6_7 
REMARK    3  A    between atoms: C14_18  and  O2_19 
REMARK    4  A    between atoms: C21_27  and  N2_28 
REMARK    5  A    between atoms: C28_35  and  O3_36 
ROOT
HETATM    1  C6  UNL     1      26.044   8.965  29.233  1.00  0.00    -0.004 C 
HETATM    2  C7  UNL     1      25.685   7.612  28.610  1.00  0.00     0.020 C 
HETATM    3  C8  UNL     1      26.877   6.924  29.126  1.00  0.00    -0.008 C 
HETATM    4  C9  UNL     1      27.994   6.365  28.425  1.00  0.00     0.010 C 
HETATM    5  C10 UNL     1      28.983   6.804  27.514  1.00  0.00    -0.009 C 
HETATM    6  C11 UNL     1      28.522   7.660  26.320  1.00  0.00     0.012 C 
HETATM    7  C12 UNL     1      28.286   8.951  26.957  1.00  0.00     0.025 C 
HETATM    8  C13 UNL     1      28.842  10.204  26.255  1.00  0.00     0.241 C 
HETATM    9  N1  UNL     1      28.386  11.165  27.241  1.00  0.00    -0.042 N 
ATOM     10  H11 UNL     1      27.638  11.760  26.884  1.00  0.00     0.280 HD
ATOM     11  H12 UNL     1      29.077  11.893  27.419  1.00  0.00     0.280 HD
HETATM   12  C14 UNL     1      28.006  10.473  28.432  1.00  0.00     0.233 C 
HETATM   13  C15 UNL     1      26.514  10.141  28.525  1.00  0.00     0.084 C 
HETATM   14  C16 UNL     1      28.697   9.157  28.343  1.00  0.00     0.027 C 
HETATM   15  C17 UNL     1      28.395   8.571  29.602  1.00  0.00     0.021 C 
HETATM   16  C18 UNL     1      27.012   8.165  29.974  1.00  0.00     0.004 C 
HETATM   17  C19 UNL     1      30.158   8.966  28.305  1.00  0.00     0.006 C 
HETATM   18  C20 UNL     1      30.983   9.001  29.528  1.00  0.00     0.039 C 
HETATM   19  C21 UNL     1      32.065   7.948  29.236  1.00  0.00     0.190 C 
HETATM   20  C25 UNL     1      31.203   6.784  28.742  1.00  0.00     0.039 C 
HETATM   21  C26 UNL     1      30.255   7.496  27.868  1.00  0.00    -0.003 C 
ENDROOT
BRANCH   1  22
HETATM   22  C5  UNL     1      24.850   9.327  30.084  1.00  0.00    -0.046 A 
HETATM   23  C4  UNL     1      24.009   8.252  30.316  1.00  0.00     0.011 A 
HETATM   24  C3  UNL     1      22.842   8.369  31.041  1.00  0.00     0.040 A 
HETATM   25  C2  UNL     1      22.502   9.577  31.545  1.00  0.00     0.101 A 
HETATM   26  C28 UNL     1      23.347  10.703  31.319  1.00  0.00     0.102 A 
HETATM   27  C27 UNL     1      24.527  10.529  30.574  1.00  0.00     0.047 A 
BRANCH  25  28
HETATM   28  O1  UNL     1      21.338   9.786  32.299  1.00  0.00    -0.353 OA
HETATM   29  C1  UNL     1      21.022   8.964  33.389  1.00  0.00     0.210 C 
ENDBRANCH  25  28
BRANCH  26  30
HETATM   30  O3  UNL     1      22.936  11.832  31.831  1.00  0.00    -0.353 OA
HETATM   31  C29 UNL     1      22.540  13.092  31.707  1.00  0.00     0.210 C 
ENDBRANCH  26  30
ENDBRANCH   1  22
BRANCH  12  32
HETATM   32  O2  UNL     1      28.482  11.153  29.553  1.00  0.00    -0.364 OA
ATOM     33  H2  UNL     1      29.328  11.542  29.365  1.00  0.00     0.212 HD
ENDBRANCH  12  32
BRANCH  19  34
HETATM   34  N2  UNL     1      32.859   7.608  30.356  1.00  0.00    -0.074 N 
HETATM   35  C22 UNL     1      32.343   8.354  31.514  1.00  0.00     0.272 C 
HETATM   36  C23 UNL     1      34.264   8.028  30.231  1.00  0.00     0.272 C 
HETATM   37  C24 UNL     1      32.892   6.198  30.674  1.00  0.00     0.272 C 
ENDBRANCH  19  34
TORSDOF 5
ENDMDL
MODEL 4
REMARK VINA RESULT: -6.630971319      7.786      9.773
REMARK  5 active torsions:
REMARK  status: ('A' for Active; 'I' for Inactive)
REMARK    1  A    between atoms: O1_2  and  C2_3 
REMARK    2  A    between atoms: C5_6  and  C6_7 
REMARK    3  A    between atoms: C14_18  and  O2_19 
REMARK    4  A    between atoms: C21_27  and  N2_28 
REMARK    5  A    between atoms: C28_35  and  O3_36 
ROOT
HETATM    1  C6  UNL     1      26.215   9.673  29.249  1.00  0.00    -0.004 C 
HETATM    2  C7  UNL     1      25.515   8.416  28.721  1.00  0.00     0.020 C 
HETATM    3  C8  UNL     1      26.463   7.482  29.343  1.00  0.00    -0.008 C 
HETATM    4  C9  UNL     1      27.400   6.582  28.739  1.00  0.00     0.010 C 
HETATM    5  C10 UNL     1      28.490   6.655  27.840  1.00  0.00    -0.009 C 
HETATM    6  C11 UNL     1      28.304   7.492  26.562  1.00  0.00     0.012 C 
HETATM    7  C12 UNL     1      28.415   8.851  27.081  1.00  0.00     0.025 C 
HETATM    8  C13 UNL     1      29.306   9.840  26.306  1.00  0.00     0.241 C 
HETATM    9  N1  UNL     1      29.108  10.972  27.190  1.00  0.00    -0.042 N 
ATOM     10  H11 UNL     1      28.559  11.712  26.753  1.00  0.00     0.280 HD
ATOM     11  H12 UNL     1      29.968  11.500  27.339  1.00  0.00     0.280 HD
HETATM   12  C14 UNL     1      28.530  10.518  28.415  1.00  0.00     0.233 C 
HETATM   13  C15 UNL     1      27.003  10.610  28.469  1.00  0.00     0.084 C 
HETATM   14  C16 UNL     1      28.839   9.062  28.463  1.00  0.00     0.027 C 
HETATM   15  C17 UNL     1      28.363   8.694  29.751  1.00  0.00     0.021 C 
HETATM   16  C18 UNL     1      26.914   8.711  30.094  1.00  0.00     0.004 C 
HETATM   17  C19 UNL     1      30.193   8.482  28.505  1.00  0.00     0.006 C 
HETATM   18  C20 UNL     1      30.971   8.403  29.756  1.00  0.00     0.039 C 
HETATM   19  C21 UNL     1      31.731   7.075  29.598  1.00  0.00     0.190 C 
HETATM   20  C25 UNL     1      30.594   6.148  29.163  1.00  0.00     0.039 C 
HETATM   21  C26 UNL     1      29.894   7.007  28.193  1.00  0.00    -0.003 C 
ENDROOT
BRANCH   1  22
HETATM   22  C5  UNL     1      25.149  10.418  30.014  1.00  0.00    -0.046 A 
HETATM   23  C4  UNL     1      25.277  11.793  29.913  1.00  0.00     0.011 A 
HETATM   24  C3  UNL     1      24.428  12.665  30.563  1.00  0.00     0.040 A 
HETATM   25  C2  UNL     1      23.433  12.162  31.328  1.00  0.00     0.101 A 
HETATM   26  C28 UNL     1      23.280  10.750  31.454  1.00  0.00     0.102 A 
HETATM   27  C27 UNL     1      24.171   9.905  30.770  1.00  0.00     0.047 A 
BRANCH  25  28
HETATM   28  O1  UNL     1      22.521  12.973  32.019  1.00  0.00    -0.353 OA
HETATM   29  C1  UNL     1      21.501  13.655  31.343  1.00  0.00     0.210 C 
ENDBRANCH  25  28
BRANCH  26  30
HETATM   30  O3  UNL     1      22.302  10.352  32.223  1.00  0.00    -0.353 OA
HETATM   31  C29 UNL     1      21.315   9.513  32.514  1.00  0.00     0.210 C 
ENDBRANCH  26  30
ENDBRANCH   1  22
BRANCH  12  32
HETATM   32  O2  UNL     1      29.150  11.142  29.498  1.00  0.00    -0.364 OA
ATOM     33  H2  UNL     1      29.651  10.507  29.998  1.00  0.00     0.212 HD
ENDBRANCH  12  32
BRANCH  19  34
HETATM   34  N2  UNL     1      32.380   6.635  30.776  1.00  0.00    -0.074 N 
HETATM   35  C22 UNL     1      33.760   6.274  30.417  1.00  0.00     0.272 C 
HETATM   36  C23 UNL     1      31.802   5.407  31.343  1.00  0.00     0.272 C 
HETATM   37  C24 UNL     1      32.404   7.599  31.853  1.00  0.00     0.272 C 
ENDBRANCH  19  34
TORSDOF 5
ENDMDL
MODEL 5
REMARK VINA RESULT: -6.452038270      4.133      5.956
REMARK  5 active torsions:
REMARK  status: ('A' for Active; 'I' for Inactive)
REMARK    1  A    between atoms: O1_2  and  C2_3 
REMARK    2  A    between atoms: C5_6  and  C6_7 
REMARK    3  A    between atoms: C14_18  and  O2_19 
REMARK    4  A    between atoms: C21_27  and  N2_28 
REMARK    5  A    between atoms: C28_35  and  O3_36 
ROOT
HETATM    1  C6  UNL     1      26.478   4.242  30.379  1.00  0.00    -0.004 C 
HETATM    2  C7  UNL     1      25.886   4.116  31.786  1.00  0.00     0.020 C 
HETATM    3  C8  UNL     1      27.187   3.949  32.448  1.00  0.00    -0.008 C 
HETATM    4  C9  UNL     1      27.732   2.819  33.139  1.00  0.00     0.010 C 
HETATM    5  C10 UNL     1      28.011   1.460  32.863  1.00  0.00    -0.009 C 
HETATM    6  C11 UNL     1      26.918   0.639  32.155  1.00  0.00     0.012 C 
HETATM    7  C12 UNL     1      27.031   1.121  30.783  1.00  0.00     0.025 C 
HETATM    8  C13 UNL     1      27.038   0.071  29.656  1.00  0.00     0.241 C 
HETATM    9  N1  UNL     1      27.182   1.005  28.556  1.00  0.00    -0.042 N 
ATOM     10  H11 UNL     1      26.340   1.061  27.983  1.00  0.00     0.280 HD
ATOM     11  H12 UNL     1      27.821   0.663  27.839  1.00  0.00     0.280 HD
HETATM   12  C14 UNL     1      27.574   2.280  29.069  1.00  0.00     0.233 C 
HETATM   13  C15 UNL     1      26.413   3.245  29.326  1.00  0.00     0.084 C 
HETATM   14  C16 UNL     1      28.147   1.987  30.413  1.00  0.00     0.027 C 
HETATM   15  C17 UNL     1      28.638   3.260  30.816  1.00  0.00     0.021 C 
HETATM   16  C18 UNL     1      27.728   4.400  31.113  1.00  0.00     0.004 C 
HETATM   17  C19 UNL     1      29.335   1.153  30.665  1.00  0.00     0.006 C 
HETATM   18  C20 UNL     1      30.706   1.675  30.503  1.00  0.00     0.039 C 
HETATM   19  C21 UNL     1      31.474   0.962  31.629  1.00  0.00     0.190 C 
HETATM   20  C25 UNL     1      30.534   1.202  32.811  1.00  0.00     0.039 C 
HETATM   21  C26 UNL     1      29.228   0.936  32.183  1.00  0.00    -0.003 C 
ENDROOT
BRANCH   1  22
HETATM   22  C5  UNL     1      25.964   5.564  29.860  1.00  0.00    -0.046 A 
HETATM   23  C4  UNL     1      24.581   5.628  29.831  1.00  0.00     0.011 A 
HETATM   24  C3  UNL     1      23.902   6.732  29.360  1.00  0.00     0.040 A 
HETATM   25  C2  UNL     1      24.609   7.792  28.908  1.00  0.00     0.101 A 
HETATM   26  C28 UNL     1      26.034   7.752  28.921  1.00  0.00     0.102 A 
HETATM   27  C27 UNL     1      26.677   6.603  29.413  1.00  0.00     0.047 A 
BRANCH  25  28
HETATM   28  O1  UNL     1      24.002   8.958  28.417  1.00  0.00    -0.353 OA
HETATM   29  C1  UNL     1      23.398   9.880  29.282  1.00  0.00     0.210 C 
ENDBRANCH  25  28
BRANCH  26  30
HETATM   30  O3  UNL     1      26.635   8.813  28.454  1.00  0.00    -0.353 OA
HETATM   31  C29 UNL     1      27.423   9.870  28.610  1.00  0.00     0.210 C 
ENDBRANCH  26  30
ENDBRANCH   1  22
BRANCH  12  32
HETATM   32  O2  UNL     1      28.573   2.832  28.268  1.00  0.00    -0.364 OA
ATOM     33  H2  UNL     1      28.328   3.709  27.997  1.00  0.00     0.212 HD
ENDBRANCH  12  32
BRANCH  19  34
HETATM   34  N2  UNL     1      32.777   1.466  31.850  1.00  0.00    -0.074 N 
HETATM   35  C22 UNL     1      33.409   0.634  32.887  1.00  0.00     0.272 C 
HETATM   36  C23 UNL     1      32.795   2.831  32.398  1.00  0.00     0.272 C 
HETATM   37  C24 UNL     1      33.625   1.494  30.680  1.00  0.00     0.272 C 
ENDBRANCH  19  34
TORSDOF 5
ENDMDL
