MODEL 1
REMARK VINA RESULT: -6.564133443      0.000      0.000
REMARK  3 active torsions:
REMARK  status: ('A' for Active; 'I' for Inactive)
REMARK    1  A    between atoms: N1_1  and  C1_4 
REMARK    2  A    between atoms: C4_7  and  C5_8 
REMARK    3  A    between atoms: N2_9  and  N3_11 
ROOT
HETATM    1  C1  UNL     1     -20.438   2.103  58.393  1.00  0.00     0.098 A 
HETATM    2  C2  UNL     1     -20.760   0.791  58.657  1.00  0.00     0.049 A 
HETATM    3  C3  UNL     1     -21.709   0.437  59.622  1.00  0.00     0.018 A 
HETATM    4  C4  UNL     1     -22.318   1.466  60.308  1.00  0.00    -0.004 A 
HETATM    5  C7  UNL     1     -21.975   2.770  60.021  1.00  0.00     0.102 A 
HETATM    6  N6  UNL     1     -21.051   3.081  59.081  1.00  0.00    -0.352 N 
ATOM      7  H6  UNL     1     -20.821   4.057  58.895  1.00  0.00     0.166 HD
ENDROOT
BRANCH   4   8
HETATM    8  C5  UNL     1     -23.325   1.179  61.335  1.00  0.00     0.120 C 
HETATM    9  N2  UNL     1     -23.230   1.714  62.506  1.00  0.00    -0.309 N 
ATOM     10  H2  UNL     1     -22.446   2.336  62.704  1.00  0.00     0.186 HD
BRANCH   9  11
HETATM   11  N3  UNL     1     -24.157   1.467  63.497  1.00  0.00    -0.276 N 
HETATM   12  C6  UNL     1     -25.211   2.171  63.713  1.00  0.00     0.215 C 
HETATM   13  N4  UNL     1     -25.543   3.313  62.933  1.00  0.00    -0.065 NA
HETATM   14  N5  UNL     1     -26.059   1.779  64.771  1.00  0.00    -0.065 NA
ATOM     15  H3  UNL     1     -23.994   0.664  64.105  1.00  0.00     0.189 HD
ENDBRANCH   9  11
ENDBRANCH   4   8
BRANCH   1  16
HETATM   16  N1  UNL     1     -19.549   2.356  57.486  1.00  0.00    -0.385 N 
ATOM     17  H12 UNL     1     -19.573   1.913  56.568  1.00  0.00     0.157 HD
ATOM     18  H11 UNL     1     -18.805   3.020  57.700  1.00  0.00     0.157 HD
ENDBRANCH   1  16
TORSDOF 3
ENDMDL
MODEL 2
REMARK VINA RESULT: -6.469044266      2.894      6.318
REMARK  3 active torsions:
REMARK  status: ('A' for Active; 'I' for Inactive)
REMARK    1  A    between atoms: N1_1  and  C1_4 
REMARK    2  A    between atoms: C4_7  and  C5_8 
REMARK    3  A    between atoms: N2_9  and  N3_11 
ROOT
HETATM    1  C1  UNL     1     -23.365  -0.003  66.757  1.00  0.00     0.098 A 
HETATM    2  C2  UNL     1     -24.579   0.617  66.571  1.00  0.00     0.049 A 
HETATM    3  C3  UNL     1     -25.052   0.965  65.301  1.00  0.00     0.018 A 
HETATM    4  C4  UNL     1     -24.244   0.659  64.227  1.00  0.00    -0.004 A 
HETATM    5  C7  UNL     1     -23.033   0.038  64.444  1.00  0.00     0.102 A 
HETATM    6  N6  UNL     1     -22.602  -0.286  65.687  1.00  0.00    -0.352 N 
ATOM      7  H6  UNL     1     -21.699  -0.744  65.810  1.00  0.00     0.166 HD
ENDROOT
BRANCH   4   8
HETATM    8  C5  UNL     1     -24.667   0.989  62.862  1.00  0.00     0.120 C 
HETATM    9  N2  UNL     1     -23.789   1.145  61.930  1.00  0.00    -0.309 N 
ATOM     10  H2  UNL     1     -22.801   1.035  62.156  1.00  0.00     0.186 HD
BRANCH   9  11
HETATM   11  N3  UNL     1     -24.149   1.457  60.635  1.00  0.00    -0.276 N 
HETATM   12  C6  UNL     1     -23.845   2.550  60.028  1.00  0.00     0.215 C 
HETATM   13  N4  UNL     1     -23.087   3.584  60.645  1.00  0.00    -0.065 NA
HETATM   14  N5  UNL     1     -24.293   2.711  58.699  1.00  0.00    -0.065 NA
ATOM     15  H3  UNL     1     -24.698   0.770  60.120  1.00  0.00     0.189 HD
ENDBRANCH   9  11
ENDBRANCH   4   8
BRANCH   1  16
HETATM   16  N1  UNL     1     -22.991  -0.294  67.961  1.00  0.00    -0.385 N 
ATOM     17  H12 UNL     1     -23.301   0.246  68.769  1.00  0.00     0.157 HD
ATOM     18  H11 UNL     1     -22.369  -1.090  68.103  1.00  0.00     0.157 HD
ENDBRANCH   1  16
TORSDOF 3
ENDMDL
MODEL 3
REMARK VINA RESULT: -6.443394800      3.032      6.674
REMARK  3 active torsions:
REMARK  status: ('A' for Active; 'I' for Inactive)
REMARK    1  A    between atoms: N1_1  and  C1_4 
REMARK    2  A    between atoms: C4_7  and  C5_8 
REMARK    3  A    between atoms: N2_9  and  N3_11 
ROOT
HETATM    1  C1  UNL     1     -23.320  -0.165  66.920  1.00  0.00     0.098 A 
HETATM    2  C2  UNL     1     -24.445   0.510  66.506  1.00  0.00     0.049 A 
HETATM    3  C3  UNL     1     -24.729   0.725  65.153  1.00  0.00     0.018 A 
HETATM    4  C4  UNL     1     -23.826   0.229  64.238  1.00  0.00    -0.004 A 
HETATM    5  C7  UNL     1     -22.708  -0.443  64.682  1.00  0.00     0.102 A 
HETATM    6  N6  UNL     1     -22.460  -0.634  66.000  1.00  0.00    -0.352 N 
ATOM      7  H6  UNL     1     -21.622  -1.135  66.294  1.00  0.00     0.166 HD
ENDROOT
BRANCH   4   8
HETATM    8  C5  UNL     1     -24.051   0.412  62.800  1.00  0.00     0.120 C 
HETATM    9  N2  UNL     1     -23.098   0.840  62.042  1.00  0.00    -0.309 N 
ATOM     10  H2  UNL     1     -22.190   1.049  62.458  1.00  0.00     0.186 HD
BRANCH   9  11
HETATM   11  N3  UNL     1     -23.273   1.025  60.687  1.00  0.00    -0.276 N 
HETATM   12  C6  UNL     1     -22.417   0.702  59.782  1.00  0.00     0.215 C 
HETATM   13  N4  UNL     1     -21.164   0.105  60.091  1.00  0.00    -0.065 NA
HETATM   14  N5  UNL     1     -22.754   0.960  58.435  1.00  0.00    -0.065 NA
ATOM     15  H3  UNL     1     -24.146   1.451  60.378  1.00  0.00     0.189 HD
ENDBRANCH   9  11
ENDBRANCH   4   8
BRANCH   1  16
HETATM   16  N1  UNL     1     -23.121  -0.326  68.189  1.00  0.00    -0.385 N 
ATOM     17  H12 UNL     1     -22.852   0.448  68.796  1.00  0.00     0.157 HD
ATOM     18  H11 UNL     1     -23.239  -1.256  68.590  1.00  0.00     0.157 HD
ENDBRANCH   1  16
TORSDOF 3
ENDMDL
MODEL 4
REMARK VINA RESULT: -6.418178819      3.889      6.548
REMARK  3 active torsions:
REMARK  status: ('A' for Active; 'I' for Inactive)
REMARK    1  A    between atoms: N1_1  and  C1_4 
REMARK    2  A    between atoms: C4_7  and  C5_8 
REMARK    3  A    between atoms: N2_9  and  N3_11 
ROOT
HETATM    1  C1  UNL     1     -23.364  -0.030  66.761  1.00  0.00     0.098 A 
HETATM    2  C2  UNL     1     -24.564   0.605  66.540  1.00  0.00     0.049 A 
HETATM    3  C3  UNL     1     -25.012   0.924  65.253  1.00  0.00     0.018 A 
HETATM    4  C4  UNL     1     -24.193   0.574  64.201  1.00  0.00    -0.004 A 
HETATM    5  C7  UNL     1     -22.996  -0.061  64.454  1.00  0.00     0.102 A 
HETATM    6  N6  UNL     1     -22.590  -0.356  65.712  1.00  0.00    -0.352 N 
ATOM      7  H6  UNL     1     -21.698  -0.826  65.862  1.00  0.00     0.166 HD
ENDROOT
BRANCH   4   8
HETATM    8  C5  UNL     1     -24.590   0.873  62.821  1.00  0.00     0.120 C 
HETATM    9  N2  UNL     1     -24.195   0.116  61.853  1.00  0.00    -0.309 N 
ATOM     10  H2  UNL     1     -23.606  -0.690  62.063  1.00  0.00     0.186 HD
BRANCH   9  11
HETATM   11  N3  UNL     1     -24.546   0.366  60.543  1.00  0.00    -0.276 N 
HETATM   12  C6  UNL     1     -25.066  -0.496  59.741  1.00  0.00     0.215 C 
HETATM   13  N4  UNL     1     -25.339  -1.836  60.129  1.00  0.00    -0.065 NA
HETATM   14  N5  UNL     1     -25.368  -0.074  58.428  1.00  0.00    -0.065 NA
ATOM     15  H3  UNL     1     -24.382   1.306  60.182  1.00  0.00     0.189 HD
ENDBRANCH   9  11
ENDBRANCH   4   8
BRANCH   1  16
HETATM   16  N1  UNL     1     -23.014  -0.294  67.979  1.00  0.00    -0.385 N 
ATOM     17  H12 UNL     1     -22.682   0.432  68.615  1.00  0.00     0.157 HD
ATOM     18  H11 UNL     1     -23.073  -1.257  68.309  1.00  0.00     0.157 HD
ENDBRANCH   1  16
TORSDOF 3
ENDMDL
MODEL 5
REMARK VINA RESULT: -6.275809878      1.558      1.971
REMARK  3 active torsions:
REMARK  status: ('A' for Active; 'I' for Inactive)
REMARK    1  A    between atoms: N1_1  and  C1_4 
REMARK    2  A    between atoms: C4_7  and  C5_8 
REMARK    3  A    between atoms: N2_9  and  N3_11 
ROOT
HETATM    1  C1  UNL     1     -20.369   2.154  58.332  1.00  0.00     0.098 A 
HETATM    2  C2  UNL     1     -20.541   0.795  58.463  1.00  0.00     0.049 A 
HETATM    3  C3  UNL     1     -21.451   0.243  59.371  1.00  0.00     0.018 A 
HETATM    4  C4  UNL     1     -22.179   1.125  60.141  1.00  0.00    -0.004 A 
HETATM    5  C7  UNL     1     -21.985   2.481  59.988  1.00  0.00     0.102 A 
HETATM    6  N6  UNL     1     -21.095   2.984  59.100  1.00  0.00    -0.352 N 
ATOM      7  H6  UNL     1     -20.977   3.994  59.013  1.00  0.00     0.166 HD
ENDROOT
BRANCH   4   8
HETATM    8  C5  UNL     1     -23.155   0.628  61.117  1.00  0.00     0.120 C 
HETATM    9  N2  UNL     1     -23.006   0.881  62.373  1.00  0.00    -0.309 N 
ATOM     10  H2  UNL     1     -22.202   1.431  62.675  1.00  0.00     0.186 HD
BRANCH   9  11
HETATM   11  N3  UNL     1     -23.902   0.429  63.319  1.00  0.00    -0.276 N 
HETATM   12  C6  UNL     1     -23.603  -0.325  64.317  1.00  0.00     0.215 C 
HETATM   13  N4  UNL     1     -22.281  -0.790  64.558  1.00  0.00    -0.065 NA
HETATM   14  N5  UNL     1     -24.644  -0.697  65.196  1.00  0.00    -0.065 NA
ATOM     15  H3  UNL     1     -24.876   0.714  63.220  1.00  0.00     0.189 HD
ENDBRANCH   9  11
ENDBRANCH   4   8
BRANCH   1  16
HETATM   16  N1  UNL     1     -19.508   2.593  57.472  1.00  0.00    -0.385 N 
ATOM     17  H12 UNL     1     -18.535   2.771  57.723  1.00  0.00     0.157 HD
ATOM     18  H11 UNL     1     -19.814   2.765  56.514  1.00  0.00     0.157 HD
ENDBRANCH   1  16
TORSDOF 3
ENDMDL
