MODEL 1
REMARK VINA RESULT: -6.065544245      0.000      0.000
REMARK  5 active torsions:
REMARK  status: ('A' for Active; 'I' for Inactive)
REMARK    1  A    between atoms: C3_5  and  N2_6 
REMARK    2  A    between atoms: N2_6  and  C4_8 
REMARK    3  A    between atoms: C4_8  and  C5_9 
REMARK    4  A    between atoms: C5_9  and  N3_11 
REMARK    5  A    between atoms: C7_17  and  N5_18 
ROOT
HETATM    1  C1  UNL     1     -23.254   0.395  63.806  1.00  0.00     0.090 C 
HETATM    2  C2  UNL     1     -23.654   1.408  62.772  1.00  0.00     0.109 A 
HETATM    3  N1  UNL     1     -23.051   1.453  61.574  1.00  0.00    -0.180 N 
ATOM      4  H1  UNL     1     -22.306   0.790  61.356  1.00  0.00     0.185 HD
HETATM    5  C3  UNL     1     -23.425   2.374  60.653  1.00  0.00     0.694 A 
HETATM    6  N4  UNL     1     -24.410   3.218  61.005  1.00  0.00    -0.023 N 
ATOM      7  H4  UNL     1     -24.711   3.921  60.330  1.00  0.00     0.203 HD
HETATM    8  C7  UNL     1     -25.021   3.182  62.202  1.00  0.00     0.691 A 
HETATM    9  N6  UNL     1     -24.630   2.258  63.096  1.00  0.00    -0.180 N 
ATOM     10  H6  UNL     1     -25.075   2.207  64.012  1.00  0.00     0.185 HD
ENDROOT
BRANCH   5  11
HETATM   11  N2  UNL     1     -22.843   2.414  59.502  1.00  0.00    -0.224 N 
ATOM     12  H2  UNL     1     -23.378   2.316  58.640  1.00  0.00     0.177 HD
BRANCH  11  13
HETATM   13  C4  UNL     1     -21.429   2.601  59.471  1.00  0.00     0.170 C 
BRANCH  13  14
HETATM   14  C5  UNL     1     -20.708   1.645  58.561  1.00  0.00     0.197 C 
HETATM   15  C6  UNL     1     -21.591   0.947  57.593  1.00  0.00     0.041 C 
BRANCH  14  16
HETATM   16  N3  UNL     1     -19.662   2.421  57.885  1.00  0.00    -0.074 N 
ATOM     17  H33 UNL     1     -19.566   2.193  56.895  1.00  0.00     0.274 HD
ATOM     18  H32 UNL     1     -19.902   3.405  57.767  1.00  0.00     0.274 HD
ATOM     19  H31 UNL     1     -18.804   2.275  58.417  1.00  0.00     0.274 HD
ENDBRANCH  14  16
ENDBRANCH  13  14
ENDBRANCH  11  13
ENDBRANCH   5  11
BRANCH   8  20
HETATM   20  N5  UNL     1     -25.950   4.042  62.420  1.00  0.00    -0.234 N 
ATOM     21  H52 UNL     1     -26.422   4.567  61.684  1.00  0.00     0.174 HD
ATOM     22  H51 UNL     1     -26.225   4.204  63.389  1.00  0.00     0.174 HD
ENDBRANCH   8  20
TORSDOF 5
ENDMDL
MODEL 2
REMARK VINA RESULT: -5.973868032      1.896      5.167
REMARK  5 active torsions:
REMARK  status: ('A' for Active; 'I' for Inactive)
REMARK    1  A    between atoms: C3_5  and  N2_6 
REMARK    2  A    between atoms: N2_6  and  C4_8 
REMARK    3  A    between atoms: C4_8  and  C5_9 
REMARK    4  A    between atoms: C5_9  and  N3_11 
REMARK    5  A    between atoms: C7_17  and  N5_18 
ROOT
HETATM    1  C1  UNL     1     -22.580   2.367  59.520  1.00  0.00     0.090 C 
HETATM    2  C2  UNL     1     -23.280   2.289  60.846  1.00  0.00     0.109 A 
HETATM    3  N1  UNL     1     -22.912   1.393  61.775  1.00  0.00    -0.180 N 
ATOM      4  H1  UNL     1     -22.144   0.750  61.583  1.00  0.00     0.185 HD
HETATM    5  C3  UNL     1     -23.555   1.338  62.966  1.00  0.00     0.694 A 
HETATM    6  N4  UNL     1     -24.559   2.212  63.154  1.00  0.00    -0.023 N 
ATOM      7  H4  UNL     1     -25.060   2.191  64.043  1.00  0.00     0.203 HD
HETATM    8  C7  UNL     1     -24.937   3.113  62.231  1.00  0.00     0.691 A 
HETATM    9  N6  UNL     1     -24.281   3.146  61.058  1.00  0.00    -0.180 N 
ATOM     10  H6  UNL     1     -24.545   3.818  60.339  1.00  0.00     0.185 HD
ENDROOT
BRANCH   5  11
HETATM   11  N2  UNL     1     -23.199   0.475  63.857  1.00  0.00    -0.224 N 
ATOM     12  H2  UNL     1     -22.381  -0.117  63.716  1.00  0.00     0.177 HD
BRANCH  11  13
HETATM   13  C4  UNL     1     -23.982   0.375  65.045  1.00  0.00     0.170 C 
BRANCH  13  14
HETATM   14  C5  UNL     1     -23.448  -0.612  66.045  1.00  0.00     0.197 C 
HETATM   15  C6  UNL     1     -22.581  -1.664  65.456  1.00  0.00     0.041 C 
BRANCH  14  16
HETATM   16  N3  UNL     1     -22.742   0.169  67.067  1.00  0.00    -0.074 N 
ATOM     17  H33 UNL     1     -22.511   1.116  66.763  1.00  0.00     0.274 HD
ATOM     18  H32 UNL     1     -23.333   0.430  67.856  1.00  0.00     0.274 HD
ATOM     19  H31 UNL     1     -21.925  -0.378  67.338  1.00  0.00     0.274 HD
ENDBRANCH  14  16
ENDBRANCH  13  14
ENDBRANCH  11  13
ENDBRANCH   5  11
BRANCH   8  20
HETATM   20  N5  UNL     1     -25.911   3.895  62.529  1.00  0.00    -0.234 N 
ATOM     21  H52 UNL     1     -26.882   3.593  62.597  1.00  0.00     0.174 HD
ATOM     22  H51 UNL     1     -25.691   4.876  62.706  1.00  0.00     0.174 HD
ENDBRANCH   8  20
TORSDOF 5
ENDMDL
MODEL 3
REMARK VINA RESULT: -5.968273088      1.317      1.784
REMARK  5 active torsions:
REMARK  status: ('A' for Active; 'I' for Inactive)
REMARK    1  A    between atoms: C3_5  and  N2_6 
REMARK    2  A    between atoms: N2_6  and  C4_8 
REMARK    3  A    between atoms: C4_8  and  C5_9 
REMARK    4  A    between atoms: C5_9  and  N3_11 
REMARK    5  A    between atoms: C7_17  and  N5_18 
ROOT
HETATM    1  C1  UNL     1     -25.187   0.582  65.523  1.00  0.00     0.090 C 
HETATM    2  C2  UNL     1     -24.892   1.244  64.208  1.00  0.00     0.109 A 
HETATM    3  N1  UNL     1     -23.945   0.766  63.386  1.00  0.00    -0.180 N 
ATOM      4  H1  UNL     1     -23.412  -0.061  63.654  1.00  0.00     0.185 HD
HETATM    5  C3  UNL     1     -23.693   1.376  62.203  1.00  0.00     0.694 A 
HETATM    6  N4  UNL     1     -24.430   2.462  61.911  1.00  0.00    -0.023 N 
ATOM      7  H4  UNL     1     -24.260   2.940  61.027  1.00  0.00     0.203 HD
HETATM    8  C7  UNL     1     -25.380   2.950  62.727  1.00  0.00     0.691 A 
HETATM    9  N6  UNL     1     -25.610   2.325  63.894  1.00  0.00    -0.180 N 
ATOM     10  H6  UNL     1     -26.325   2.672  64.533  1.00  0.00     0.185 HD
ENDROOT
BRANCH   5  11
HETATM   11  N2  UNL     1     -22.781   0.914  61.415  1.00  0.00    -0.224 N 
ATOM     12  H2  UNL     1     -22.060   0.281  61.761  1.00  0.00     0.177 HD
BRANCH  11  13
HETATM   13  C4  UNL     1     -22.812   1.314  60.046  1.00  0.00     0.170 C 
BRANCH  13  14
HETATM   14  C5  UNL     1     -21.497   1.836  59.535  1.00  0.00     0.197 C 
HETATM   15  C6  UNL     1     -21.150   1.372  58.168  1.00  0.00     0.041 C 
BRANCH  14  16
HETATM   16  N3  UNL     1     -21.570   3.299  59.614  1.00  0.00    -0.074 N 
ATOM     17  H33 UNL     1     -22.252   3.634  60.295  1.00  0.00     0.274 HD
ATOM     18  H32 UNL     1     -20.745   3.722  60.041  1.00  0.00     0.274 HD
ATOM     19  H31 UNL     1     -21.750   3.632  58.667  1.00  0.00     0.274 HD
ENDBRANCH  14  16
ENDBRANCH  13  14
ENDBRANCH  11  13
ENDBRANCH   5  11
BRANCH   8  20
HETATM   20  N5  UNL     1     -26.018   3.995  62.337  1.00  0.00    -0.234 N 
ATOM     21  H52 UNL     1     -25.565   4.844  62.001  1.00  0.00     0.174 HD
ATOM     22  H51 UNL     1     -27.038   3.964  62.369  1.00  0.00     0.174 HD
ENDBRANCH   8  20
TORSDOF 5
ENDMDL
MODEL 4
REMARK VINA RESULT: -5.925330409      1.728      5.141
REMARK  5 active torsions:
REMARK  status: ('A' for Active; 'I' for Inactive)
REMARK    1  A    between atoms: C3_5  and  N2_6 
REMARK    2  A    between atoms: N2_6  and  C4_8 
REMARK    3  A    between atoms: C4_8  and  C5_9 
REMARK    4  A    between atoms: C5_9  and  N3_11 
REMARK    5  A    between atoms: C7_17  and  N5_18 
ROOT
HETATM    1  C1  UNL     1     -20.413   1.224  58.026  1.00  0.00     0.090 C 
HETATM    2  C2  UNL     1     -21.744   1.188  58.718  1.00  0.00     0.109 A 
HETATM    3  N1  UNL     1     -21.831   1.063  60.052  1.00  0.00    -0.180 N 
ATOM      4  H1  UNL     1     -20.981   0.991  60.611  1.00  0.00     0.185 HD
HETATM    5  C3  UNL     1     -23.041   1.033  60.660  1.00  0.00     0.694 A 
HETATM    6  N4  UNL     1     -24.122   1.130  59.865  1.00  0.00    -0.023 N 
ATOM      7  H4  UNL     1     -25.045   1.110  60.298  1.00  0.00     0.203 HD
HETATM    8  C7  UNL     1     -24.047   1.254  58.529  1.00  0.00     0.691 A 
HETATM    9  N6  UNL     1     -22.833   1.282  57.952  1.00  0.00    -0.180 N 
ATOM     10  H6  UNL     1     -22.745   1.375  56.941  1.00  0.00     0.185 HD
ENDROOT
BRANCH   5  11
HETATM   11  N2  UNL     1     -23.121   0.913  61.942  1.00  0.00    -0.224 N 
ATOM     12  H2  UNL     1     -22.779   0.077  62.413  1.00  0.00     0.177 HD
BRANCH  11  13
HETATM   13  C4  UNL     1     -23.702   1.987  62.681  1.00  0.00     0.170 C 
BRANCH  13  14
HETATM   14  C5  UNL     1     -25.066   1.678  63.233  1.00  0.00     0.197 C 
HETATM   15  C6  UNL     1     -25.062   1.252  64.655  1.00  0.00     0.041 C 
BRANCH  14  16
HETATM   16  N3  UNL     1     -25.883   2.878  63.024  1.00  0.00    -0.074 N 
ATOM     17  H33 UNL     1     -25.546   3.691  63.540  1.00  0.00     0.274 HD
ATOM     18  H32 UNL     1     -25.787   3.274  62.088  1.00  0.00     0.274 HD
ATOM     19  H31 UNL     1     -26.842   2.621  63.257  1.00  0.00     0.274 HD
ENDBRANCH  14  16
ENDBRANCH  13  14
ENDBRANCH  11  13
ENDBRANCH   5  11
BRANCH   8  20
HETATM   20  N5  UNL     1     -25.151   1.339  57.878  1.00  0.00    -0.234 N 
ATOM     21  H52 UNL     1     -25.922   0.679  57.978  1.00  0.00     0.174 HD
ATOM     22  H51 UNL     1     -25.254   2.115  57.224  1.00  0.00     0.174 HD
ENDBRANCH   8  20
TORSDOF 5
ENDMDL
MODEL 5
REMARK VINA RESULT: -5.923120664      1.672      5.410
REMARK  5 active torsions:
REMARK  status: ('A' for Active; 'I' for Inactive)
REMARK    1  A    between atoms: C3_5  and  N2_6 
REMARK    2  A    between atoms: N2_6  and  C4_8 
REMARK    3  A    between atoms: C4_8  and  C5_9 
REMARK    4  A    between atoms: C5_9  and  N3_11 
REMARK    5  A    between atoms: C7_17  and  N5_18 
ROOT
HETATM    1  C1  UNL     1     -22.920  -0.048  56.985  1.00  0.00     0.090 C 
HETATM    2  C2  UNL     1     -22.163   0.969  57.791  1.00  0.00     0.109 A 
HETATM    3  N1  UNL     1     -22.744   1.621  58.809  1.00  0.00    -0.180 N 
ATOM      4  H1  UNL     1     -23.718   1.428  59.045  1.00  0.00     0.185 HD
HETATM    5  C3  UNL     1     -22.046   2.535  59.525  1.00  0.00     0.694 A 
HETATM    6  N4  UNL     1     -20.768   2.743  59.161  1.00  0.00    -0.023 N 
ATOM      7  H4  UNL     1     -20.220   3.426  59.683  1.00  0.00     0.203 HD
HETATM    8  C7  UNL     1     -20.176   2.096  58.142  1.00  0.00     0.691 A 
HETATM    9  N6  UNL     1     -20.892   1.195  57.449  1.00  0.00    -0.180 N 
ATOM     10  H6  UNL     1     -20.470   0.689  56.671  1.00  0.00     0.185 HD
ENDROOT
BRANCH   5  11
HETATM   11  N2  UNL     1     -22.608   3.161  60.504  1.00  0.00    -0.224 N 
ATOM     12  H2  UNL     1     -22.191   4.005  60.895  1.00  0.00     0.177 HD
BRANCH  11  13
HETATM   13  C4  UNL     1     -23.828   2.636  61.022  1.00  0.00     0.170 C 
BRANCH  13  14
HETATM   14  C5  UNL     1     -23.814   2.419  62.510  1.00  0.00     0.197 C 
HETATM   15  C6  UNL     1     -25.160   2.415  63.136  1.00  0.00     0.041 C 
BRANCH  14  16
HETATM   16  N3  UNL     1     -23.100   1.158  62.742  1.00  0.00    -0.074 N 
ATOM     17  H33 UNL     1     -23.209   0.487  61.981  1.00  0.00     0.274 HD
ATOM     18  H32 UNL     1     -22.086   1.252  62.684  1.00  0.00     0.274 HD
ATOM     19  H31 UNL     1     -23.422   0.803  63.642  1.00  0.00     0.274 HD
ENDBRANCH  14  16
ENDBRANCH  13  14
ENDBRANCH  11  13
ENDBRANCH   5  11
BRANCH   8  20
HETATM   20  N5  UNL     1     -18.949   2.382  57.891  1.00  0.00    -0.234 N 
ATOM     21  H52 UNL     1     -18.160   1.811  58.192  1.00  0.00     0.174 HD
ATOM     22  H51 UNL     1     -18.762   3.233  57.359  1.00  0.00     0.174 HD
ENDBRANCH   8  20
TORSDOF 5
ENDMDL
