MODEL 1
REMARK VINA RESULT: -6.773607951      0.000      0.000
REMARK  2 active torsions:
REMARK  status: ('A' for Active; 'I' for Inactive)
REMARK    1  A    between atoms: C2_2  and  C4_12 
REMARK    2  A    between atoms: N1_3  and  N2_5 
REMARK       I    between atoms: N2_5  and  C3_7 
ROOT
HETATM    1  C1  UNL     1     -22.376   3.342  60.349  1.00  0.00     0.065 C 
HETATM    2  C2  UNL     1     -22.676   1.907  60.563  1.00  0.00     0.005 C 
HETATM    3  N1  UNL     1     -23.236   1.560  61.667  1.00  0.00    -0.306 N 
ATOM      4  H1  UNL     1     -23.438   0.570  61.805  1.00  0.00     0.186 HD
ENDROOT
BRANCH   2   5
HETATM    5  C4  UNL     1     -22.322   0.916  59.501  1.00  0.00     0.044 A 
HETATM    6  C5  UNL     1     -20.995   0.879  59.031  1.00  0.00     0.028 A 
HETATM    7  C6  UNL     1     -20.104   1.820  58.322  1.00  0.00     0.238 C 
HETATM    8  C8  UNL     1     -22.245   1.306  58.154  1.00  0.00     0.028 A 
HETATM    9  N5  UNL     1     -20.326   1.386  56.928  1.00  0.00    -0.074 N 
HETATM   10  C7  UNL     1     -21.662   0.753  56.915  1.00  0.00     0.238 C 
ATOM     11  H52 UNL     1     -20.222   2.136  56.244  1.00  0.00     0.277 HD
ATOM     12  H51 UNL     1     -19.586   0.786  56.564  1.00  0.00     0.277 HD
ENDBRANCH   2   5
BRANCH   3  13
HETATM   13  N2  UNL     1     -23.582   2.430  62.677  1.00  0.00    -0.274 N 
HETATM   14  C3  UNL     1     -24.943   2.714  62.975  1.00  0.00     0.200 C 
HETATM   15  N3  UNL     1     -25.670   3.472  62.214  1.00  0.00    -0.372 N 
HETATM   16  N4  UNL     1     -25.502   2.141  64.148  1.00  0.00    -0.062 NA
ATOM     17  H32 UNL     1     -25.269   3.884  61.372  1.00  0.00     0.158 HD
ATOM     18  H31 UNL     1     -26.646   3.676  62.428  1.00  0.00     0.158 HD
ATOM     19  H2  UNL     1     -22.847   2.880  63.222  1.00  0.00     0.189 HD
ENDBRANCH   3  13
TORSDOF 2
ENDMDL
MODEL 2
REMARK VINA RESULT: -6.633665051      2.180      2.710
REMARK  2 active torsions:
REMARK  status: ('A' for Active; 'I' for Inactive)
REMARK    1  A    between atoms: C2_2  and  C4_12 
REMARK    2  A    between atoms: N1_3  and  N2_5 
REMARK       I    between atoms: N2_5  and  C3_7 
ROOT
HETATM    1  C1  UNL     1     -23.120   0.757  60.935  1.00  0.00     0.065 C 
HETATM    2  C2  UNL     1     -23.500   1.856  60.017  1.00  0.00     0.005 C 
HETATM    3  N1  UNL     1     -23.911   2.962  60.528  1.00  0.00    -0.306 N 
ATOM      4  H1  UNL     1     -24.170   3.712  59.888  1.00  0.00     0.186 HD
ENDROOT
BRANCH   2   5
HETATM    5  C4  UNL     1     -23.394   1.650  58.540  1.00  0.00     0.044 A 
HETATM    6  C5  UNL     1     -24.549   1.267  57.831  1.00  0.00     0.028 A 
HETATM    7  C6  UNL     1     -25.447   0.094  57.839  1.00  0.00     0.238 C 
HETATM    8  C8  UNL     1     -23.262   0.358  58.005  1.00  0.00     0.028 A 
HETATM    9  N5  UNL     1     -24.842  -0.702  56.753  1.00  0.00    -0.074 N 
HETATM   10  C7  UNL     1     -23.431  -0.269  56.679  1.00  0.00     0.238 C 
ATOM     11  H52 UNL     1     -24.955  -1.710  56.872  1.00  0.00     0.277 HD
ATOM     12  H51 UNL     1     -25.339  -0.629  55.865  1.00  0.00     0.277 HD
ENDBRANCH   2   5
BRANCH   3  13
HETATM   13  N2  UNL     1     -24.027   3.204  61.879  1.00  0.00    -0.274 N 
HETATM   14  C3  UNL     1     -25.298   3.267  62.514  1.00  0.00     0.200 C 
HETATM   15  N3  UNL     1     -26.090   4.283  62.370  1.00  0.00    -0.372 N 
HETATM   16  N4  UNL     1     -25.691   2.171  63.327  1.00  0.00    -0.062 NA
ATOM     17  H32 UNL     1     -25.808   5.070  61.785  1.00  0.00     0.158 HD
ATOM     18  H31 UNL     1     -27.001   4.328  62.825  1.00  0.00     0.158 HD
ATOM     19  H2  UNL     1     -23.184   3.342  62.436  1.00  0.00     0.189 HD
ENDBRANCH   3  13
TORSDOF 2
ENDMDL
MODEL 3
REMARK VINA RESULT: -6.592185563      1.988      2.451
REMARK  2 active torsions:
REMARK  status: ('A' for Active; 'I' for Inactive)
REMARK    1  A    between atoms: C2_2  and  C4_12 
REMARK    2  A    between atoms: N1_3  and  N2_5 
REMARK       I    between atoms: N2_5  and  C3_7 
ROOT
HETATM    1  C1  UNL     1     -21.966   3.535  60.157  1.00  0.00     0.065 C 
HETATM    2  C2  UNL     1     -22.891   2.388  59.997  1.00  0.00     0.005 C 
HETATM    3  N1  UNL     1     -23.791   2.203  60.897  1.00  0.00    -0.306 N 
ATOM      4  H1  UNL     1     -24.423   1.411  60.779  1.00  0.00     0.186 HD
ENDROOT
BRANCH   2   5
HETATM    5  C4  UNL     1     -22.752   1.491  58.810  1.00  0.00     0.044 A 
HETATM    6  C5  UNL     1     -23.769   1.504  57.836  1.00  0.00     0.028 A 
HETATM    7  C6  UNL     1     -25.206   1.164  57.812  1.00  0.00     0.238 C 
HETATM    8  C8  UNL     1     -23.428   0.261  58.759  1.00  0.00     0.028 A 
HETATM    9  N5  UNL     1     -25.134  -0.231  57.331  1.00  0.00    -0.074 N 
HETATM   10  C7  UNL     1     -23.790  -0.715  57.711  1.00  0.00     0.238 C 
ATOM     11  H52 UNL     1     -25.893  -0.821  57.672  1.00  0.00     0.277 HD
ATOM     12  H51 UNL     1     -25.339  -0.332  56.337  1.00  0.00     0.277 HD
ENDBRANCH   2   5
BRANCH   3  13
HETATM   13  N2  UNL     1     -23.962   2.998  62.009  1.00  0.00    -0.274 N 
HETATM   14  C3  UNL     1     -25.256   3.283  62.523  1.00  0.00     0.200 C 
HETATM   15  N3  UNL     1     -26.063   4.112  61.936  1.00  0.00    -0.372 N 
HETATM   16  N4  UNL     1     -25.657   2.630  63.719  1.00  0.00    -0.062 NA
ATOM     17  H32 UNL     1     -25.776   4.580  61.077  1.00  0.00     0.158 HD
ATOM     18  H31 UNL     1     -26.991   4.316  62.304  1.00  0.00     0.158 HD
ATOM     19  H2  UNL     1     -23.143   3.390  62.473  1.00  0.00     0.189 HD
ENDBRANCH   3  13
TORSDOF 2
ENDMDL
MODEL 4
REMARK VINA RESULT: -6.431567029      1.725      5.844
REMARK  2 active torsions:
REMARK  status: ('A' for Active; 'I' for Inactive)
REMARK    1  A    between atoms: C2_2  and  C4_12 
REMARK    2  A    between atoms: N1_3  and  N2_5 
REMARK       I    between atoms: N2_5  and  C3_7 
ROOT
HETATM    1  C1  UNL     1     -23.544   2.029  58.825  1.00  0.00     0.065 C 
HETATM    2  C2  UNL     1     -22.586   2.557  59.824  1.00  0.00     0.005 C 
HETATM    3  N1  UNL     1     -21.331   2.343  59.637  1.00  0.00    -0.306 N 
ATOM      4  H1  UNL     1     -20.680   2.710  60.330  1.00  0.00     0.186 HD
ENDROOT
BRANCH   2   5
HETATM    5  C4  UNL     1     -23.098   3.314  61.007  1.00  0.00     0.044 A 
HETATM    6  C5  UNL     1     -23.424   2.597  62.174  1.00  0.00     0.028 A 
HETATM    7  C6  UNL     1     -24.409   1.556  62.528  1.00  0.00     0.238 C 
HETATM    8  C8  UNL     1     -24.475   3.373  61.277  1.00  0.00     0.028 A 
HETATM    9  N5  UNL     1     -25.496   2.400  63.066  1.00  0.00    -0.074 N 
HETATM   10  C7  UNL     1     -25.321   3.725  62.436  1.00  0.00     0.238 C 
ATOM     11  H52 UNL     1     -26.426   2.003  62.933  1.00  0.00     0.277 HD
ATOM     12  H51 UNL     1     -25.522   2.432  64.085  1.00  0.00     0.277 HD
ENDBRANCH   2   5
BRANCH   3  13
HETATM   13  N2  UNL     1     -20.806   1.653  58.567  1.00  0.00    -0.274 N 
HETATM   14  C3  UNL     1     -19.491   1.912  58.093  1.00  0.00     0.200 C 
HETATM   15  N3  UNL     1     -19.202   2.977  57.413  1.00  0.00    -0.372 N 
HETATM   16  N4  UNL     1     -18.478   0.959  58.383  1.00  0.00    -0.062 NA
ATOM     17  H32 UNL     1     -19.928   3.662  57.205  1.00  0.00     0.158 HD
ATOM     18  H31 UNL     1     -18.258   3.163  57.073  1.00  0.00     0.158 HD
ATOM     19  H2  UNL     1     -21.372   0.941  58.105  1.00  0.00     0.189 HD
ENDBRANCH   3  13
TORSDOF 2
ENDMDL
MODEL 5
REMARK VINA RESULT: -6.174307812      2.310      2.831
REMARK  2 active torsions:
REMARK  status: ('A' for Active; 'I' for Inactive)
REMARK    1  A    between atoms: C2_2  and  C4_12 
REMARK    2  A    between atoms: N1_3  and  N2_5 
REMARK       I    between atoms: N2_5  and  C3_7 
ROOT
HETATM    1  C1  UNL     1     -22.778   2.949  60.385  1.00  0.00     0.065 C 
HETATM    2  C2  UNL     1     -22.797   1.545  59.911  1.00  0.00     0.005 C 
HETATM    3  N1  UNL     1     -22.793   0.607  60.791  1.00  0.00    -0.306 N 
ATOM      4  H1  UNL     1     -22.807  -0.356  60.456  1.00  0.00     0.186 HD
ENDROOT
BRANCH   2   5
HETATM    5  C4  UNL     1     -22.821   1.264  58.444  1.00  0.00     0.044 A 
HETATM    6  C5  UNL     1     -24.068   1.188  57.794  1.00  0.00     0.028 A 
HETATM    7  C6  UNL     1     -25.251   0.309  57.890  1.00  0.00     0.238 C 
HETATM    8  C8  UNL     1     -23.072  -0.033  57.967  1.00  0.00     0.028 A 
HETATM    9  N5  UNL     1     -24.938  -0.663  56.822  1.00  0.00    -0.074 N 
HETATM   10  C7  UNL     1     -23.468  -0.638  56.679  1.00  0.00     0.238 C 
ATOM     11  H52 UNL     1     -25.317  -1.594  56.994  1.00  0.00     0.277 HD
ATOM     12  H51 UNL     1     -25.437  -0.487  55.950  1.00  0.00     0.277 HD
ENDBRANCH   2   5
BRANCH   3  13
HETATM   13  N2  UNL     1     -22.772   0.810  62.153  1.00  0.00    -0.274 N 
HETATM   14  C3  UNL     1     -23.893   0.488  62.967  1.00  0.00     0.200 C 
HETATM   15  N3  UNL     1     -24.965   1.217  62.980  1.00  0.00    -0.372 N 
HETATM   16  N4  UNL     1     -23.812  -0.671  63.784  1.00  0.00    -0.062 NA
ATOM     17  H32 UNL     1     -25.024   2.049  62.393  1.00  0.00     0.158 HD
ATOM     18  H31 UNL     1     -25.769   0.987  63.564  1.00  0.00     0.158 HD
ATOM     19  H2  UNL     1     -21.935   1.199  62.587  1.00  0.00     0.189 HD
ENDBRANCH   3  13
TORSDOF 2
ENDMDL
