MODEL 1
REMARK VINA RESULT: -7.359293012      0.000      0.000
REMARK  7 active torsions:
REMARK  status: ('A' for Active; 'I' for Inactive)
REMARK    1  A    between atoms: C2_2  and  C3_4 
REMARK    2  A    between atoms: C3_4  and  C4_10 
REMARK    3  A    between atoms: N1_5  and  N2_7 
REMARK    4  A    between atoms: C5_11  and  S1_12 
REMARK    5  A    between atoms: S1_12  and  S2_13 
REMARK    6  A    between atoms: S2_13  and  C6_14 
REMARK    7  A    between atoms: C6_14  and  C7_15 
ROOT
HETATM    1  C4  UNL     1      17.877  20.808  56.032  1.00  0.00     0.036 A 
HETATM    2  C5  UNL     1      18.464  19.815  55.219  1.00  0.00     0.093 A 
HETATM    3  C11 UNL     1      19.627  19.164  55.483  1.00  0.00     0.265 A 
HETATM    4  O5  UNL     1      20.088  18.299  54.705  1.00  0.00    -0.267 OA
HETATM    5  N4  UNL     1      20.313  19.439  56.583  1.00  0.00    -0.306 N 
ATOM      6  H4  UNL     1      21.183  18.948  56.790  1.00  0.00     0.170 HD
HETATM    7  C12 UNL     1      19.850  20.360  57.406  1.00  0.00     0.137 A 
HETATM    8  N5  UNL     1      20.452  20.891  58.500  1.00  0.00    -0.283 N 
ATOM      9  H5  UNL     1      21.333  20.554  58.891  1.00  0.00     0.188 HD
HETATM   10  N6  UNL     1      19.779  21.863  58.977  1.00  0.00    -0.285 N 
ATOM     11  H6  UNL     1      20.015  22.428  59.793  1.00  0.00     0.188 HD
HETATM   12  C13 UNL     1      18.663  21.997  58.167  1.00  0.00     0.145 A 
HETATM   13  N7  UNL     1      17.848  23.141  58.345  1.00  0.00    -0.080 NA
HETATM   14  C14 UNL     1      18.669  21.063  57.185  1.00  0.00     0.066 A 
ENDROOT
BRANCH   2  15
HETATM   15  S1  UNL     1      17.498  19.376  53.772  1.00  0.00    -0.048 SA
BRANCH  15  16
HETATM   16  S2  UNL     1      18.400  20.092  52.013  1.00  0.00    -0.042 SA
BRANCH  16  17
HETATM   17  C6  UNL     1      18.057  19.075  50.562  1.00  0.00     0.210 C 
HETATM   18  C8  UNL     1      17.709  17.665  50.852  1.00  0.00     0.089 C 
HETATM   19  C9  UNL     1      17.466  16.912  49.582  1.00  0.00     0.239 C 
HETATM   20  N3  UNL     1      16.588  17.655  48.722  1.00  0.00    -0.054 N 
HETATM   21  C10 UNL     1      16.087  18.852  49.347  1.00  0.00     0.402 C 
ATOM     22  H32 UNL     1      17.038  17.867  47.831  1.00  0.00     0.279 HD
ATOM     23  H31 UNL     1      15.823  17.070  48.384  1.00  0.00     0.279 HD
HETATM   24  O4  UNL     1      17.051  19.717  49.802  1.00  0.00    -0.331 OA
BRANCH  17  25
HETATM   25  C7  UNL     1      19.283  19.095  49.727  1.00  0.00     0.221 C 
HETATM   26  O2  UNL     1      19.292  19.730  48.647  1.00  0.00    -0.645 OA
HETATM   27  O3  UNL     1      20.424  18.423  50.119  1.00  0.00    -0.645 OA
ENDBRANCH  17  25
ENDBRANCH  16  17
ENDBRANCH  15  16
ENDBRANCH   2  15
BRANCH   1  28
HETATM   28  C3  UNL     1      16.828  21.667  55.633  1.00  0.00     0.105 C 
HETATM   29  N1  UNL     1      15.877  22.213  56.233  1.00  0.00    -0.303 N 
ATOM     30  H1  UNL     1      15.642  23.087  55.763  1.00  0.00     0.186 HD
BRANCH  28  31
HETATM   31  C2  UNL     1      17.138  22.648  54.451  1.00  0.00     0.174 C 
HETATM   32  C1  UNL     1      18.344  23.527  54.686  1.00  0.00     0.098 C 
HETATM   33  O1  UNL     1      16.494  22.703  53.459  1.00  0.00    -0.291 OA
ENDBRANCH  28  31
BRANCH  29  34
HETATM   34  N2  UNL     1      15.063  22.045  57.279  1.00  0.00    -0.345 N 
ATOM     35  H22 UNL     1      14.206  21.612  56.935  1.00  0.00     0.176 HD
ATOM     36  H21 UNL     1      15.012  22.200  58.286  1.00  0.00     0.176 HD
ENDBRANCH  29  34
ENDBRANCH   1  28
TORSDOF 7
ENDMDL
MODEL 2
REMARK VINA RESULT: -7.080491651      2.651      3.579
REMARK  7 active torsions:
REMARK  status: ('A' for Active; 'I' for Inactive)
REMARK    1  A    between atoms: C2_2  and  C3_4 
REMARK    2  A    between atoms: C3_4  and  C4_10 
REMARK    3  A    between atoms: N1_5  and  N2_7 
REMARK    4  A    between atoms: C5_11  and  S1_12 
REMARK    5  A    between atoms: S1_12  and  S2_13 
REMARK    6  A    between atoms: S2_13  and  C6_14 
REMARK    7  A    between atoms: C6_14  and  C7_15 
ROOT
HETATM    1  C4  UNL     1      18.533  20.650  55.599  1.00  0.00     0.036 A 
HETATM    2  C5  UNL     1      17.770  19.939  54.649  1.00  0.00     0.093 A 
HETATM    3  C11 UNL     1      18.099  18.736  54.112  1.00  0.00     0.265 A 
HETATM    4  O5  UNL     1      17.370  18.173  53.264  1.00  0.00    -0.267 OA
HETATM    5  N4  UNL     1      19.218  18.125  54.473  1.00  0.00    -0.306 N 
ATOM      6  H4  UNL     1      19.466  17.218  54.078  1.00  0.00     0.170 HD
HETATM    7  C12 UNL     1      20.006  18.712  55.354  1.00  0.00     0.137 A 
HETATM    8  N5  UNL     1      21.247  18.337  55.754  1.00  0.00    -0.283 N 
ATOM      9  H5  UNL     1      21.698  17.463  55.483  1.00  0.00     0.188 HD
HETATM   10  N6  UNL     1      21.778  19.216  56.510  1.00  0.00    -0.285 N 
ATOM     11  H6  UNL     1      22.701  19.176  56.941  1.00  0.00     0.188 HD
HETATM   12  C13 UNL     1      20.849  20.238  56.630  1.00  0.00     0.145 A 
HETATM   13  N7  UNL     1      21.264  21.442  57.247  1.00  0.00    -0.080 NA
HETATM   14  C14 UNL     1      19.724  19.947  55.932  1.00  0.00     0.066 A 
ENDROOT
BRANCH   2  15
HETATM   15  S1  UNL     1      16.212  20.720  54.219  1.00  0.00    -0.048 SA
BRANCH  15  16
HETATM   16  S2  UNL     1      15.936  20.762  52.135  1.00  0.00    -0.042 SA
BRANCH  16  17
HETATM   17  C6  UNL     1      17.152  21.774  51.267  1.00  0.00     0.210 C 
HETATM   18  C8  UNL     1      16.952  21.876  49.803  1.00  0.00     0.089 C 
HETATM   19  C9  UNL     1      18.024  22.718  49.184  1.00  0.00     0.239 C 
HETATM   20  N3  UNL     1      18.190  23.938  49.924  1.00  0.00    -0.054 N 
HETATM   21  C10 UNL     1      17.218  24.080  50.977  1.00  0.00     0.402 C 
ATOM     22  H32 UNL     1      19.140  24.020  50.288  1.00  0.00     0.279 HD
ATOM     23  H31 UNL     1      18.181  24.748  49.304  1.00  0.00     0.279 HD
HETATM   24  O4  UNL     1      17.185  23.047  51.881  1.00  0.00    -0.331 OA
BRANCH  17  25
HETATM   25  C7  UNL     1      18.478  21.158  51.518  1.00  0.00     0.221 C 
HETATM   26  O2  UNL     1      19.296  21.726  52.277  1.00  0.00    -0.645 OA
HETATM   27  O3  UNL     1      18.832  19.961  50.928  1.00  0.00    -0.645 OA
ENDBRANCH  17  25
ENDBRANCH  16  17
ENDBRANCH  15  16
ENDBRANCH   2  15
BRANCH   1  28
HETATM   28  C3  UNL     1      18.336  22.005  55.951  1.00  0.00     0.105 C 
HETATM   29  N1  UNL     1      18.330  23.076  55.308  1.00  0.00    -0.303 N 
ATOM     30  H1  UNL     1      17.711  23.741  55.771  1.00  0.00     0.186 HD
BRANCH  28  31
HETATM   31  C2  UNL     1      17.372  22.282  57.153  1.00  0.00     0.174 C 
HETATM   32  C1  UNL     1      17.960  21.934  58.501  1.00  0.00     0.098 C 
HETATM   33  O1  UNL     1      16.280  22.725  57.030  1.00  0.00    -0.291 OA
ENDBRANCH  28  31
BRANCH  29  34
HETATM   34  N2  UNL     1      18.854  23.649  54.221  1.00  0.00    -0.345 N 
ATOM     35  H22 UNL     1      18.090  23.831  53.570  1.00  0.00     0.176 HD
ATOM     36  H21 UNL     1      19.744  23.961  53.831  1.00  0.00     0.176 HD
ENDBRANCH  29  34
ENDBRANCH   1  28
TORSDOF 7
ENDMDL
MODEL 3
REMARK VINA RESULT: -6.982353596      1.269      1.542
REMARK  7 active torsions:
REMARK  status: ('A' for Active; 'I' for Inactive)
REMARK    1  A    between atoms: C2_2  and  C3_4 
REMARK    2  A    between atoms: C3_4  and  C4_10 
REMARK    3  A    between atoms: N1_5  and  N2_7 
REMARK    4  A    between atoms: C5_11  and  S1_12 
REMARK    5  A    between atoms: S1_12  and  S2_13 
REMARK    6  A    between atoms: S2_13  and  C6_14 
REMARK    7  A    between atoms: C6_14  and  C7_15 
ROOT
HETATM    1  C4  UNL     1      17.811  20.723  56.024  1.00  0.00     0.036 A 
HETATM    2  C5  UNL     1      18.310  19.668  55.232  1.00  0.00     0.093 A 
HETATM    3  C11 UNL     1      19.443  18.962  55.479  1.00  0.00     0.265 A 
HETATM    4  O5  UNL     1      19.825  18.043  54.720  1.00  0.00    -0.267 OA
HETATM    5  N4  UNL     1      20.185  19.237  56.543  1.00  0.00    -0.306 N 
ATOM      6  H4  UNL     1      21.033  18.705  56.737  1.00  0.00     0.170 HD
HETATM    7  C12 UNL     1      19.805  20.214  57.345  1.00  0.00     0.137 A 
HETATM    8  N5  UNL     1      20.478  20.748  58.395  1.00  0.00    -0.283 N 
ATOM      9  H5  UNL     1      21.352  20.375  58.768  1.00  0.00     0.188 HD
HETATM   10  N6  UNL     1      19.879  21.775  58.858  1.00  0.00    -0.285 N 
ATOM     11  H6  UNL     1      20.177  22.356  59.641  1.00  0.00     0.188 HD
HETATM   12  C13 UNL     1      18.743  21.944  58.082  1.00  0.00     0.145 A 
HETATM   13  N7  UNL     1      18.001  23.138  58.245  1.00  0.00    -0.080 NA
HETATM   14  C14 UNL     1      18.659  20.975  57.138  1.00  0.00     0.066 A 
ENDROOT
BRANCH   2  15
HETATM   15  S1  UNL     1      17.267  19.233  53.837  1.00  0.00    -0.048 SA
BRANCH  15  16
HETATM   16  S2  UNL     1      18.389  18.335  52.303  1.00  0.00    -0.042 SA
BRANCH  16  17
HETATM   17  C6  UNL     1      18.455  19.316  50.789  1.00  0.00     0.210 C 
HETATM   18  C8  UNL     1      17.145  19.553  50.138  1.00  0.00     0.089 C 
HETATM   19  C9  UNL     1      17.319  20.356  48.887  1.00  0.00     0.239 C 
HETATM   20  N3  UNL     1      18.159  21.495  49.137  1.00  0.00    -0.054 N 
HETATM   21  C10 UNL     1      18.509  21.626  50.528  1.00  0.00     0.402 C 
ATOM     22  H32 UNL     1      18.993  21.473  48.549  1.00  0.00     0.279 HD
ATOM     23  H31 UNL     1      17.732  22.351  48.783  1.00  0.00     0.279 HD
HETATM   24  O4  UNL     1      19.123  20.529  51.079  1.00  0.00    -0.331 OA
BRANCH  17  25
HETATM   25  C7  UNL     1      19.325  18.580  49.840  1.00  0.00     0.221 C 
HETATM   26  O2  UNL     1      20.436  19.058  49.514  1.00  0.00    -0.645 OA
HETATM   27  O3  UNL     1      18.933  17.369  49.306  1.00  0.00    -0.645 OA
ENDBRANCH  17  25
ENDBRANCH  16  17
ENDBRANCH  15  16
ENDBRANCH   2  15
BRANCH   1  28
HETATM   28  C3  UNL     1      16.798  21.627  55.630  1.00  0.00     0.105 C 
HETATM   29  N1  UNL     1      15.909  22.255  56.242  1.00  0.00    -0.303 N 
ATOM     30  H1  UNL     1      15.705  23.120  55.742  1.00  0.00     0.186 HD
BRANCH  28  31
HETATM   31  C2  UNL     1      17.113  22.533  54.391  1.00  0.00     0.174 C 
HETATM   32  C1  UNL     1      18.396  23.321  54.522  1.00  0.00     0.098 C 
HETATM   33  O1  UNL     1      16.418  22.602  53.435  1.00  0.00    -0.291 OA
ENDBRANCH  28  31
BRANCH  29  34
HETATM   34  N2  UNL     1      15.133  22.183  57.327  1.00  0.00    -0.345 N 
ATOM     35  H22 UNL     1      15.347  22.992  57.912  1.00  0.00     0.176 HD
ATOM     36  H21 UNL     1      14.413  21.604  57.760  1.00  0.00     0.176 HD
ENDBRANCH  29  34
ENDBRANCH   1  28
TORSDOF 7
ENDMDL
MODEL 4
REMARK VINA RESULT: -6.899238767      3.637      6.446
REMARK  7 active torsions:
REMARK  status: ('A' for Active; 'I' for Inactive)
REMARK    1  A    between atoms: C2_2  and  C3_4 
REMARK    2  A    between atoms: C3_4  and  C4_10 
REMARK    3  A    between atoms: N1_5  and  N2_7 
REMARK    4  A    between atoms: C5_11  and  S1_12 
REMARK    5  A    between atoms: S1_12  and  S2_13 
REMARK    6  A    between atoms: S2_13  and  C6_14 
REMARK    7  A    between atoms: C6_14  and  C7_15 
ROOT
HETATM    1  C4  UNL     1      18.421  21.157  55.634  1.00  0.00     0.036 A 
HETATM    2  C5  UNL     1      17.927  22.004  56.649  1.00  0.00     0.093 A 
HETATM    3  C11 UNL     1      18.361  22.032  57.935  1.00  0.00     0.265 A 
HETATM    4  O5  UNL     1      17.863  22.810  58.781  1.00  0.00    -0.267 OA
HETATM    5  N4  UNL     1      19.331  21.222  58.332  1.00  0.00    -0.306 N 
ATOM      6  H4  UNL     1      19.666  21.244  59.295  1.00  0.00     0.170 HD
HETATM    7  C12 UNL     1      19.856  20.384  57.458  1.00  0.00     0.137 A 
HETATM    8  N5  UNL     1      20.747  19.386  57.680  1.00  0.00    -0.283 N 
ATOM      9  H5  UNL     1      21.214  19.220  58.572  1.00  0.00     0.188 HD
HETATM   10  N6  UNL     1      20.927  18.680  56.633  1.00  0.00    -0.285 N 
ATOM     11  H6  UNL     1      21.543  17.873  56.536  1.00  0.00     0.188 HD
HETATM   12  C13 UNL     1      20.117  19.230  55.651  1.00  0.00     0.145 A 
HETATM   13  N7  UNL     1      19.962  18.512  54.441  1.00  0.00    -0.080 NA
HETATM   14  C14 UNL     1      19.447  20.306  56.130  1.00  0.00     0.066 A 
ENDROOT
BRANCH   2  15
HETATM   15  S1  UNL     1      16.672  23.164  56.099  1.00  0.00    -0.048 SA
BRANCH  15  16
HETATM   16  S2  UNL     1      14.758  22.566  56.729  1.00  0.00    -0.042 SA
BRANCH  16  17
HETATM   17  C6  UNL     1      13.420  23.479  55.935  1.00  0.00     0.210 C 
HETATM   18  C8  UNL     1      12.065  23.186  56.456  1.00  0.00     0.089 C 
HETATM   19  C9  UNL     1      11.034  23.979  55.715  1.00  0.00     0.239 C 
HETATM   20  N3  UNL     1      11.433  25.356  55.626  1.00  0.00    -0.054 N 
HETATM   21  C10 UNL     1      12.641  25.628  56.362  1.00  0.00     0.402 C 
ATOM     22  H32 UNL     1      11.522  25.651  54.653  1.00  0.00     0.279 HD
ATOM     23  H31 UNL     1      10.678  25.978  55.917  1.00  0.00     0.279 HD
HETATM   24  O4  UNL     1      13.722  24.859  56.010  1.00  0.00    -0.331 OA
BRANCH  17  25
HETATM   25  C7  UNL     1      13.457  23.125  54.495  1.00  0.00     0.221 C 
HETATM   26  O2  UNL     1      13.805  21.974  54.145  1.00  0.00    -0.645 OA
HETATM   27  O3  UNL     1      13.112  24.045  53.525  1.00  0.00    -0.645 OA
ENDBRANCH  17  25
ENDBRANCH  16  17
ENDBRANCH  15  16
ENDBRANCH   2  15
BRANCH   1  28
HETATM   28  C3  UNL     1      17.796  20.935  54.386  1.00  0.00     0.105 C 
HETATM   29  N1  UNL     1      18.168  21.044  53.198  1.00  0.00    -0.303 N 
ATOM     30  H1  UNL     1      17.654  20.375  52.624  1.00  0.00     0.186 HD
BRANCH  28  31
HETATM   31  C2  UNL     1      16.709  19.808  54.338  1.00  0.00     0.174 C 
HETATM   32  C1  UNL     1      16.795  18.929  53.112  1.00  0.00     0.098 C 
HETATM   33  O1  UNL     1      15.891  19.649  55.180  1.00  0.00    -0.291 OA
ENDBRANCH  28  31
BRANCH  29  34
HETATM   34  N2  UNL     1      19.007  21.735  52.422  1.00  0.00    -0.345 N 
ATOM     35  H22 UNL     1      19.923  21.723  52.872  1.00  0.00     0.176 HD
ATOM     36  H21 UNL     1      19.040  22.259  51.547  1.00  0.00     0.176 HD
ENDBRANCH  29  34
ENDBRANCH   1  28
TORSDOF 7
ENDMDL
MODEL 5
REMARK VINA RESULT: -6.871978889      1.206      3.396
REMARK  7 active torsions:
REMARK  status: ('A' for Active; 'I' for Inactive)
REMARK    1  A    between atoms: C2_2  and  C3_4 
REMARK    2  A    between atoms: C3_4  and  C4_10 
REMARK    3  A    between atoms: N1_5  and  N2_7 
REMARK    4  A    between atoms: C5_11  and  S1_12 
REMARK    5  A    between atoms: S1_12  and  S2_13 
REMARK    6  A    between atoms: S2_13  and  C6_14 
REMARK    7  A    between atoms: C6_14  and  C7_15 
ROOT
HETATM    1  C4  UNL     1      18.494  21.270  55.402  1.00  0.00     0.036 A 
HETATM    2  C5  UNL     1      17.815  21.196  54.168  1.00  0.00     0.093 A 
HETATM    3  C11 UNL     1      16.549  21.631  53.936  1.00  0.00     0.265 A 
HETATM    4  O5  UNL     1      16.011  21.520  52.811  1.00  0.00    -0.267 OA
HETATM    5  N4  UNL     1      15.842  22.185  54.910  1.00  0.00    -0.306 N 
ATOM      6  H4  UNL     1      14.895  22.520  54.739  1.00  0.00     0.170 HD
HETATM    7  C12 UNL     1      16.388  22.294  56.106  1.00  0.00     0.137 A 
HETATM    8  N5  UNL     1      15.804  22.695  57.264  1.00  0.00    -0.283 N 
ATOM      9  H5  UNL     1      14.858  23.070  57.330  1.00  0.00     0.188 HD
HETATM   10  N6  UNL     1      16.588  22.542  58.258  1.00  0.00    -0.285 N 
ATOM     11  H6  UNL     1      16.390  22.764  59.233  1.00  0.00     0.188 HD
HETATM   12  C13 UNL     1      17.763  22.012  57.749  1.00  0.00     0.145 A 
HETATM   13  N7  UNL     1      18.733  21.546  58.668  1.00  0.00    -0.080 NA
HETATM   14  C14 UNL     1      17.676  21.861  56.405  1.00  0.00     0.066 A 
ENDROOT
BRANCH   2  15
HETATM   15  S1  UNL     1      18.795  20.525  52.823  1.00  0.00    -0.048 SA
BRANCH  15  16
HETATM   16  S2  UNL     1      18.034  18.673  52.180  1.00  0.00    -0.042 SA
BRANCH  16  17
HETATM   17  C6  UNL     1      17.943  18.516  50.385  1.00  0.00     0.210 C 
HETATM   18  C8  UNL     1      17.724  17.138  49.887  1.00  0.00     0.089 C 
HETATM   19  C9  UNL     1      17.686  17.121  48.390  1.00  0.00     0.239 C 
HETATM   20  N3  UNL     1      16.818  18.155  47.901  1.00  0.00    -0.054 N 
HETATM   21  C10 UNL     1      16.134  18.848  48.963  1.00  0.00     0.402 C 
ATOM     22  H32 UNL     1      17.325  18.809  47.304  1.00  0.00     0.279 HD
ATOM     23  H31 UNL     1      16.157  17.787  47.216  1.00  0.00     0.279 HD
HETATM   24  O4  UNL     1      16.951  19.406  49.914  1.00  0.00    -0.331 OA
BRANCH  17  25
HETATM   25  C7  UNL     1      19.234  19.011  49.846  1.00  0.00     0.221 C 
HETATM   26  O2  UNL     1      20.302  18.434  50.158  1.00  0.00    -0.645 OA
HETATM   27  O3  UNL     1      19.283  20.102  49.002  1.00  0.00    -0.645 OA
ENDBRANCH  17  25
ENDBRANCH  16  17
ENDBRANCH  15  16
ENDBRANCH   2  15
BRANCH   1  28
HETATM   28  C3  UNL     1      19.689  20.583  55.714  1.00  0.00     0.105 C 
HETATM   29  N1  UNL     1      20.659  20.824  56.464  1.00  0.00    -0.303 N 
ATOM     30  H1  UNL     1      21.061  19.943  56.786  1.00  0.00     0.186 HD
BRANCH  28  31
HETATM   31  C2  UNL     1      19.627  19.018  55.671  1.00  0.00     0.174 C 
HETATM   32  C1  UNL     1      20.984  18.352  55.699  1.00  0.00     0.098 C 
HETATM   33  O1  UNL     1      18.617  18.402  55.622  1.00  0.00    -0.291 OA
ENDBRANCH  28  31
BRANCH  29  34
HETATM   34  N2  UNL     1      21.350  21.839  56.990  1.00  0.00    -0.345 N 
ATOM     35  H22 UNL     1      20.745  22.306  57.665  1.00  0.00     0.176 HD
ATOM     36  H21 UNL     1      22.262  22.294  56.945  1.00  0.00     0.176 HD
ENDBRANCH  29  34
ENDBRANCH   1  28
TORSDOF 7
ENDMDL
