MODEL 1
REMARK VINA RESULT: -6.847914494      0.000      0.000
REMARK  10 active torsions:
REMARK  status: ('A' for Active; 'I' for Inactive)
REMARK    1  A    between atoms: C2_3  and  C3_4 
REMARK       I    between atoms: C3_4  and  N2_6 
REMARK    2  A    between atoms: N2_6  and  N3_8 
REMARK       I    between atoms: N3_8  and  C4_10 
REMARK    3  A    between atoms: C4_10  and  C5_12 
REMARK    4  A    between atoms: C6_13  and  O3_14 
REMARK    5  A    between atoms: N5_20  and  C9_21 
REMARK    6  A    between atoms: C9_21  and  C10_22 
REMARK    7  A    between atoms: C10_22  and  C11_23 
REMARK    8  A    between atoms: C11_23  and  N6_24 
REMARK    9  A    between atoms: C13_30  and  O6_31 
REMARK   10  A    between atoms: N7_33  and  N8_34 
ROOT
HETATM    1  N3  UNL     1      17.253  17.584  51.709  1.00  0.00    -0.263 N 
ATOM      2  H3  UNL     1      16.525  17.659  52.420  1.00  0.00     0.190 HD
HETATM    3  C4  UNL     1      18.303  18.494  51.674  1.00  0.00     0.280 C 
HETATM    4  O2  UNL     1      19.172  18.329  50.747  1.00  0.00    -0.266 OA
ENDROOT
BRANCH   3   5
HETATM    5  C5  UNL     1      18.494  19.593  52.583  1.00  0.00     0.152 A 
HETATM    6  C6  UNL     1      18.405  20.915  52.275  1.00  0.00     0.167 A 
HETATM    7  N4  UNL     1      18.604  21.845  53.251  1.00  0.00    -0.283 N 
HETATM    8  C7  UNL     1      18.501  23.231  52.857  1.00  0.00     0.163 C 
HETATM    9  C8  UNL     1      18.884  21.524  54.511  1.00  0.00     0.333 A 
HETATM   10  O4  UNL     1      19.062  22.407  55.396  1.00  0.00    -0.246 OA
HETATM   11  N5  UNL     1      18.984  20.224  54.870  1.00  0.00    -0.265 N 
HETATM   12  C12 UNL     1      18.794  19.306  53.932  1.00  0.00     0.271 A 
HETATM   13  O5  UNL     1      18.884  18.093  54.261  1.00  0.00    -0.267 OA
BRANCH   6  14
HETATM   14  O3  UNL     1      18.119  21.318  50.990  1.00  0.00    -0.345 OA
ATOM     15  H3  UNL     1      17.813  22.200  50.817  1.00  0.00     0.219 HD
ENDBRANCH   6  14
BRANCH  11  16
HETATM   16  C9  UNL     1      19.286  19.929  56.265  1.00  0.00     0.139 C 
BRANCH  16  17
HETATM   17  C10 UNL     1      20.767  19.647  56.445  1.00  0.00     0.048 C 
BRANCH  17  18
HETATM   18  C11 UNL     1      21.264  20.435  57.645  1.00  0.00     0.231 C 
BRANCH  18  19
HETATM   19  N6  UNL     1      21.324  21.820  57.266  1.00  0.00    -0.079 N 
ATOM     20  H63 UNL     1      22.176  22.281  57.586  1.00  0.00     0.274 HD
ATOM     21  H62 UNL     1      21.468  21.952  56.264  1.00  0.00     0.274 HD
ATOM     22  H61 UNL     1      20.478  22.274  57.608  1.00  0.00     0.274 HD
ENDBRANCH  18  19
ENDBRANCH  17  18
ENDBRANCH  16  17
ENDBRANCH  11  16
ENDBRANCH   3   5
BRANCH   1  23
HETATM   23  N2  UNL     1      17.211  16.525  50.716  1.00  0.00    -0.262 N 
HETATM   24  C3  UNL     1      16.424  16.721  49.578  1.00  0.00     0.291 C 
HETATM   25  O1  UNL     1      15.789  17.852  49.506  1.00  0.00    -0.264 OA
ATOM     26  H2  UNL     1      17.740  15.663  50.845  1.00  0.00     0.190 HD
BRANCH  24  27
HETATM   27  C2  UNL     1      16.249  15.790  48.477  1.00  0.00     0.159 A 
HETATM   28  N1  UNL     1      16.598  15.936  47.200  1.00  0.00    -0.319 N 
HETATM   29  C1  UNL     1      17.230  17.035  46.537  1.00  0.00     0.159 C 
HETATM   30  C14 UNL     1      16.230  14.791  46.536  1.00  0.00     0.202 A 
HETATM   31  N7  UNL     1      15.663  13.964  47.425  1.00  0.00    -0.211 N 
HETATM   32  S1  UNL     1      16.462  14.511  44.936  1.00  0.00    -0.038 SA
HETATM   33  C13 UNL     1      15.646  14.519  48.625  1.00  0.00     0.197 A 
BRANCH  31  34
HETATM   34  N8  UNL     1      15.155  12.691  47.141  1.00  0.00    -0.334 N 
ATOM     35  H82 UNL     1      14.417  12.485  46.467  1.00  0.00     0.177 HD
ATOM     36  H81 UNL     1      15.478  11.834  47.589  1.00  0.00     0.177 HD
ENDBRANCH  31  34
BRANCH  33  37
HETATM   37  O6  UNL     1      15.154  14.017  49.828  1.00  0.00    -0.343 OA
ATOM     38  H6  UNL     1      14.232  13.972  50.054  1.00  0.00     0.219 HD
ENDBRANCH  33  37
ENDBRANCH  24  27
ENDBRANCH   1  23
TORSDOF 10
ENDMDL
MODEL 2
REMARK VINA RESULT: -6.833002117      2.425      2.979
REMARK  10 active torsions:
REMARK  status: ('A' for Active; 'I' for Inactive)
REMARK    1  A    between atoms: C2_3  and  C3_4 
REMARK       I    between atoms: C3_4  and  N2_6 
REMARK    2  A    between atoms: N2_6  and  N3_8 
REMARK       I    between atoms: N3_8  and  C4_10 
REMARK    3  A    between atoms: C4_10  and  C5_12 
REMARK    4  A    between atoms: C6_13  and  O3_14 
REMARK    5  A    between atoms: N5_20  and  C9_21 
REMARK    6  A    between atoms: C9_21  and  C10_22 
REMARK    7  A    between atoms: C10_22  and  C11_23 
REMARK    8  A    between atoms: C11_23  and  N6_24 
REMARK    9  A    between atoms: C13_30  and  O6_31 
REMARK   10  A    between atoms: N7_33  and  N8_34 
ROOT
HETATM    1  N3  UNL     1      16.856  18.486  53.333  1.00  0.00    -0.263 N 
ATOM      2  H3  UNL     1      17.149  17.917  54.128  1.00  0.00     0.190 HD
HETATM    3  C4  UNL     1      16.632  19.849  53.484  1.00  0.00     0.280 C 
HETATM    4  O2  UNL     1      16.265  20.488  52.436  1.00  0.00    -0.266 OA
ENDROOT
BRANCH   3   5
HETATM    5  C5  UNL     1      16.778  20.595  54.706  1.00  0.00     0.152 A 
HETATM    6  C6  UNL     1      15.891  21.495  55.209  1.00  0.00     0.167 A 
HETATM    7  N4  UNL     1      16.166  22.119  56.389  1.00  0.00    -0.283 N 
HETATM    8  C7  UNL     1      15.185  23.067  56.865  1.00  0.00     0.163 C 
HETATM    9  C8  UNL     1      17.273  21.890  57.089  1.00  0.00     0.333 A 
HETATM   10  O4  UNL     1      17.501  22.481  58.181  1.00  0.00    -0.246 OA
HETATM   11  N5  UNL     1      18.188  21.004  56.633  1.00  0.00    -0.265 N 
HETATM   12  C12 UNL     1      17.937  20.389  55.486  1.00  0.00     0.271 A 
HETATM   13  O5  UNL     1      18.785  19.562  55.057  1.00  0.00    -0.267 OA
BRANCH   6  14
HETATM   14  O3  UNL     1      14.725  21.780  54.536  1.00  0.00    -0.345 OA
ATOM     15  H3  UNL     1      14.272  22.603  54.680  1.00  0.00     0.219 HD
ENDBRANCH   6  14
BRANCH  11  16
HETATM   16  C9  UNL     1      19.380  20.787  57.443  1.00  0.00     0.139 C 
BRANCH  16  17
HETATM   17  C10 UNL     1      20.555  21.576  56.891  1.00  0.00     0.048 C 
BRANCH  17  18
HETATM   18  C11 UNL     1      21.803  20.718  57.000  1.00  0.00     0.231 C 
BRANCH  18  19
HETATM   19  N6  UNL     1      21.506  19.435  56.422  1.00  0.00    -0.079 N 
ATOM     20  H63 UNL     1      20.569  19.388  56.024  1.00  0.00     0.274 HD
ATOM     21  H62 UNL     1      22.027  19.258  55.563  1.00  0.00     0.274 HD
ATOM     22  H61 UNL     1      21.669  18.727  57.137  1.00  0.00     0.274 HD
ENDBRANCH  18  19
ENDBRANCH  17  18
ENDBRANCH  16  17
ENDBRANCH  11  16
ENDBRANCH   3   5
BRANCH   1  23
HETATM   23  N2  UNL     1      16.667  17.886  52.023  1.00  0.00    -0.262 N 
HETATM   24  C3  UNL     1      17.780  17.765  51.188  1.00  0.00     0.291 C 
HETATM   25  O1  UNL     1      18.906  18.206  51.663  1.00  0.00    -0.264 OA
ATOM     26  H2  UNL     1      15.747  17.563  51.723  1.00  0.00     0.190 HD
BRANCH  24  27
HETATM   27  C2  UNL     1      17.800  17.198  49.852  1.00  0.00     0.159 A 
HETATM   28  N1  UNL     1      18.159  17.777  48.707  1.00  0.00    -0.319 N 
HETATM   29  C1  UNL     1      18.616  19.108  48.451  1.00  0.00     0.159 C 
HETATM   30  C14 UNL     1      18.012  16.847  47.707  1.00  0.00     0.202 A 
HETATM   31  N7  UNL     1      17.566  15.713  48.263  1.00  0.00    -0.211 N 
HETATM   32  S1  UNL     1      18.338  17.106  46.120  1.00  0.00    -0.038 SA
HETATM   33  C13 UNL     1      17.417  15.866  49.568  1.00  0.00     0.197 A 
BRANCH  31  34
HETATM   34  N8  UNL     1      17.289  14.525  47.576  1.00  0.00    -0.334 N 
ATOM     35  H82 UNL     1      17.949  14.013  46.989  1.00  0.00     0.177 HD
ATOM     36  H81 UNL     1      16.388  14.049  47.597  1.00  0.00     0.177 HD
ENDBRANCH  31  34
BRANCH  33  37
HETATM   37  O6  UNL     1      16.980  14.953  50.525  1.00  0.00    -0.343 OA
ATOM     38  H6  UNL     1      16.068  14.751  50.697  1.00  0.00     0.219 HD
ENDBRANCH  33  37
ENDBRANCH  24  27
ENDBRANCH   1  23
TORSDOF 10
ENDMDL
MODEL 3
REMARK VINA RESULT: -6.818372918      3.060      4.113
REMARK  10 active torsions:
REMARK  status: ('A' for Active; 'I' for Inactive)
REMARK    1  A    between atoms: C2_3  and  C3_4 
REMARK       I    between atoms: C3_4  and  N2_6 
REMARK    2  A    between atoms: N2_6  and  N3_8 
REMARK       I    between atoms: N3_8  and  C4_10 
REMARK    3  A    between atoms: C4_10  and  C5_12 
REMARK    4  A    between atoms: C6_13  and  O3_14 
REMARK    5  A    between atoms: N5_20  and  C9_21 
REMARK    6  A    between atoms: C9_21  and  C10_22 
REMARK    7  A    between atoms: C10_22  and  C11_23 
REMARK    8  A    between atoms: C11_23  and  N6_24 
REMARK    9  A    between atoms: C13_30  and  O6_31 
REMARK   10  A    between atoms: N7_33  and  N8_34 
ROOT
HETATM    1  N3  UNL     1      16.758  18.698  53.501  1.00  0.00    -0.263 N 
ATOM      2  H3  UNL     1      15.892  18.641  54.036  1.00  0.00     0.190 HD
HETATM    3  C4  UNL     1      17.793  19.528  53.917  1.00  0.00     0.280 C 
HETATM    4  O2  UNL     1      18.845  19.542  53.186  1.00  0.00    -0.266 OA
ENDROOT
BRANCH   3   5
HETATM    5  C5  UNL     1      17.782  20.362  55.090  1.00  0.00     0.152 A 
HETATM    6  C6  UNL     1      18.702  20.352  56.091  1.00  0.00     0.167 A 
HETATM    7  N4  UNL     1      18.561  21.212  57.139  1.00  0.00    -0.283 N 
HETATM    8  C7  UNL     1      19.570  21.147  58.171  1.00  0.00     0.163 C 
HETATM    9  C8  UNL     1      17.556  22.077  57.235  1.00  0.00     0.333 A 
HETATM   10  O4  UNL     1      17.451  22.864  58.217  1.00  0.00    -0.246 OA
HETATM   11  N5  UNL     1      16.613  22.128  56.267  1.00  0.00    -0.265 N 
HETATM   12  C12 UNL     1      16.735  21.297  55.240  1.00  0.00     0.271 A 
HETATM   13  O5  UNL     1      15.861  21.340  54.335  1.00  0.00    -0.267 OA
BRANCH   6  14
HETATM   14  O3  UNL     1      19.768  19.482  56.054  1.00  0.00    -0.345 OA
ATOM     15  H3  UNL     1      20.250  19.274  56.847  1.00  0.00     0.219 HD
ENDBRANCH   6  14
BRANCH  11  16
HETATM   16  C9  UNL     1      15.538  23.099  56.421  1.00  0.00     0.139 C 
BRANCH  16  17
HETATM   17  C10 UNL     1      14.315  22.449  57.044  1.00  0.00     0.048 C 
BRANCH  17  18
HETATM   18  C11 UNL     1      13.213  23.491  57.137  1.00  0.00     0.231 C 
BRANCH  18  19
HETATM   19  N6  UNL     1      12.924  23.701  58.530  1.00  0.00    -0.079 N 
ATOM     20  H63 UNL     1      11.997  23.369  58.796  1.00  0.00     0.274 HD
ATOM     21  H62 UNL     1      13.467  23.093  59.144  1.00  0.00     0.274 HD
ATOM     22  H61 UNL     1      13.062  24.691  58.730  1.00  0.00     0.274 HD
ENDBRANCH  18  19
ENDBRANCH  17  18
ENDBRANCH  16  17
ENDBRANCH  11  16
ENDBRANCH   3   5
BRANCH   1  23
HETATM   23  N2  UNL     1      16.933  17.915  52.290  1.00  0.00    -0.262 N 
HETATM   24  C3  UNL     1      16.186  18.269  51.163  1.00  0.00     0.291 C 
HETATM   25  O1  UNL     1      15.388  19.284  51.299  1.00  0.00    -0.264 OA
ATOM     26  H2  UNL     1      17.583  17.129  52.263  1.00  0.00     0.190 HD
BRANCH  24  27
HETATM   27  C2  UNL     1      16.216  17.616  49.867  1.00  0.00     0.159 A 
HETATM   28  N1  UNL     1      17.236  17.494  49.019  1.00  0.00    -0.319 N 
HETATM   29  C1  UNL     1      18.582  17.966  49.123  1.00  0.00     0.159 C 
HETATM   30  C14 UNL     1      16.785  16.797  47.924  1.00  0.00     0.202 A 
HETATM   31  N7  UNL     1      15.494  16.505  48.127  1.00  0.00    -0.211 N 
HETATM   32  S1  UNL     1      17.693  16.402  46.616  1.00  0.00    -0.038 SA
HETATM   33  C13 UNL     1      15.091  16.979  49.293  1.00  0.00     0.197 A 
BRANCH  31  34
HETATM   34  N8  UNL     1      14.671  15.801  47.239  1.00  0.00    -0.334 N 
ATOM     35  H82 UNL     1      13.919  16.205  46.681  1.00  0.00     0.177 HD
ATOM     36  H81 UNL     1      14.745  14.799  47.064  1.00  0.00     0.177 HD
ENDBRANCH  31  34
BRANCH  33  37
HETATM   37  O6  UNL     1      13.837  16.904  49.896  1.00  0.00    -0.343 OA
ATOM     38  H6  UNL     1      13.020  16.787  49.424  1.00  0.00     0.219 HD
ENDBRANCH  33  37
ENDBRANCH  24  27
ENDBRANCH   1  23
TORSDOF 10
ENDMDL
MODEL 4
REMARK VINA RESULT: -6.723921965      6.125      9.535
REMARK  10 active torsions:
REMARK  status: ('A' for Active; 'I' for Inactive)
REMARK    1  A    between atoms: C2_3  and  C3_4 
REMARK       I    between atoms: C3_4  and  N2_6 
REMARK    2  A    between atoms: N2_6  and  N3_8 
REMARK       I    between atoms: N3_8  and  C4_10 
REMARK    3  A    between atoms: C4_10  and  C5_12 
REMARK    4  A    between atoms: C6_13  and  O3_14 
REMARK    5  A    between atoms: N5_20  and  C9_21 
REMARK    6  A    between atoms: C9_21  and  C10_22 
REMARK    7  A    between atoms: C10_22  and  C11_23 
REMARK    8  A    between atoms: C11_23  and  N6_24 
REMARK    9  A    between atoms: C13_30  and  O6_31 
REMARK   10  A    between atoms: N7_33  and  N8_34 
ROOT
HETATM    1  N3  UNL     1      15.359  22.104  56.374  1.00  0.00    -0.263 N 
ATOM      2  H3  UNL     1      15.036  21.175  56.646  1.00  0.00     0.190 HD
HETATM    3  C4  UNL     1      16.467  22.254  55.547  1.00  0.00     0.280 C 
HETATM    4  O2  UNL     1      16.805  23.455  55.258  1.00  0.00    -0.266 OA
ENDROOT
BRANCH   3   5
HETATM    5  C5  UNL     1      17.254  21.184  54.994  1.00  0.00     0.152 A 
HETATM    6  C6  UNL     1      17.199  20.726  53.714  1.00  0.00     0.167 A 
HETATM    7  N4  UNL     1      18.018  19.705  53.333  1.00  0.00    -0.283 N 
HETATM    8  C7  UNL     1      17.907  19.263  51.962  1.00  0.00     0.163 C 
HETATM    9  C8  UNL     1      18.884  19.124  54.159  1.00  0.00     0.333 A 
HETATM   10  O4  UNL     1      19.632  18.181  53.778  1.00  0.00    -0.246 OA
HETATM   11  N5  UNL     1      18.977  19.542  55.442  1.00  0.00    -0.265 N 
HETATM   12  C12 UNL     1      18.187  20.534  55.829  1.00  0.00     0.271 A 
HETATM   13  O5  UNL     1      18.270  20.927  57.023  1.00  0.00    -0.267 OA
BRANCH   6  14
HETATM   14  O3  UNL     1      16.326  21.282  52.807  1.00  0.00    -0.345 OA
ATOM     15  H3  UNL     1      16.284  20.958  51.915  1.00  0.00     0.219 HD
ENDBRANCH   6  14
BRANCH  11  16
HETATM   16  C9  UNL     1      19.947  18.874  56.300  1.00  0.00     0.139 C 
BRANCH  16  17
HETATM   17  C10 UNL     1      21.297  19.564  56.224  1.00  0.00     0.048 C 
BRANCH  17  18
HETATM   18  C11 UNL     1      21.512  20.343  57.510  1.00  0.00     0.231 C 
BRANCH  18  19
HETATM   19  N6  UNL     1      21.282  21.733  57.225  1.00  0.00    -0.079 N 
ATOM     20  H63 UNL     1      20.329  21.921  56.914  1.00  0.00     0.274 HD
ATOM     21  H62 UNL     1      21.267  22.313  58.064  1.00  0.00     0.274 HD
ATOM     22  H61 UNL     1      21.984  22.033  56.549  1.00  0.00     0.274 HD
ENDBRANCH  18  19
ENDBRANCH  17  18
ENDBRANCH  16  17
ENDBRANCH  11  16
ENDBRANCH   3   5
BRANCH   1  23
HETATM   23  N2  UNL     1      14.671  23.293  56.845  1.00  0.00    -0.262 N 
HETATM   24  C3  UNL     1      13.386  23.546  56.357  1.00  0.00     0.291 C 
HETATM   25  O1  UNL     1      12.912  22.682  55.511  1.00  0.00    -0.264 OA
ATOM     26  H2  UNL     1      15.112  23.925  57.513  1.00  0.00     0.190 HD
BRANCH  24  27
HETATM   27  C2  UNL     1      12.538  24.673  56.701  1.00  0.00     0.159 A 
HETATM   28  N1  UNL     1      12.020  25.602  55.898  1.00  0.00    -0.319 N 
HETATM   29  C1  UNL     1      12.148  25.772  54.484  1.00  0.00     0.159 C 
HETATM   30  C14 UNL     1      11.285  26.461  56.678  1.00  0.00     0.202 A 
HETATM   31  N7  UNL     1      11.367  26.038  57.946  1.00  0.00    -0.211 N 
HETATM   32  S1  UNL     1      10.458  27.766  56.124  1.00  0.00    -0.038 SA
HETATM   33  C13 UNL     1      12.118  24.953  58.023  1.00  0.00     0.197 A 
BRANCH  31  34
HETATM   34  N8  UNL     1      10.753  26.647  59.047  1.00  0.00    -0.334 N 
ATOM     35  H82 UNL     1      11.180  26.779  59.965  1.00  0.00     0.177 HD
ATOM     36  H81 UNL     1       9.806  27.023  59.037  1.00  0.00     0.177 HD
ENDBRANCH  31  34
BRANCH  33  37
HETATM   37  O6  UNL     1      12.465  24.191  59.136  1.00  0.00    -0.343 OA
ATOM     38  H6  UNL     1      13.341  23.867  59.313  1.00  0.00     0.219 HD
ENDBRANCH  33  37
ENDBRANCH  24  27
ENDBRANCH   1  23
TORSDOF 10
ENDMDL
MODEL 5
REMARK VINA RESULT: -6.657065041      2.550      3.407
REMARK  10 active torsions:
REMARK  status: ('A' for Active; 'I' for Inactive)
REMARK    1  A    between atoms: C2_3  and  C3_4 
REMARK       I    between atoms: C3_4  and  N2_6 
REMARK    2  A    between atoms: N2_6  and  N3_8 
REMARK       I    between atoms: N3_8  and  C4_10 
REMARK    3  A    between atoms: C4_10  and  C5_12 
REMARK    4  A    between atoms: C6_13  and  O3_14 
REMARK    5  A    between atoms: N5_20  and  C9_21 
REMARK    6  A    between atoms: C9_21  and  C10_22 
REMARK    7  A    between atoms: C10_22  and  C11_23 
REMARK    8  A    between atoms: C11_23  and  N6_24 
REMARK    9  A    between atoms: C13_30  and  O6_31 
REMARK   10  A    between atoms: N7_33  and  N8_34 
ROOT
HETATM    1  N3  UNL     1      16.939  18.480  53.167  1.00  0.00    -0.263 N 
ATOM      2  H3  UNL     1      17.218  17.889  53.951  1.00  0.00     0.190 HD
HETATM    3  C4  UNL     1      16.707  19.838  53.353  1.00  0.00     0.280 C 
HETATM    4  O2  UNL     1      16.358  20.505  52.317  1.00  0.00    -0.266 OA
ENDROOT
BRANCH   3   5
HETATM    5  C5  UNL     1      16.827  20.548  54.599  1.00  0.00     0.152 A 
HETATM    6  C6  UNL     1      15.920  21.419  55.117  1.00  0.00     0.167 A 
HETATM    7  N4  UNL     1      16.171  22.011  56.319  1.00  0.00    -0.283 N 
HETATM    8  C7  UNL     1      15.170  22.929  56.812  1.00  0.00     0.163 C 
HETATM    9  C8  UNL     1      17.274  21.778  57.025  1.00  0.00     0.333 A 
HETATM   10  O4  UNL     1      17.480  22.340  58.137  1.00  0.00    -0.246 OA
HETATM   11  N5  UNL     1      18.208  20.921  56.554  1.00  0.00    -0.265 N 
HETATM   12  C12 UNL     1      17.980  20.337  55.385  1.00  0.00     0.271 A 
HETATM   13  O5  UNL     1      18.846  19.537  54.942  1.00  0.00    -0.267 OA
BRANCH   6  14
HETATM   14  O3  UNL     1      14.757  21.706  54.440  1.00  0.00    -0.345 OA
ATOM     15  H3  UNL     1      14.470  22.605  54.330  1.00  0.00     0.219 HD
ENDBRANCH   6  14
BRANCH  11  16
HETATM   16  C9  UNL     1      19.394  20.699  57.371  1.00  0.00     0.139 C 
BRANCH  16  17
HETATM   17  C10 UNL     1      20.545  21.566  56.893  1.00  0.00     0.048 C 
BRANCH  17  18
HETATM   18  C11 UNL     1      21.829  20.761  56.996  1.00  0.00     0.231 C 
BRANCH  18  19
HETATM   19  N6  UNL     1      21.581  19.465  56.424  1.00  0.00    -0.079 N 
ATOM     20  H63 UNL     1      22.162  19.275  55.608  1.00  0.00     0.274 HD
ATOM     21  H62 UNL     1      21.918  18.702  57.011  1.00  0.00     0.274 HD
ATOM     22  H61 UNL     1      20.583  19.399  56.223  1.00  0.00     0.274 HD
ENDBRANCH  18  19
ENDBRANCH  17  18
ENDBRANCH  16  17
ENDBRANCH  11  16
ENDBRANCH   3   5
BRANCH   1  23
HETATM   23  N2  UNL     1      16.777  17.917  51.837  1.00  0.00    -0.262 N 
HETATM   24  C3  UNL     1      17.903  17.839  51.014  1.00  0.00     0.291 C 
HETATM   25  O1  UNL     1      19.015  18.282  51.518  1.00  0.00    -0.264 OA
ATOM     26  H2  UNL     1      15.866  17.589  51.514  1.00  0.00     0.190 HD
BRANCH  24  27
HETATM   27  C2  UNL     1      17.949  17.314  49.662  1.00  0.00     0.159 A 
HETATM   28  N1  UNL     1      17.664  16.084  49.235  1.00  0.00    -0.319 N 
HETATM   29  C1  UNL     1      17.241  14.931  49.967  1.00  0.00     0.159 C 
HETATM   30  C14 UNL     1      17.853  16.063  47.875  1.00  0.00     0.202 A 
HETATM   31  N7  UNL     1      18.251  17.284  47.496  1.00  0.00    -0.211 N 
HETATM   32  S1  UNL     1      17.620  14.757  46.909  1.00  0.00    -0.038 SA
HETATM   33  C13 UNL     1      18.329  18.090  48.541  1.00  0.00     0.197 A 
BRANCH  31  34
HETATM   34  N8  UNL     1      18.548  17.671  46.183  1.00  0.00    -0.334 N 
ATOM     35  H82 UNL     1      19.393  18.161  45.888  1.00  0.00     0.177 HD
ATOM     36  H81 UNL     1      17.939  17.499  45.385  1.00  0.00     0.177 HD
ENDBRANCH  31  34
BRANCH  33  37
HETATM   37  O6  UNL     1      18.698  19.432  48.602  1.00  0.00    -0.343 OA
ATOM     38  H6  UNL     1      19.433  19.808  48.131  1.00  0.00     0.219 HD
ENDBRANCH  33  37
ENDBRANCH  24  27
ENDBRANCH   1  23
TORSDOF 10
ENDMDL
