MODEL 1
REMARK VINA RESULT: -7.451643830      0.000      0.000
REMARK  9 active torsions:
REMARK  status: ('A' for Active; 'I' for Inactive)
REMARK    1  A    between atoms: O1_2  and  C2_3 
REMARK    2  A    between atoms: C5_6  and  C6_7 
REMARK    3  A    between atoms: C6_7  and  N9_32 
REMARK    4  A    between atoms: N1_8  and  N2_10 
REMARK    5  A    between atoms: C7_12  and  C8_13 
REMARK    6  A    between atoms: N3_15  and  N4_16 
REMARK    7  A    between atoms: C10_19  and  C11_20 
REMARK    8  A    between atoms: N6_24  and  O3_25 
REMARK    9  A    between atoms: N9_32  and  N10_34 
REMARK       I    between atoms: N10_34  and  C14_36 
ROOT
HETATM    1  C11 UNL     1      17.579  18.788  51.049  1.00  0.00     0.144 A 
HETATM    2  N5  UNL     1      16.995  17.687  51.553  1.00  0.00    -0.233 N 
ATOM      3  H5  UNL     1      16.438  17.639  52.406  1.00  0.00     0.197 HD
HETATM    4  O2  UNL     1      17.265  16.703  50.765  1.00  0.00    -0.127 OA
HETATM    5  N6  UNL     1      17.995  17.070  49.759  1.00  0.00    -0.089 N 
HETATM    6  C12 UNL     1      18.221  18.389  49.897  1.00  0.00     0.202 A 
HETATM    7  C13 UNL     1      18.995  19.183  48.981  1.00  0.00     0.125 C 
HETATM    8  N7  UNL     1      19.603  19.832  48.236  1.00  0.00    -0.190 NA
ENDROOT
BRANCH   1   9
HETATM    9  C10 UNL     1      17.556  20.143  51.590  1.00  0.00     0.159 A 
HETATM   10  N3  UNL     1      16.501  20.980  51.625  1.00  0.00    -0.253 N 
HETATM   11  C9  UNL     1      16.893  22.143  52.208  1.00  0.00     0.148 A 
HETATM   12  C8  UNL     1      18.220  22.043  52.550  1.00  0.00     0.068 A 
HETATM   13  N8  UNL     1      18.586  20.788  52.148  1.00  0.00    -0.337 N 
ATOM     14  H8  UNL     1      19.521  20.396  52.259  1.00  0.00     0.167 HD
BRANCH  10  15
HETATM   15  N4  UNL     1      15.247  20.628  51.119  1.00  0.00    -0.337 N 
ATOM     16  H42 UNL     1      14.444  20.449  51.723  1.00  0.00     0.177 HD
ATOM     17  H41 UNL     1      14.958  20.499  50.149  1.00  0.00     0.177 HD
ENDBRANCH  10  15
BRANCH  12  18
HETATM   18  C7  UNL     1      19.088  23.025  53.188  1.00  0.00     0.138 C 
HETATM   19  N2  UNL     1      18.909  23.539  54.313  1.00  0.00    -0.308 N 
ATOM     20  H2  UNL     1      19.633  24.205  54.584  1.00  0.00     0.186 HD
BRANCH  19  21
HETATM   21  N1  UNL     1      17.944  23.380  55.233  1.00  0.00    -0.284 N 
HETATM   22  C6  UNL     1      17.863  22.410  56.117  1.00  0.00     0.145 C 
ATOM     23  H1  UNL     1      17.203  24.080  55.247  1.00  0.00     0.188 HD
BRANCH  22  24
HETATM   24  C5  UNL     1      18.862  21.352  56.189  1.00  0.00     0.011 A 
HETATM   25  C4  UNL     1      18.568  20.129  55.598  1.00  0.00     0.018 A 
HETATM   26  C3  UNL     1      19.515  19.128  55.643  1.00  0.00     0.037 A 
HETATM   27  C2  UNL     1      20.741  19.273  56.245  1.00  0.00     0.068 A 
HETATM   28  C16 UNL     1      21.022  20.487  56.828  1.00  0.00     0.037 A 
HETATM   29  C15 UNL     1      20.092  21.520  56.802  1.00  0.00     0.018 A 
BRANCH  27  30
HETATM   30  O1  UNL     1      21.641  18.219  56.249  1.00  0.00    -0.356 OA
HETATM   31  C1  UNL     1      22.759  18.250  55.384  1.00  0.00     0.210 C 
ENDBRANCH  27  30
ENDBRANCH  22  24
BRANCH  22  32
HETATM   32  N9  UNL     1      16.747  22.439  56.986  1.00  0.00    -0.281 N 
ATOM     33  H9  UNL     1      16.879  22.853  57.908  1.00  0.00     0.188 HD
BRANCH  32  34
HETATM   34  N10 UNL     1      15.486  21.946  56.678  1.00  0.00    -0.272 N 
HETATM   35  C14 UNL     1      14.333  22.767  56.725  1.00  0.00     0.200 C 
HETATM   36  N11 UNL     1      14.421  24.048  56.478  1.00  0.00    -0.372 N 
HETATM   37  N12 UNL     1      13.083  22.182  57.043  1.00  0.00    -0.062 NA
ATOM     38 2H11 UNL     1      15.321  24.469  56.249  1.00  0.00     0.158 HD
ATOM     39 1H11 UNL     1      13.591  24.639  56.511  1.00  0.00     0.158 HD
ATOM     40  H10 UNL     1      15.388  20.967  56.411  1.00  0.00     0.189 HD
ENDBRANCH  32  34
ENDBRANCH  22  32
ENDBRANCH  19  21
ENDBRANCH  12  18
ENDBRANCH   1   9
BRANCH   5  41
HETATM   41  O3  UNL     1      18.465  16.279  48.733  1.00  0.00    -0.260 OA
ATOM     42  H3  UNL     1      19.336  15.912  48.640  1.00  0.00     0.247 HD
ENDBRANCH   5  41
TORSDOF 9
ENDMDL
MODEL 2
REMARK VINA RESULT: -7.392202140      2.791      6.939
REMARK  9 active torsions:
REMARK  status: ('A' for Active; 'I' for Inactive)
REMARK    1  A    between atoms: O1_2  and  C2_3 
REMARK    2  A    between atoms: C5_6  and  C6_7 
REMARK    3  A    between atoms: C6_7  and  N9_32 
REMARK    4  A    between atoms: N1_8  and  N2_10 
REMARK    5  A    between atoms: C7_12  and  C8_13 
REMARK    6  A    between atoms: N3_15  and  N4_16 
REMARK    7  A    between atoms: C10_19  and  C11_20 
REMARK    8  A    between atoms: N6_24  and  O3_25 
REMARK    9  A    between atoms: N9_32  and  N10_34 
REMARK       I    between atoms: N10_34  and  C14_36 
ROOT
HETATM    1  C11 UNL     1      20.623  20.954  56.829  1.00  0.00     0.144 A 
HETATM    2  N5  UNL     1      21.795  21.347  57.357  1.00  0.00    -0.233 N 
ATOM      3  H5  UNL     1      21.935  22.132  57.993  1.00  0.00     0.197 HD
HETATM    4  O2  UNL     1      22.710  20.553  56.916  1.00  0.00    -0.127 OA
HETATM    5  N6  UNL     1      22.230  19.648  56.123  1.00  0.00    -0.089 N 
HETATM    6  C12 UNL     1      20.904  19.862  56.036  1.00  0.00     0.202 A 
HETATM    7  C13 UNL     1      19.999  19.069  55.249  1.00  0.00     0.125 C 
HETATM    8  N7  UNL     1      19.263  18.420  54.631  1.00  0.00    -0.190 NA
ENDROOT
BRANCH   1   9
HETATM    9  C10 UNL     1      19.304  21.543  57.035  1.00  0.00     0.159 A 
HETATM   10  N3  UNL     1      18.816  22.049  58.185  1.00  0.00    -0.253 N 
HETATM   11  C9  UNL     1      17.554  22.499  57.955  1.00  0.00     0.148 A 
HETATM   12  C8  UNL     1      17.236  22.278  56.638  1.00  0.00     0.068 A 
HETATM   13  N8  UNL     1      18.349  21.685  56.109  1.00  0.00    -0.337 N 
ATOM     14  H8  UNL     1      18.439  21.391  55.137  1.00  0.00     0.167 HD
BRANCH  10  15
HETATM   15  N4  UNL     1      19.554  22.062  59.371  1.00  0.00    -0.337 N 
ATOM     16  H42 UNL     1      19.112  22.072  60.290  1.00  0.00     0.177 HD
ATOM     17  H41 UNL     1      20.566  22.066  59.498  1.00  0.00     0.177 HD
ENDBRANCH  10  15
BRANCH  12  18
HETATM   18  C7  UNL     1      16.004  22.579  55.920  1.00  0.00     0.138 C 
HETATM   19  N2  UNL     1      15.459  21.851  55.062  1.00  0.00    -0.308 N 
ATOM     20  H2  UNL     1      14.598  22.240  54.676  1.00  0.00     0.186 HD
BRANCH  19  21
HETATM   21  N1  UNL     1      15.793  20.655  54.553  1.00  0.00    -0.284 N 
HETATM   22  C6  UNL     1      16.381  20.438  53.398  1.00  0.00     0.145 C 
ATOM     23  H1  UNL     1      15.567  19.836  55.117  1.00  0.00     0.188 HD
BRANCH  22  24
HETATM   24  C5  UNL     1      16.748  21.530  52.505  1.00  0.00     0.011 A 
HETATM   25  C4  UNL     1      15.823  21.938  51.551  1.00  0.00     0.018 A 
HETATM   26  C3  UNL     1      16.153  22.983  50.715  1.00  0.00     0.037 A 
HETATM   27  C2  UNL     1      17.353  23.649  50.774  1.00  0.00     0.068 A 
HETATM   28  C16 UNL     1      18.262  23.238  51.721  1.00  0.00     0.037 A 
HETATM   29  C15 UNL     1      17.964  22.187  52.581  1.00  0.00     0.018 A 
BRANCH  27  30
HETATM   30  O1  UNL     1      17.611  24.692  49.899  1.00  0.00    -0.356 OA
HETATM   31  C1  UNL     1      17.259  26.013  50.261  1.00  0.00     0.210 C 
ENDBRANCH  27  30
ENDBRANCH  22  24
BRANCH  22  32
HETATM   32  N9  UNL     1      16.628  19.087  53.058  1.00  0.00    -0.281 N 
ATOM     33  H9  UNL     1      16.249  18.369  53.676  1.00  0.00     0.188 HD
BRANCH  32  34
HETATM   34  N10 UNL     1      17.346  18.664  51.948  1.00  0.00    -0.272 N 
HETATM   35  C14 UNL     1      16.747  17.892  50.923  1.00  0.00     0.200 C 
HETATM   36  N11 UNL     1      15.476  18.025  50.650  1.00  0.00    -0.372 N 
HETATM   37  N12 UNL     1      17.544  16.973  50.198  1.00  0.00    -0.062 NA
ATOM     38 2H11 UNL     1      14.902  18.686  51.172  1.00  0.00     0.158 HD
ATOM     39 1H11 UNL     1      15.044  17.469  49.911  1.00  0.00     0.158 HD
ATOM     40  H10 UNL     1      18.331  18.916  51.869  1.00  0.00     0.189 HD
ENDBRANCH  32  34
ENDBRANCH  22  32
ENDBRANCH  19  21
ENDBRANCH  12  18
ENDBRANCH   1   9
BRANCH   5  41
HETATM   41  O3  UNL     1      22.923  18.647  55.477  1.00  0.00    -0.260 OA
ATOM     42  H3  UNL     1      22.582  18.022  54.847  1.00  0.00     0.247 HD
ENDBRANCH   5  41
TORSDOF 9
ENDMDL
MODEL 3
REMARK VINA RESULT: -7.324061362      3.138      7.970
REMARK  9 active torsions:
REMARK  status: ('A' for Active; 'I' for Inactive)
REMARK    1  A    between atoms: O1_2  and  C2_3 
REMARK    2  A    between atoms: C5_6  and  C6_7 
REMARK    3  A    between atoms: C6_7  and  N9_32 
REMARK    4  A    between atoms: N1_8  and  N2_10 
REMARK    5  A    between atoms: C7_12  and  C8_13 
REMARK    6  A    between atoms: N3_15  and  N4_16 
REMARK    7  A    between atoms: C10_19  and  C11_20 
REMARK    8  A    between atoms: N6_24  and  O3_25 
REMARK    9  A    between atoms: N9_32  and  N10_34 
REMARK       I    between atoms: N10_34  and  C14_36 
ROOT
HETATM    1  C11 UNL     1      18.293  21.331  56.666  1.00  0.00     0.144 A 
HETATM    2  N5  UNL     1      17.210  21.873  57.248  1.00  0.00    -0.233 N 
ATOM      3  H5  UNL     1      16.270  21.909  56.854  1.00  0.00     0.197 HD
HETATM    4  O2  UNL     1      17.571  22.338  58.395  1.00  0.00    -0.127 OA
HETATM    5  N6  UNL     1      18.832  22.145  58.624  1.00  0.00    -0.089 N 
HETATM    6  C12 UNL     1      19.335  21.507  57.551  1.00  0.00     0.202 A 
HETATM    7  C13 UNL     1      20.709  21.108  57.410  1.00  0.00     0.125 C 
HETATM    8  N7  UNL     1      21.812  20.767  57.300  1.00  0.00    -0.190 NA
ENDROOT
BRANCH   1   9
HETATM    9  C10 UNL     1      18.381  20.682  55.362  1.00  0.00     0.159 A 
HETATM   10  N3  UNL     1      18.714  21.261  54.192  1.00  0.00    -0.253 N 
HETATM   11  C9  UNL     1      18.679  20.314  53.218  1.00  0.00     0.148 A 
HETATM   12  C8  UNL     1      18.318  19.113  53.778  1.00  0.00     0.068 A 
HETATM   13  N8  UNL     1      18.145  19.390  55.106  1.00  0.00    -0.337 N 
ATOM     14  H8  UNL     1      17.871  18.703  55.808  1.00  0.00     0.167 HD
BRANCH  10  15
HETATM   15  N4  UNL     1      19.026  22.619  54.090  1.00  0.00    -0.337 N 
ATOM     16  H42 UNL     1      19.826  23.033  54.568  1.00  0.00     0.177 HD
ATOM     17  H41 UNL     1      18.544  23.352  53.570  1.00  0.00     0.177 HD
ENDBRANCH  10  15
BRANCH  12  18
HETATM   18  C7  UNL     1      18.139  17.813  53.144  1.00  0.00     0.138 C 
HETATM   19  N2  UNL     1      17.244  17.516  52.323  1.00  0.00    -0.308 N 
ATOM     20  H2  UNL     1      17.291  16.552  51.992  1.00  0.00     0.186 HD
BRANCH  19  21
HETATM   21  N1  UNL     1      16.235  18.225  51.795  1.00  0.00    -0.284 N 
HETATM   22  C6  UNL     1      15.845  18.209  50.539  1.00  0.00     0.145 C 
ATOM     23  H1  UNL     1      15.719  18.835  52.429  1.00  0.00     0.188 HD
BRANCH  22  24
HETATM   24  C5  UNL     1      16.507  17.378  49.541  1.00  0.00     0.011 A 
HETATM   25  C4  UNL     1      17.592  17.913  48.856  1.00  0.00     0.018 A 
HETATM   26  C3  UNL     1      18.238  17.128  47.924  1.00  0.00     0.037 A 
HETATM   27  C2  UNL     1      17.865  15.839  47.633  1.00  0.00     0.068 A 
HETATM   28  C16 UNL     1      16.789  15.319  48.316  1.00  0.00     0.037 A 
HETATM   29  C15 UNL     1      16.114  16.080  49.263  1.00  0.00     0.018 A 
BRANCH  27  30
HETATM   30  O1  UNL     1      18.565  15.112  46.683  1.00  0.00    -0.356 OA
HETATM   31  C1  UNL     1      19.116  13.857  47.027  1.00  0.00     0.210 C 
ENDBRANCH  27  30
ENDBRANCH  22  24
BRANCH  22  32
HETATM   32  N9  UNL     1      14.759  19.050  50.203  1.00  0.00    -0.281 N 
ATOM     33  H9  UNL     1      14.909  19.742  49.469  1.00  0.00     0.188 HD
BRANCH  32  34
HETATM   34  N10 UNL     1      13.505  19.006  50.797  1.00  0.00    -0.272 N 
HETATM   35  C14 UNL     1      12.435  18.275  50.225  1.00  0.00     0.200 C 
HETATM   36  N11 UNL     1      12.669  17.202  49.517  1.00  0.00    -0.372 N 
HETATM   37  N12 UNL     1      11.108  18.724  50.429  1.00  0.00    -0.062 NA
ATOM     38 2H11 UNL     1      13.624  16.878  49.370  1.00  0.00     0.158 HD
ATOM     39 1H11 UNL     1      11.898  16.675  49.106  1.00  0.00     0.158 HD
ATOM     40  H10 UNL     1      13.351  19.513  51.668  1.00  0.00     0.189 HD
ENDBRANCH  32  34
ENDBRANCH  22  32
ENDBRANCH  19  21
ENDBRANCH  12  18
ENDBRANCH   1   9
BRANCH   5  41
HETATM   41  O3  UNL     1      19.546  22.515  59.743  1.00  0.00    -0.260 OA
ATOM     42  H3  UNL     1      20.218  23.184  59.805  1.00  0.00     0.247 HD
ENDBRANCH   5  41
TORSDOF 9
ENDMDL
MODEL 4
REMARK VINA RESULT: -7.168409397      2.815      7.655
REMARK  9 active torsions:
REMARK  status: ('A' for Active; 'I' for Inactive)
REMARK    1  A    between atoms: O1_2  and  C2_3 
REMARK    2  A    between atoms: C5_6  and  C6_7 
REMARK    3  A    between atoms: C6_7  and  N9_32 
REMARK    4  A    between atoms: N1_8  and  N2_10 
REMARK    5  A    between atoms: C7_12  and  C8_13 
REMARK    6  A    between atoms: N3_15  and  N4_16 
REMARK    7  A    between atoms: C10_19  and  C11_20 
REMARK    8  A    between atoms: N6_24  and  O3_25 
REMARK    9  A    between atoms: N9_32  and  N10_34 
REMARK       I    between atoms: N10_34  and  C14_36 
ROOT
HETATM    1  C11 UNL     1      18.348  21.297  56.720  1.00  0.00     0.144 A 
HETATM    2  N5  UNL     1      17.260  21.778  57.346  1.00  0.00    -0.233 N 
ATOM      3  H5  UNL     1      16.305  21.765  56.988  1.00  0.00     0.197 HD
HETATM    4  O2  UNL     1      17.640  22.259  58.480  1.00  0.00    -0.127 OA
HETATM    5  N6  UNL     1      18.917  22.134  58.661  1.00  0.00    -0.089 N 
HETATM    6  C12 UNL     1      19.411  21.527  57.567  1.00  0.00     0.202 A 
HETATM    7  C13 UNL     1      20.799  21.202  57.371  1.00  0.00     0.125 C 
HETATM    8  N7  UNL     1      21.914  20.922  57.218  1.00  0.00    -0.190 NA
ENDROOT
BRANCH   1   9
HETATM    9  C10 UNL     1      18.421  20.657  55.411  1.00  0.00     0.159 A 
HETATM   10  N3  UNL     1      18.757  21.241  54.244  1.00  0.00    -0.253 N 
HETATM   11  C9  UNL     1      18.704  20.303  53.262  1.00  0.00     0.148 A 
HETATM   12  C8  UNL     1      18.329  19.103  53.815  1.00  0.00     0.068 A 
HETATM   13  N8  UNL     1      18.165  19.371  55.145  1.00  0.00    -0.337 N 
ATOM     14  H8  UNL     1      17.885  18.682  55.843  1.00  0.00     0.167 HD
BRANCH  10  15
HETATM   15  N4  UNL     1      19.088  22.595  54.152  1.00  0.00    -0.337 N 
ATOM     16  H42 UNL     1      19.291  23.165  54.973  1.00  0.00     0.177 HD
ATOM     17  H41 UNL     1      19.168  23.183  53.321  1.00  0.00     0.177 HD
ENDBRANCH  10  15
BRANCH  12  18
HETATM   18  C7  UNL     1      18.128  17.810  53.171  1.00  0.00     0.138 C 
HETATM   19  N2  UNL     1      17.213  17.526  52.369  1.00  0.00    -0.308 N 
ATOM     20  H2  UNL     1      17.247  16.565  52.026  1.00  0.00     0.186 HD
BRANCH  19  21
HETATM   21  N1  UNL     1      16.194  18.245  51.873  1.00  0.00    -0.284 N 
HETATM   22  C6  UNL     1      15.792  18.265  50.621  1.00  0.00     0.145 C 
ATOM     23  H1  UNL     1      15.682  18.833  52.531  1.00  0.00     0.188 HD
BRANCH  22  24
HETATM   24  C5  UNL     1      16.447  17.469  49.591  1.00  0.00     0.011 A 
HETATM   25  C4  UNL     1      17.596  17.979  48.999  1.00  0.00     0.018 A 
HETATM   26  C3  UNL     1      18.235  17.224  48.038  1.00  0.00     0.037 A 
HETATM   27  C2  UNL     1      17.795  15.988  47.631  1.00  0.00     0.068 A 
HETATM   28  C16 UNL     1      16.657  15.492  48.223  1.00  0.00     0.037 A 
HETATM   29  C15 UNL     1      15.986  16.225  49.196  1.00  0.00     0.018 A 
BRANCH  27  30
HETATM   30  O1  UNL     1      18.493  15.289  46.659  1.00  0.00    -0.356 OA
HETATM   31  C1  UNL     1      19.018  14.010  46.956  1.00  0.00     0.210 C 
ENDBRANCH  27  30
ENDBRANCH  22  24
BRANCH  22  32
HETATM   32  N9  UNL     1      14.697  19.110  50.322  1.00  0.00    -0.281 N 
ATOM     33  H9  UNL     1      14.456  19.239  49.340  1.00  0.00     0.188 HD
BRANCH  32  34
HETATM   34  N10 UNL     1      13.927  19.778  51.264  1.00  0.00    -0.272 N 
HETATM   35  C14 UNL     1      14.156  21.138  51.586  1.00  0.00     0.200 C 
HETATM   36  N11 UNL     1      14.637  21.960  50.690  1.00  0.00    -0.372 N 
HETATM   37  N12 UNL     1      13.858  21.597  52.892  1.00  0.00    -0.062 NA
ATOM     38 2H11 UNL     1      14.851  21.629  49.749  1.00  0.00     0.158 HD
ATOM     39 1H11 UNL     1      14.801  22.939  50.921  1.00  0.00     0.158 HD
ATOM     40  H10 UNL     1      13.176  19.276  51.737  1.00  0.00     0.189 HD
ENDBRANCH  32  34
ENDBRANCH  22  32
ENDBRANCH  19  21
ENDBRANCH  12  18
ENDBRANCH   1   9
BRANCH   5  41
HETATM   41  O3  UNL     1      19.651  22.538  59.754  1.00  0.00    -0.260 OA
ATOM     42  H3  UNL     1      19.951  22.000  60.478  1.00  0.00     0.247 HD
ENDBRANCH   5  41
TORSDOF 9
ENDMDL
MODEL 5
REMARK VINA RESULT: -7.075136737      2.823      7.629
REMARK  9 active torsions:
REMARK  status: ('A' for Active; 'I' for Inactive)
REMARK    1  A    between atoms: O1_2  and  C2_3 
REMARK    2  A    between atoms: C5_6  and  C6_7 
REMARK    3  A    between atoms: C6_7  and  N9_32 
REMARK    4  A    between atoms: N1_8  and  N2_10 
REMARK    5  A    between atoms: C7_12  and  C8_13 
REMARK    6  A    between atoms: N3_15  and  N4_16 
REMARK    7  A    between atoms: C10_19  and  C11_20 
REMARK    8  A    between atoms: N6_24  and  O3_25 
REMARK    9  A    between atoms: N9_32  and  N10_34 
REMARK       I    between atoms: N10_34  and  C14_36 
ROOT
HETATM    1  C11 UNL     1      18.380  21.298  56.653  1.00  0.00     0.144 A 
HETATM    2  N5  UNL     1      17.298  21.742  57.317  1.00  0.00    -0.233 N 
ATOM      3  H5  UNL     1      16.337  21.730  56.976  1.00  0.00     0.197 HD
HETATM    4  O2  UNL     1      17.694  22.184  58.461  1.00  0.00    -0.127 OA
HETATM    5  N6  UNL     1      18.976  22.068  58.613  1.00  0.00    -0.089 N 
HETATM    6  C12 UNL     1      19.456  21.508  57.488  1.00  0.00     0.202 A 
HETATM    7  C13 UNL     1      20.843  21.208  57.255  1.00  0.00     0.125 C 
HETATM    8  N7  UNL     1      21.958  20.947  57.070  1.00  0.00    -0.190 NA
ENDROOT
BRANCH   1   9
HETATM    9  C10 UNL     1      18.434  20.708  55.320  1.00  0.00     0.159 A 
HETATM   10  N3  UNL     1      18.709  21.346  54.165  1.00  0.00    -0.253 N 
HETATM   11  C9  UNL     1      18.661  20.442  53.152  1.00  0.00     0.148 A 
HETATM   12  C8  UNL     1      18.352  19.209  53.671  1.00  0.00     0.068 A 
HETATM   13  N8  UNL     1      18.222  19.423  55.015  1.00  0.00    -0.337 N 
ATOM     14  H8  UNL     1      17.993  18.699  55.696  1.00  0.00     0.167 HD
BRANCH  10  15
HETATM   15  N4  UNL     1      18.982  22.715  54.112  1.00  0.00    -0.337 N 
ATOM     16  H42 UNL     1      19.831  23.119  54.509  1.00  0.00     0.177 HD
ATOM     17  H41 UNL     1      18.424  23.467  53.708  1.00  0.00     0.177 HD
ENDBRANCH  10  15
BRANCH  12  18
HETATM   18  C7  UNL     1      18.182  17.933  52.987  1.00  0.00     0.138 C 
HETATM   19  N2  UNL     1      17.209  17.609  52.273  1.00  0.00    -0.308 N 
ATOM     20  H2  UNL     1      17.279  16.670  51.880  1.00  0.00     0.186 HD
BRANCH  19  21
HETATM   21  N1  UNL     1      16.090  18.263  51.925  1.00  0.00    -0.284 N 
HETATM   22  C6  UNL     1      15.886  18.917  50.803  1.00  0.00     0.145 C 
ATOM     23  H1  UNL     1      15.322  18.251  52.597  1.00  0.00     0.188 HD
BRANCH  22  24
HETATM   24  C5  UNL     1      16.911  19.005  49.770  1.00  0.00     0.011 A 
HETATM   25  C4  UNL     1      17.663  20.171  49.688  1.00  0.00     0.018 A 
HETATM   26  C3  UNL     1      18.648  20.257  48.727  1.00  0.00     0.037 A 
HETATM   27  C2  UNL     1      18.929  19.246  47.840  1.00  0.00     0.068 A 
HETATM   28  C16 UNL     1      18.178  18.097  47.928  1.00  0.00     0.037 A 
HETATM   29  C15 UNL     1      17.177  17.974  48.885  1.00  0.00     0.018 A 
BRANCH  27  30
HETATM   30  O1  UNL     1      19.936  19.407  46.902  1.00  0.00    -0.356 OA
HETATM   31  C1  UNL     1      20.137  20.670  46.299  1.00  0.00     0.210 C 
ENDBRANCH  27  30
ENDBRANCH  22  24
BRANCH  22  32
HETATM   32  N9  UNL     1      14.627  19.542  50.654  1.00  0.00    -0.281 N 
ATOM     33  H9  UNL     1      14.606  20.460  50.209  1.00  0.00     0.188 HD
BRANCH  32  34
HETATM   34  N10 UNL     1      13.417  19.003  51.068  1.00  0.00    -0.272 N 
HETATM   35  C14 UNL     1      12.806  17.927  50.380  1.00  0.00     0.200 C 
HETATM   36  N11 UNL     1      13.535  17.042  49.752  1.00  0.00    -0.372 N 
HETATM   37  N12 UNL     1      11.393  17.821  50.381  1.00  0.00    -0.062 NA
ATOM     38 2H11 UNL     1      14.551  17.118  49.751  1.00  0.00     0.158 HD
ATOM     39 1H11 UNL     1      13.095  16.267  49.257  1.00  0.00     0.158 HD
ATOM     40  H10 UNL     1      12.955  19.393  51.891  1.00  0.00     0.189 HD
ENDBRANCH  32  34
ENDBRANCH  22  32
ENDBRANCH  19  21
ENDBRANCH  12  18
ENDBRANCH   1   9
BRANCH   5  41
HETATM   41  O3  UNL     1      19.726  22.439  59.707  1.00  0.00    -0.260 OA
ATOM     42  H3  UNL     1      19.802  21.983  60.537  1.00  0.00     0.247 HD
ENDBRANCH   5  41
TORSDOF 9
ENDMDL
