MODEL 1
REMARK VINA RESULT: -3.083894029      0.000      0.000
REMARK  5 active torsions:
REMARK  status: ('A' for Active; 'I' for Inactive)
REMARK       I    between atoms: C1_2  and  N1_3 
REMARK    1  A    between atoms: C1_2  and  C22_30 
REMARK    2  A    between atoms: N1_3  and  C2_5 
REMARK    3  A    between atoms: C4_7  and  C5_8 
REMARK    4  A    between atoms: C9_12  and  N2_13 
REMARK    5  A    between atoms: C12_18  and  C13_19 
ROOT
HETATM    1  C2  UNL     1      64.048   2.104  -6.119  1.00  0.00     0.036 A 
HETATM    2  C3  UNL     1      63.164   2.036  -7.209  1.00  0.00     0.042 A 
HETATM    3  C4  UNL     1      61.990   2.735  -7.282  1.00  0.00    -0.023 A 
HETATM    4  C11 UNL     1      61.682   3.545  -6.210  1.00  0.00     0.026 A 
HETATM    5  C12 UNL     1      62.508   3.651  -5.117  1.00  0.00    -0.006 A 
HETATM    6  C21 UNL     1      63.703   2.925  -5.069  1.00  0.00     0.043 A 
ENDROOT
BRANCH   1   7
HETATM    7  N1  UNL     1      65.237   1.339  -6.112  1.00  0.00    -0.322 N 
HETATM    8  C1  UNL     1      65.417   0.002  -6.501  1.00  0.00     0.272 C 
HETATM    9  O1  UNL     1      64.519  -0.732  -6.924  1.00  0.00    -0.266 OA
ATOM     10  H1  UNL     1      66.072   1.821  -5.781  1.00  0.00     0.169 HD
BRANCH   8  11
HETATM   11  C22 UNL     1      66.782  -0.576  -6.402  1.00  0.00     0.100 A 
HETATM   12  C23 UNL     1      67.269  -1.645  -7.121  1.00  0.00     0.036 A 
HETATM   13  C24 UNL     1      68.569  -1.881  -6.750  1.00  0.00     0.019 A 
HETATM   14  C25 UNL     1      68.872  -0.937  -5.791  1.00  0.00     0.088 A 
HETATM   15  N4  UNL     1      67.778  -0.173  -5.607  1.00  0.00    -0.361 N 
ATOM     16  H4  UNL     1      67.718   0.605  -4.951  1.00  0.00     0.165 HD
ENDBRANCH   8  11
ENDBRANCH   1   7
BRANCH   3  17
HETATM   17  C5  UNL     1      61.153   2.585  -8.463  1.00  0.00    -0.024 A 
HETATM   18  C6  UNL     1      60.998   1.350  -9.058  1.00  0.00     0.012 A 
HETATM   19  C7  UNL     1      60.206   1.197 -10.177  1.00  0.00     0.003 A 
HETATM   20  C8  UNL     1      59.559   2.278 -10.717  1.00  0.00     0.036 A 
HETATM   21  C9  UNL     1      59.684   3.525 -10.158  1.00  0.00     0.103 A 
HETATM   22  C10 UNL     1      60.489   3.653  -9.030  1.00  0.00     0.048 A 
BRANCH  21  23
HETATM   23  N2  UNL     1      59.022   4.670 -10.699  1.00  0.00    -0.116 N 
HETATM   24  O2  UNL     1      57.783   4.661 -10.789  1.00  0.00    -0.532 OA
HETATM   25  O3  UNL     1      59.698   5.784 -11.124  1.00  0.00    -0.532 OA
ENDBRANCH  21  23
ENDBRANCH   3  17
BRANCH   5  26
HETATM   26  C13 UNL     1      62.134   4.526  -4.004  1.00  0.00     0.043 A 
HETATM   27  C14 UNL     1      61.820   5.874  -4.106  1.00  0.00     0.044 A 
HETATM   28  C15 UNL     1      61.517   6.372  -2.853  1.00  0.00    -0.007 A 
HETATM   29  C16 UNL     1      61.146   7.610  -2.370  1.00  0.00     0.014 A 
HETATM   30  C20 UNL     1      61.651   5.305  -1.989  1.00  0.00     0.043 A 
HETATM   31  C17 UNL     1      60.897   7.833  -1.032  1.00  0.00     0.001 A 
HETATM   32  C18 UNL     1      61.029   6.771  -0.162  1.00  0.00     0.002 A 
HETATM   33  C19 UNL     1      61.401   5.537  -0.653  1.00  0.00     0.030 A 
HETATM   34  N3  UNL     1      62.018   4.225  -2.706  1.00  0.00    -0.355 N 
ATOM     35  H3  UNL     1      62.186   3.300  -2.310  1.00  0.00     0.166 HD
ENDBRANCH   5  26
TORSDOF 5
ENDMDL
MODEL 2
REMARK VINA RESULT: -2.435613026      1.592      7.127
REMARK  5 active torsions:
REMARK  status: ('A' for Active; 'I' for Inactive)
REMARK       I    between atoms: C1_2  and  N1_3 
REMARK    1  A    between atoms: C1_2  and  C22_30 
REMARK    2  A    between atoms: N1_3  and  C2_5 
REMARK    3  A    between atoms: C4_7  and  C5_8 
REMARK    4  A    between atoms: C9_12  and  N2_13 
REMARK    5  A    between atoms: C12_18  and  C13_19 
ROOT
HETATM    1  C2  UNL     1      62.626   3.706  -5.451  1.00  0.00     0.036 A 
HETATM    2  C3  UNL     1      61.819   3.536  -6.589  1.00  0.00     0.042 A 
HETATM    3  C4  UNL     1      62.020   2.562  -7.527  1.00  0.00    -0.023 A 
HETATM    4  C11 UNL     1      63.084   1.710  -7.319  1.00  0.00     0.026 A 
HETATM    5  C12 UNL     1      63.907   1.828  -6.226  1.00  0.00    -0.006 A 
HETATM    6  C21 UNL     1      63.678   2.834  -5.282  1.00  0.00     0.043 A 
ENDROOT
BRANCH   1   7
HETATM    7  N1  UNL     1      62.362   4.747  -4.533  1.00  0.00    -0.322 N 
HETATM    8  C1  UNL     1      61.455   4.757  -3.461  1.00  0.00     0.272 C 
HETATM    9  O1  UNL     1      60.724   3.811  -3.153  1.00  0.00    -0.266 OA
ATOM     10  H1  UNL     1      62.899   5.604  -4.667  1.00  0.00     0.169 HD
BRANCH   8  11
HETATM   11  C22 UNL     1      61.367   5.987  -2.632  1.00  0.00     0.100 A 
HETATM   12  C23 UNL     1      61.473   7.283  -3.083  1.00  0.00     0.036 A 
HETATM   13  C24 UNL     1      61.339   8.142  -2.021  1.00  0.00     0.019 A 
HETATM   14  C25 UNL     1      61.148   7.348  -0.909  1.00  0.00     0.088 A 
HETATM   15  N4  UNL     1      61.171   6.064  -1.312  1.00  0.00    -0.361 N 
ATOM     16  H4  UNL     1      61.056   5.260  -0.695  1.00  0.00     0.165 HD
ENDBRANCH   8  11
ENDBRANCH   1   7
BRANCH   3  17
HETATM   17  C5  UNL     1      61.117   2.483  -8.666  1.00  0.00    -0.024 A 
HETATM   18  C6  UNL     1      60.877   1.274  -9.285  1.00  0.00     0.012 A 
HETATM   19  C7  UNL     1      60.022   1.189 -10.365  1.00  0.00     0.003 A 
HETATM   20  C8  UNL     1      59.396   2.312 -10.839  1.00  0.00     0.036 A 
HETATM   21  C9  UNL     1      59.605   3.536 -10.254  1.00  0.00     0.103 A 
HETATM   22  C10 UNL     1      60.472   3.595  -9.167  1.00  0.00     0.048 A 
BRANCH  21  23
HETATM   23  N2  UNL     1      58.966   4.724 -10.726  1.00  0.00    -0.116 N 
HETATM   24  O2  UNL     1      57.727   4.758 -10.780  1.00  0.00    -0.532 OA
HETATM   25  O3  UNL     1      59.668   5.832 -11.124  1.00  0.00    -0.532 OA
ENDBRANCH  21  23
ENDBRANCH   3  17
BRANCH   5  26
HETATM   26  C13 UNL     1      65.025   0.897  -6.053  1.00  0.00     0.043 A 
HETATM   27  C14 UNL     1      66.370   1.217  -6.178  1.00  0.00     0.044 A 
HETATM   28  C15 UNL     1      67.134   0.089  -5.946  1.00  0.00    -0.007 A 
HETATM   29  C16 UNL     1      68.489  -0.173  -5.938  1.00  0.00     0.014 A 
HETATM   30  C20 UNL     1      66.233  -0.920  -5.678  1.00  0.00     0.043 A 
HETATM   31  C17 UNL     1      68.992  -1.429  -5.666  1.00  0.00     0.001 A 
HETATM   32  C18 UNL     1      68.097  -2.443  -5.397  1.00  0.00     0.002 A 
HETATM   33  C19 UNL     1      66.745  -2.172  -5.409  1.00  0.00     0.030 A 
HETATM   34  N3  UNL     1      64.990  -0.406  -5.750  1.00  0.00    -0.355 N 
ATOM     35  H3  UNL     1      64.135  -0.939  -5.594  1.00  0.00     0.166 HD
ENDBRANCH   5  26
TORSDOF 5
ENDMDL
MODEL 3
REMARK VINA RESULT: -1.068866043      1.585      1.805
REMARK  5 active torsions:
REMARK  status: ('A' for Active; 'I' for Inactive)
REMARK       I    between atoms: C1_2  and  N1_3 
REMARK    1  A    between atoms: C1_2  and  C22_30 
REMARK    2  A    between atoms: N1_3  and  C2_5 
REMARK    3  A    between atoms: C4_7  and  C5_8 
REMARK    4  A    between atoms: C9_12  and  N2_13 
REMARK    5  A    between atoms: C12_18  and  C13_19 
ROOT
HETATM    1  C2  UNL     1      64.308   1.613  -5.350  1.00  0.00     0.036 A 
HETATM    2  C3  UNL     1      63.309   1.190  -6.244  1.00  0.00     0.042 A 
HETATM    3  C4  UNL     1      62.045   1.712  -6.276  1.00  0.00    -0.023 A 
HETATM    4  C11 UNL     1      61.763   2.710  -5.367  1.00  0.00     0.026 A 
HETATM    5  C12 UNL     1      62.699   3.164  -4.470  1.00  0.00    -0.006 A 
HETATM    6  C21 UNL     1      63.984   2.612  -4.460  1.00  0.00     0.043 A 
ENDROOT
BRANCH   1   7
HETATM    7  N1  UNL     1      65.588   1.014  -5.370  1.00  0.00    -0.322 N 
HETATM    8  C1  UNL     1      65.912  -0.350  -5.443  1.00  0.00     0.272 C 
HETATM    9  O1  UNL     1      65.085  -1.265  -5.502  1.00  0.00    -0.266 OA
ATOM     10  H1  UNL     1      66.379   1.656  -5.325  1.00  0.00     0.169 HD
BRANCH   8  11
HETATM   11  C22 UNL     1      67.349  -0.727  -5.453  1.00  0.00     0.100 A 
HETATM   12  C23 UNL     1      67.974  -1.581  -4.572  1.00  0.00     0.036 A 
HETATM   13  C24 UNL     1      69.302  -1.676  -4.905  1.00  0.00     0.019 A 
HETATM   14  C25 UNL     1      69.481  -0.865  -6.006  1.00  0.00     0.088 A 
HETATM   15  N4  UNL     1      68.291  -0.312  -6.306  1.00  0.00    -0.361 N 
ATOM     16  H4  UNL     1      68.129   0.334  -7.078  1.00  0.00     0.165 HD
ENDBRANCH   8  11
ENDBRANCH   1   7
BRANCH   3  17
HETATM   17  C5  UNL     1      61.093   1.194  -7.247  1.00  0.00    -0.024 A 
HETATM   18  C6  UNL     1      60.209   0.196  -6.895  1.00  0.00     0.012 A 
HETATM   19  C7  UNL     1      59.302  -0.302  -7.808  1.00  0.00     0.003 A 
HETATM   20  C8  UNL     1      59.268   0.193  -9.085  1.00  0.00     0.036 A 
HETATM   21  C9  UNL     1      60.129   1.187  -9.479  1.00  0.00     0.103 A 
HETATM   22  C10 UNL     1      61.034   1.671  -8.540  1.00  0.00     0.048 A 
BRANCH  21  23
HETATM   23  N2  UNL     1      60.116   1.722 -10.804  1.00  0.00    -0.116 N 
HETATM   24  O2  UNL     1      59.591   2.830 -11.000  1.00  0.00    -0.532 OA
HETATM   25  O3  UNL     1      60.662   1.061 -11.874  1.00  0.00    -0.532 OA
ENDBRANCH  21  23
ENDBRANCH   3  17
BRANCH   5  26
HETATM   26  C13 UNL     1      62.347   4.226  -3.526  1.00  0.00     0.043 A 
HETATM   27  C14 UNL     1      61.951   5.513  -3.867  1.00  0.00     0.044 A 
HETATM   28  C15 UNL     1      61.700   6.236  -2.717  1.00  0.00    -0.007 A 
HETATM   29  C16 UNL     1      61.291   7.529  -2.461  1.00  0.00     0.014 A 
HETATM   30  C20 UNL     1      61.950   5.371  -1.673  1.00  0.00     0.043 A 
HETATM   31  C17 UNL     1      61.115   8.003  -1.177  1.00  0.00     0.001 A 
HETATM   32  C18 UNL     1      61.362   7.144  -0.128  1.00  0.00     0.002 A 
HETATM   33  C19 UNL     1      61.772   5.854  -0.393  1.00  0.00     0.030 A 
HETATM   34  N3  UNL     1      62.331   4.186  -2.189  1.00  0.00    -0.355 N 
ATOM     35  H3  UNL     1      62.576   3.367  -1.633  1.00  0.00     0.166 HD
ENDBRANCH   5  26
TORSDOF 5
ENDMDL
MODEL 4
REMARK VINA RESULT: -0.225041543      2.101      2.537
REMARK  5 active torsions:
REMARK  status: ('A' for Active; 'I' for Inactive)
REMARK       I    between atoms: C1_2  and  N1_3 
REMARK    1  A    between atoms: C1_2  and  C22_30 
REMARK    2  A    between atoms: N1_3  and  C2_5 
REMARK    3  A    between atoms: C4_7  and  C5_8 
REMARK    4  A    between atoms: C9_12  and  N2_13 
REMARK    5  A    between atoms: C12_18  and  C13_19 
ROOT
HETATM    1  C2  UNL     1      64.213   1.659  -6.001  1.00  0.00     0.036 A 
HETATM    2  C3  UNL     1      63.244   1.347  -6.971  1.00  0.00     0.042 A 
HETATM    3  C4  UNL     1      62.021   1.955  -7.048  1.00  0.00    -0.023 A 
HETATM    4  C11 UNL     1      61.750   2.925  -6.106  1.00  0.00     0.026 A 
HETATM    5  C12 UNL     1      62.658   3.271  -5.135  1.00  0.00    -0.006 A 
HETATM    6  C21 UNL     1      63.902   2.633  -5.080  1.00  0.00     0.043 A 
ENDROOT
BRANCH   1   7
HETATM    7  N1  UNL     1      65.450   0.975  -5.979  1.00  0.00    -0.322 N 
HETATM    8  C1  UNL     1      65.742  -0.318  -6.443  1.00  0.00     0.272 C 
HETATM    9  O1  UNL     1      64.919  -1.079  -6.960  1.00  0.00    -0.266 OA
ATOM     10  H1  UNL     1      66.233   1.487  -5.573  1.00  0.00     0.169 HD
BRANCH   8  11
HETATM   11  C22 UNL     1      67.137  -0.810  -6.307  1.00  0.00     0.100 A 
HETATM   12  C23 UNL     1      67.738  -1.779  -7.079  1.00  0.00     0.036 A 
HETATM   13  C24 UNL     1      69.029  -1.959  -6.650  1.00  0.00     0.019 A 
HETATM   14  C25 UNL     1      69.210  -1.082  -5.600  1.00  0.00     0.088 A 
HETATM   15  N4  UNL     1      68.056  -0.411  -5.422  1.00  0.00    -0.361 N 
ATOM     16  H4  UNL     1      67.904   0.303  -4.710  1.00  0.00     0.165 HD
ENDBRANCH   8  11
ENDBRANCH   1   7
BRANCH   3  17
HETATM   17  C5  UNL     1      61.098   1.550  -8.097  1.00  0.00    -0.024 A 
HETATM   18  C6  UNL     1      61.141   2.152  -9.337  1.00  0.00     0.012 A 
HETATM   19  C7  UNL     1      60.271   1.774 -10.338  1.00  0.00     0.003 A 
HETATM   20  C8  UNL     1      59.346   0.788 -10.113  1.00  0.00     0.036 A 
HETATM   21  C9  UNL     1      59.267   0.162  -8.894  1.00  0.00     0.103 A 
HETATM   22  C10 UNL     1      60.155   0.561  -7.901  1.00  0.00     0.048 A 
BRANCH  21  23
HETATM   23  N2  UNL     1      58.313  -0.869  -8.630  1.00  0.00    -0.116 N 
HETATM   24  O2  UNL     1      57.110  -0.640  -8.832  1.00  0.00    -0.532 OA
HETATM   25  O3  UNL     1      58.672  -2.106  -8.161  1.00  0.00    -0.532 OA
ENDBRANCH  21  23
ENDBRANCH   3  17
BRANCH   5  26
HETATM   26  C13 UNL     1      62.319   4.309  -4.159  1.00  0.00     0.043 A 
HETATM   27  C14 UNL     1      62.204   4.122  -2.788  1.00  0.00     0.044 A 
HETATM   28  C15 UNL     1      61.873   5.321  -2.187  1.00  0.00    -0.007 A 
HETATM   29  C16 UNL     1      61.637   5.715  -0.885  1.00  0.00     0.014 A 
HETATM   30  C20 UNL     1      61.788   6.239  -3.213  1.00  0.00     0.043 A 
HETATM   31  C17 UNL     1      61.315   7.016  -0.559  1.00  0.00     0.001 A 
HETATM   32  C18 UNL     1      61.229   7.939  -1.579  1.00  0.00     0.002 A 
HETATM   33  C19 UNL     1      61.464   7.536  -2.877  1.00  0.00     0.030 A 
HETATM   34  N3  UNL     1      62.059   5.604  -4.370  1.00  0.00    -0.355 N 
ATOM     35  H3  UNL     1      62.065   6.052  -5.286  1.00  0.00     0.166 HD
ENDBRANCH   5  26
TORSDOF 5
ENDMDL
MODEL 5
REMARK VINA RESULT: 0.457430703      2.514      7.568
REMARK  5 active torsions:
REMARK  status: ('A' for Active; 'I' for Inactive)
REMARK       I    between atoms: C1_2  and  N1_3 
REMARK    1  A    between atoms: C1_2  and  C22_30 
REMARK    2  A    between atoms: N1_3  and  C2_5 
REMARK    3  A    between atoms: C4_7  and  C5_8 
REMARK    4  A    between atoms: C9_12  and  N2_13 
REMARK    5  A    between atoms: C12_18  and  C13_19 
ROOT
HETATM    1  C2  UNL     1      62.769   3.194  -5.463  1.00  0.00     0.036 A 
HETATM    2  C3  UNL     1      61.867   2.790  -6.463  1.00  0.00     0.042 A 
HETATM    3  C4  UNL     1      62.060   1.700  -7.266  1.00  0.00    -0.023 A 
HETATM    4  C11 UNL     1      63.215   0.974  -7.062  1.00  0.00     0.026 A 
HETATM    5  C12 UNL     1      64.132   1.321  -6.099  1.00  0.00    -0.006 A 
HETATM    6  C21 UNL     1      63.909   2.441  -5.291  1.00  0.00     0.043 A 
ENDROOT
BRANCH   1   7
HETATM    7  N1  UNL     1      62.505   4.342  -4.681  1.00  0.00    -0.322 N 
HETATM    8  C1  UNL     1      61.578   4.494  -3.638  1.00  0.00     0.272 C 
HETATM    9  O1  UNL     1      60.823   3.603  -3.237  1.00  0.00    -0.266 OA
ATOM     10  H1  UNL     1      63.061   5.167  -4.904  1.00  0.00     0.169 HD
BRANCH   8  11
HETATM   11  C22 UNL     1      61.495   5.815  -2.964  1.00  0.00     0.100 A 
HETATM   12  C23 UNL     1      61.680   7.045  -3.555  1.00  0.00     0.036 A 
HETATM   13  C24 UNL     1      61.524   8.027  -2.609  1.00  0.00     0.019 A 
HETATM   14  C25 UNL     1      61.240   7.377  -1.426  1.00  0.00     0.088 A 
HETATM   15  N4  UNL     1      61.232   6.054  -1.676  1.00  0.00    -0.361 N 
ATOM     16  H4  UNL     1      61.049   5.333  -0.978  1.00  0.00     0.165 HD
ENDBRANCH   8  11
ENDBRANCH   1   7
BRANCH   3  17
HETATM   17  C5  UNL     1      61.056   1.378  -8.269  1.00  0.00    -0.024 A 
HETATM   18  C6  UNL     1      61.056   2.021  -9.489  1.00  0.00     0.012 A 
HETATM   19  C7  UNL     1      60.109   1.722 -10.447  1.00  0.00     0.003 A 
HETATM   20  C8  UNL     1      59.150   0.776 -10.197  1.00  0.00     0.036 A 
HETATM   21  C9  UNL     1      59.111   0.112  -8.997  1.00  0.00     0.103 A 
HETATM   22  C10 UNL     1      60.077   0.431  -8.047  1.00  0.00     0.048 A 
BRANCH  21  23
HETATM   23  N2  UNL     1      58.123  -0.879  -8.707  1.00  0.00    -0.116 N 
HETATM   24  O2  UNL     1      56.924  -0.591  -8.850  1.00  0.00    -0.532 OA
HETATM   25  O3  UNL     1      58.444  -2.140  -8.277  1.00  0.00    -0.532 OA
ENDBRANCH  21  23
ENDBRANCH   3  17
BRANCH   5  26
HETATM   26  C13 UNL     1      65.342   0.516  -5.924  1.00  0.00     0.043 A 
HETATM   27  C14 UNL     1      65.377  -0.813  -5.523  1.00  0.00     0.044 A 
HETATM   28  C15 UNL     1      66.690  -1.241  -5.467  1.00  0.00    -0.007 A 
HETATM   29  C16 UNL     1      67.303  -2.433  -5.140  1.00  0.00     0.014 A 
HETATM   30  C20 UNL     1      67.451  -0.152  -5.840  1.00  0.00     0.043 A 
HETATM   31  C17 UNL     1      68.673  -2.588  -5.171  1.00  0.00     0.001 A 
HETATM   32  C18 UNL     1      69.441  -1.504  -5.542  1.00  0.00     0.002 A 
HETATM   33  C19 UNL     1      68.820  -0.316  -5.867  1.00  0.00     0.030 A 
HETATM   34  N3  UNL     1      66.619   0.873  -6.103  1.00  0.00    -0.355 N 
ATOM     35  H3  UNL     1      66.922   1.800  -6.402  1.00  0.00     0.166 HD
ENDBRANCH   5  26
TORSDOF 5
ENDMDL
