MODEL 1
REMARK VINA RESULT: -4.263734889      0.000      0.000
REMARK  7 active torsions:
REMARK  status: ('A' for Active; 'I' for Inactive)
REMARK    1  A    between atoms: N1_1  and  C1_4 
REMARK    2  A    between atoms: C5_10  and  C6_11 
REMARK    3  A    between atoms: C6_11  and  O1_12 
REMARK    4  A    between atoms: C6_11  and  C7_14 
REMARK    5  A    between atoms: C8_15  and  C9_16 
REMARK    6  A    between atoms: C16_23  and  C17_24 
REMARK    7  A    between atoms: N3_30  and  C23_31 
ROOT
HETATM    1  C7  UNL     1      64.032   1.191  -6.187  1.00  0.00     0.062 A 
HETATM    2  C8  UNL     1      65.237   1.818  -6.338  1.00  0.00     0.002 A 
HETATM    3  C15 UNL     1      65.026   3.122  -5.984  1.00  0.00     0.045 A 
HETATM    4  C16 UNL     1      63.679   3.323  -5.606  1.00  0.00     0.051 A 
HETATM    5  N3  UNL     1      63.125   2.126  -5.747  1.00  0.00    -0.311 N 
ENDROOT
BRANCH   1   6
HETATM    6  C6  UNL     1      63.720  -0.241  -6.452  1.00  0.00     0.206 C 
BRANCH   6   7
HETATM    7  C5  UNL     1      64.816  -1.134  -6.052  1.00  0.00     0.020 A 
HETATM    8  C1  UNL     1      65.010  -1.459  -4.738  1.00  0.00     0.107 A 
HETATM    9  N2  UNL     1      66.049  -2.263  -4.406  1.00  0.00    -0.352 N 
HETATM   10  C2  UNL     1      66.883  -2.740  -5.329  1.00  0.00     0.089 A 
ATOM     11  H2  UNL     1      66.197  -2.507  -3.427  1.00  0.00     0.166 HD
HETATM   12  C3  UNL     1      66.756  -2.459  -6.675  1.00  0.00     0.018 A 
HETATM   13  C4  UNL     1      65.699  -1.643  -7.008  1.00  0.00     0.015 A 
BRANCH   8  14
HETATM   14  N1  UNL     1      64.266  -1.065  -3.797  1.00  0.00    -0.385 N 
ATOM     15  H12 UNL     1      64.612  -0.765  -2.885  1.00  0.00     0.157 HD
ATOM     16  H11 UNL     1      63.262  -1.042  -3.978  1.00  0.00     0.157 HD
ENDBRANCH   8  14
ENDBRANCH   6   7
BRANCH   6  17
HETATM   17  O1  UNL     1      63.325  -0.475  -7.746  1.00  0.00    -0.385 OA
ATOM     18  H1  UNL     1      62.382  -0.405  -7.842  1.00  0.00     0.211 HD
ENDBRANCH   6  17
ENDBRANCH   1   6
BRANCH   2  19
HETATM   19  C9  UNL     1      66.518   1.271  -6.762  1.00  0.00    -0.024 A 
HETATM   20  C10 UNL     1      67.482   0.963  -5.791  1.00  0.00     0.012 A 
HETATM   21  C11 UNL     1      68.711   0.426  -6.091  1.00  0.00     0.001 A 
HETATM   22  C12 UNL     1      68.991   0.185  -7.419  1.00  0.00     0.000 A 
HETATM   23  C13 UNL     1      68.055   0.483  -8.380  1.00  0.00     0.001 A 
HETATM   24  C14 UNL     1      66.815   1.024  -8.081  1.00  0.00     0.012 A 
ENDBRANCH   2  19
BRANCH   5  25
HETATM   25  C23 UNL     1      61.755   1.795  -5.457  1.00  0.00     0.040 A 
HETATM   26  C24 UNL     1      60.741   1.987  -6.406  1.00  0.00     0.030 A 
HETATM   27  C25 UNL     1      59.417   1.709  -6.153  1.00  0.00     0.002 A 
HETATM   28  C26 UNL     1      59.050   1.224  -4.934  1.00  0.00     0.000 A 
HETATM   29  C27 UNL     1      60.014   1.020  -3.972  1.00  0.00     0.002 A 
HETATM   30  C28 UNL     1      61.340   1.299  -4.225  1.00  0.00     0.030 A 
ENDBRANCH   5  25
BRANCH   4  31
HETATM   31  C17 UNL     1      63.173   4.607  -5.128  1.00  0.00    -0.009 A 
HETATM   32  C18 UNL     1      63.154   5.680  -6.047  1.00  0.00     0.014 A 
HETATM   33  C19 UNL     1      62.670   6.923  -5.735  1.00  0.00     0.001 A 
HETATM   34  C20 UNL     1      62.175   7.173  -4.481  1.00  0.00     0.000 A 
HETATM   35  C21 UNL     1      62.187   6.143  -3.577  1.00  0.00     0.001 A 
HETATM   36  C22 UNL     1      62.684   4.864  -3.902  1.00  0.00     0.014 A 
ENDBRANCH   4  31
TORSDOF 7
ENDMDL
MODEL 2
REMARK VINA RESULT: -4.087453915      1.802      2.868
REMARK  7 active torsions:
REMARK  status: ('A' for Active; 'I' for Inactive)
REMARK    1  A    between atoms: N1_1  and  C1_4 
REMARK    2  A    between atoms: C5_10  and  C6_11 
REMARK    3  A    between atoms: C6_11  and  O1_12 
REMARK    4  A    between atoms: C6_11  and  C7_14 
REMARK    5  A    between atoms: C8_15  and  C9_16 
REMARK    6  A    between atoms: C16_23  and  C17_24 
REMARK    7  A    between atoms: N3_30  and  C23_31 
ROOT
HETATM    1  C7  UNL     1      63.941   1.508  -5.740  1.00  0.00     0.062 A 
HETATM    2  C8  UNL     1      65.168   2.111  -5.736  1.00  0.00     0.002 A 
HETATM    3  C15 UNL     1      64.957   3.383  -5.279  1.00  0.00     0.045 A 
HETATM    4  C16 UNL     1      63.588   3.587  -4.990  1.00  0.00     0.051 A 
HETATM    5  N3  UNL     1      63.022   2.425  -5.286  1.00  0.00    -0.311 N 
ENDROOT
BRANCH   1   6
HETATM    6  C6  UNL     1      63.621   0.117  -6.162  1.00  0.00     0.206 C 
BRANCH   6   7
HETATM    7  C5  UNL     1      62.478   0.062  -7.083  1.00  0.00     0.020 A 
HETATM    8  C1  UNL     1      62.470   0.801  -8.234  1.00  0.00     0.107 A 
HETATM    9  N2  UNL     1      61.385   0.745  -9.043  1.00  0.00    -0.352 N 
HETATM   10  C2  UNL     1      60.330  -0.011  -8.743  1.00  0.00     0.089 A 
ATOM     11  H2  UNL     1      61.375   1.295  -9.902  1.00  0.00     0.166 HD
HETATM   12  C3  UNL     1      60.260  -0.786  -7.602  1.00  0.00     0.018 A 
HETATM   13  C4  UNL     1      61.364  -0.726  -6.783  1.00  0.00     0.015 A 
BRANCH   8  14
HETATM   14  N1  UNL     1      63.427   1.535  -8.607  1.00  0.00    -0.385 N 
ATOM     15  H12 UNL     1      64.115   1.262  -9.309  1.00  0.00     0.157 HD
ATOM     16  H11 UNL     1      63.496   2.459  -8.179  1.00  0.00     0.157 HD
ENDBRANCH   8  14
ENDBRANCH   6   7
BRANCH   6  17
HETATM   17  O1  UNL     1      63.458  -0.743  -5.104  1.00  0.00    -0.385 OA
ATOM     18  H1  UNL     1      64.262  -0.842  -4.607  1.00  0.00     0.211 HD
ENDBRANCH   6  17
ENDBRANCH   1   6
BRANCH   2  19
HETATM   19  C9  UNL     1      66.467   1.569  -6.109  1.00  0.00    -0.024 A 
HETATM   20  C10 UNL     1      67.025   0.544  -5.330  1.00  0.00     0.012 A 
HETATM   21  C11 UNL     1      68.235  -0.044  -5.613  1.00  0.00     0.001 A 
HETATM   22  C12 UNL     1      68.919   0.411  -6.720  1.00  0.00     0.000 A 
HETATM   23  C13 UNL     1      68.382   1.415  -7.490  1.00  0.00     0.001 A 
HETATM   24  C14 UNL     1      67.162   2.009  -7.209  1.00  0.00     0.012 A 
ENDBRANCH   2  19
BRANCH   5  25
HETATM   25  C23 UNL     1      61.627   2.107  -5.136  1.00  0.00     0.040 A 
HETATM   26  C24 UNL     1      60.660   2.644  -5.998  1.00  0.00     0.030 A 
HETATM   27  C25 UNL     1      59.314   2.386  -5.866  1.00  0.00     0.002 A 
HETATM   28  C26 UNL     1      58.878   1.576  -4.861  1.00  0.00     0.000 A 
HETATM   29  C27 UNL     1      59.793   1.028  -3.992  1.00  0.00     0.002 A 
HETATM   30  C28 UNL     1      61.141   1.286  -4.123  1.00  0.00     0.030 A 
ENDBRANCH   5  25
BRANCH   4  31
HETATM   31  C17 UNL     1      63.074   4.836  -4.435  1.00  0.00    -0.009 A 
HETATM   32  C18 UNL     1      63.085   5.972  -5.273  1.00  0.00     0.014 A 
HETATM   33  C19 UNL     1      62.597   7.192  -4.885  1.00  0.00     0.001 A 
HETATM   34  C20 UNL     1      62.066   7.353  -3.631  1.00  0.00     0.000 A 
HETATM   35  C21 UNL     1      62.047   6.260  -2.805  1.00  0.00     0.001 A 
HETATM   36  C22 UNL     1      62.550   5.005  -3.208  1.00  0.00     0.014 A 
ENDBRANCH   4  31
TORSDOF 7
ENDMDL
MODEL 3
REMARK VINA RESULT: -3.433724133      0.364      1.475
REMARK  7 active torsions:
REMARK  status: ('A' for Active; 'I' for Inactive)
REMARK    1  A    between atoms: N1_1  and  C1_4 
REMARK    2  A    between atoms: C5_10  and  C6_11 
REMARK    3  A    between atoms: C6_11  and  O1_12 
REMARK    4  A    between atoms: C6_11  and  C7_14 
REMARK    5  A    between atoms: C8_15  and  C9_16 
REMARK    6  A    between atoms: C16_23  and  C17_24 
REMARK    7  A    between atoms: N3_30  and  C23_31 
ROOT
HETATM    1  C7  UNL     1      63.925   1.357  -6.048  1.00  0.00     0.062 A 
HETATM    2  C8  UNL     1      65.150   1.960  -6.102  1.00  0.00     0.002 A 
HETATM    3  C15 UNL     1      64.947   3.254  -5.708  1.00  0.00     0.045 A 
HETATM    4  C16 UNL     1      63.584   3.472  -5.400  1.00  0.00     0.051 A 
HETATM    5  N3  UNL     1      63.014   2.295  -5.622  1.00  0.00    -0.311 N 
ENDROOT
BRANCH   1   6
HETATM    6  C6  UNL     1      63.599  -0.055  -6.390  1.00  0.00     0.206 C 
BRANCH   6   7
HETATM    7  C5  UNL     1      64.685  -0.980  -6.035  1.00  0.00     0.020 A 
HETATM    8  C1  UNL     1      64.855  -1.397  -4.744  1.00  0.00     0.107 A 
HETATM    9  N2  UNL     1      65.886  -2.228  -4.452  1.00  0.00    -0.352 N 
HETATM   10  C2  UNL     1      66.732  -2.645  -5.393  1.00  0.00     0.089 A 
ATOM     11  H2  UNL     1      66.016  -2.541  -3.491  1.00  0.00     0.166 HD
HETATM   12  C3  UNL     1      66.628  -2.270  -6.718  1.00  0.00     0.018 A 
HETATM   13  C4  UNL     1      65.580  -1.426  -7.010  1.00  0.00     0.015 A 
BRANCH   8  14
HETATM   14  N1  UNL     1      64.098  -1.066  -3.790  1.00  0.00    -0.385 N 
ATOM     15  H12 UNL     1      64.002  -0.111  -3.444  1.00  0.00     0.157 HD
ATOM     16  H11 UNL     1      63.549  -1.808  -3.355  1.00  0.00     0.157 HD
ENDBRANCH   8  14
ENDBRANCH   6   7
BRANCH   6  17
HETATM   17  O1  UNL     1      63.206  -0.216  -7.695  1.00  0.00    -0.385 OA
ATOM     18  H1  UNL     1      63.327   0.582  -8.197  1.00  0.00     0.211 HD
ENDBRANCH   6  17
ENDBRANCH   1   6
BRANCH   2  19
HETATM   19  C9  UNL     1      66.442   1.401  -6.474  1.00  0.00    -0.024 A 
HETATM   20  C10 UNL     1      66.762   1.268  -7.833  1.00  0.00     0.012 A 
HETATM   21  C11 UNL     1      67.962   0.770  -8.281  1.00  0.00     0.001 A 
HETATM   22  C12 UNL     1      68.884   0.386  -7.331  1.00  0.00     0.000 A 
HETATM   23  C13 UNL     1      68.583   0.511  -5.996  1.00  0.00     0.001 A 
HETATM   24  C14 UNL     1      67.374   1.013  -5.541  1.00  0.00     0.012 A 
ENDBRANCH   2  19
BRANCH   5  25
HETATM   25  C23 UNL     1      61.623   1.985  -5.427  1.00  0.00     0.040 A 
HETATM   26  C24 UNL     1      61.208   1.084  -4.436  1.00  0.00     0.030 A 
HETATM   27  C25 UNL     1      59.889   0.742  -4.242  1.00  0.00     0.002 A 
HETATM   28  C26 UNL     1      58.925   1.289  -5.034  1.00  0.00     0.000 A 
HETATM   29  C27 UNL     1      59.289   2.179  -6.020  1.00  0.00     0.002 A 
HETATM   30  C28 UNL     1      60.609   2.522  -6.215  1.00  0.00     0.030 A 
ENDBRANCH   5  25
BRANCH   4  31
HETATM   31  C17 UNL     1      63.079   4.747  -4.900  1.00  0.00    -0.009 A 
HETATM   32  C18 UNL     1      62.538   4.765  -3.596  1.00  0.00     0.014 A 
HETATM   33  C19 UNL     1      62.066   5.904  -2.998  1.00  0.00     0.001 A 
HETATM   34  C20 UNL     1      62.104   7.100  -3.669  1.00  0.00     0.000 A 
HETATM   35  C21 UNL     1      62.626   7.100  -4.936  1.00  0.00     0.001 A 
HETATM   36  C22 UNL     1      63.112   5.926  -5.548  1.00  0.00     0.014 A 
ENDBRANCH   4  31
TORSDOF 7
ENDMDL
MODEL 4
REMARK VINA RESULT: -3.248146566      2.004      3.107
REMARK  7 active torsions:
REMARK  status: ('A' for Active; 'I' for Inactive)
REMARK    1  A    between atoms: N1_1  and  C1_4 
REMARK    2  A    between atoms: C5_10  and  C6_11 
REMARK    3  A    between atoms: C6_11  and  O1_12 
REMARK    4  A    between atoms: C6_11  and  C7_14 
REMARK    5  A    between atoms: C8_15  and  C9_16 
REMARK    6  A    between atoms: C16_23  and  C17_24 
REMARK    7  A    between atoms: N3_30  and  C23_31 
ROOT
HETATM    1  C7  UNL     1      63.522   1.753  -5.947  1.00  0.00     0.062 A 
HETATM    2  C8  UNL     1      64.788   2.267  -5.986  1.00  0.00     0.002 A 
HETATM    3  C15 UNL     1      64.692   3.536  -5.484  1.00  0.00     0.045 A 
HETATM    4  C16 UNL     1      63.357   3.828  -5.123  1.00  0.00     0.051 A 
HETATM    5  N3  UNL     1      62.694   2.719  -5.423  1.00  0.00    -0.311 N 
ENDROOT
BRANCH   1   6
HETATM    6  C6  UNL     1      63.082   0.402  -6.391  1.00  0.00     0.206 C 
BRANCH   6   7
HETATM    7  C5  UNL     1      62.058   0.467  -7.442  1.00  0.00     0.020 A 
HETATM    8  C1  UNL     1      60.901  -0.254  -7.338  1.00  0.00     0.107 A 
HETATM    9  N2  UNL     1      59.993  -0.190  -8.342  1.00  0.00    -0.352 N 
HETATM   10  C2  UNL     1      60.203   0.559  -9.424  1.00  0.00     0.089 A 
ATOM     11  H2  UNL     1      59.130  -0.727  -8.268  1.00  0.00     0.166 HD
HETATM   12  C3  UNL     1      61.343   1.317  -9.605  1.00  0.00     0.018 A 
HETATM   13  C4  UNL     1      62.263   1.248  -8.582  1.00  0.00     0.015 A 
BRANCH   8  14
HETATM   14  N1  UNL     1      60.610  -0.981  -6.347  1.00  0.00    -0.385 N 
ATOM     15  H12 UNL     1      59.657  -1.243  -6.094  1.00  0.00     0.157 HD
ATOM     16  H11 UNL     1      61.386  -1.326  -5.782  1.00  0.00     0.157 HD
ENDBRANCH   8  14
ENDBRANCH   6   7
BRANCH   6  17
HETATM   17  O1  UNL     1      62.690  -0.405  -5.353  1.00  0.00    -0.385 OA
ATOM     18  H1  UNL     1      62.840   0.011  -4.511  1.00  0.00     0.211 HD
ENDBRANCH   6  17
ENDBRANCH   1   6
BRANCH   2  19
HETATM   19  C9  UNL     1      66.026   1.645  -6.435  1.00  0.00    -0.024 A 
HETATM   20  C10 UNL     1      66.894   1.091  -5.484  1.00  0.00     0.012 A 
HETATM   21  C11 UNL     1      68.074   0.467  -5.812  1.00  0.00     0.001 A 
HETATM   22  C12 UNL     1      68.402   0.392  -7.149  1.00  0.00     0.000 A 
HETATM   23  C13 UNL     1      67.559   0.932  -8.091  1.00  0.00     0.001 A 
HETATM   24  C14 UNL     1      66.369   1.561  -7.763  1.00  0.00     0.012 A 
ENDBRANCH   2  19
BRANCH   5  25
HETATM   25  C23 UNL     1      61.288   2.498  -5.216  1.00  0.00     0.040 A 
HETATM   26  C24 UNL     1      60.325   3.090  -6.045  1.00  0.00     0.030 A 
HETATM   27  C25 UNL     1      58.972   2.925  -5.857  1.00  0.00     0.002 A 
HETATM   28  C26 UNL     1      58.523   2.155  -4.826  1.00  0.00     0.000 A 
HETATM   29  C27 UNL     1      59.434   1.554  -3.987  1.00  0.00     0.002 A 
HETATM   30  C28 UNL     1      60.789   1.720  -4.175  1.00  0.00     0.030 A 
ENDBRANCH   5  25
BRANCH   4  31
HETATM   31  C17 UNL     1      62.961   5.093  -4.509  1.00  0.00    -0.009 A 
HETATM   32  C18 UNL     1      62.364   5.035  -3.231  1.00  0.00     0.014 A 
HETATM   33  C19 UNL     1      61.982   6.150  -2.533  1.00  0.00     0.001 A 
HETATM   34  C20 UNL     1      62.173   7.398  -3.072  1.00  0.00     0.000 A 
HETATM   35  C21 UNL     1      62.751   7.471  -4.313  1.00  0.00     0.001 A 
HETATM   36  C22 UNL     1      63.143   6.320  -5.027  1.00  0.00     0.014 A 
ENDBRANCH   4  31
TORSDOF 7
ENDMDL
MODEL 5
REMARK VINA RESULT: -2.807572020      0.845      1.206
REMARK  7 active torsions:
REMARK  status: ('A' for Active; 'I' for Inactive)
REMARK    1  A    between atoms: N1_1  and  C1_4 
REMARK    2  A    between atoms: C5_10  and  C6_11 
REMARK    3  A    between atoms: C6_11  and  O1_12 
REMARK    4  A    between atoms: C6_11  and  C7_14 
REMARK    5  A    between atoms: C8_15  and  C9_16 
REMARK    6  A    between atoms: C16_23  and  C17_24 
REMARK    7  A    between atoms: N3_30  and  C23_31 
ROOT
HETATM    1  C7  UNL     1      64.267   1.046  -6.090  1.00  0.00     0.062 A 
HETATM    2  C8  UNL     1      65.456   1.695  -6.273  1.00  0.00     0.002 A 
HETATM    3  C15 UNL     1      65.205   3.015  -6.015  1.00  0.00     0.045 A 
HETATM    4  C16 UNL     1      63.848   3.204  -5.666  1.00  0.00     0.051 A 
HETATM    5  N3  UNL     1      63.330   1.984  -5.727  1.00  0.00    -0.311 N 
ENDROOT
BRANCH   1   6
HETATM    6  C6  UNL     1      63.998  -0.409  -6.256  1.00  0.00     0.206 C 
BRANCH   6   7
HETATM    7  C5  UNL     1      65.123  -1.239  -5.802  1.00  0.00     0.020 A 
HETATM    8  C1  UNL     1      65.946  -1.856  -6.703  1.00  0.00     0.107 A 
HETATM    9  N2  UNL     1      66.954  -2.636  -6.244  1.00  0.00    -0.352 N 
HETATM   10  C2  UNL     1      67.160  -2.814  -4.940  1.00  0.00     0.089 A 
ATOM     11  H2  UNL     1      67.570  -3.098  -6.913  1.00  0.00     0.166 HD
HETATM   12  C3  UNL     1      66.375  -2.226  -3.968  1.00  0.00     0.018 A 
HETATM   13  C4  UNL     1      65.351  -1.435  -4.438  1.00  0.00     0.015 A 
BRANCH   8  14
HETATM   14  N1  UNL     1      65.836  -1.737  -7.955  1.00  0.00    -0.385 N 
ATOM     15  H12 UNL     1      66.353  -2.303  -8.628  1.00  0.00     0.157 HD
ATOM     16  H11 UNL     1      65.180  -1.035  -8.298  1.00  0.00     0.157 HD
ENDBRANCH   8  14
ENDBRANCH   6   7
BRANCH   6  17
HETATM   17  O1  UNL     1      63.606  -0.742  -7.528  1.00  0.00    -0.385 OA
ATOM     18  H1  UNL     1      63.736  -0.021  -8.135  1.00  0.00     0.211 HD
ENDBRANCH   6  17
ENDBRANCH   1   6
BRANCH   2  19
HETATM   19  C9  UNL     1      66.757   1.156  -6.645  1.00  0.00    -0.024 A 
HETATM   20  C10 UNL     1      67.655   0.788  -5.633  1.00  0.00     0.012 A 
HETATM   21  C11 UNL     1      68.897   0.252  -5.883  1.00  0.00     0.001 A 
HETATM   22  C12 UNL     1      69.258   0.077  -7.202  1.00  0.00     0.000 A 
HETATM   23  C13 UNL     1      68.386   0.435  -8.203  1.00  0.00     0.001 A 
HETATM   24  C14 UNL     1      67.134   0.974  -7.953  1.00  0.00     0.012 A 
ENDBRANCH   2  19
BRANCH   5  25
HETATM   25  C23 UNL     1      61.966   1.635  -5.428  1.00  0.00     0.040 A 
HETATM   26  C24 UNL     1      60.968   1.683  -6.412  1.00  0.00     0.030 A 
HETATM   27  C25 UNL     1      59.649   1.385  -6.154  1.00  0.00     0.002 A 
HETATM   28  C26 UNL     1      59.272   1.025  -4.895  1.00  0.00     0.000 A 
HETATM   29  C27 UNL     1      60.220   0.965  -3.899  1.00  0.00     0.002 A 
HETATM   30  C28 UNL     1      61.541   1.263  -4.156  1.00  0.00     0.030 A 
ENDBRANCH   5  25
BRANCH   4  31
HETATM   31  C17 UNL     1      63.302   4.503  -5.286  1.00  0.00    -0.009 A 
HETATM   32  C18 UNL     1      63.278   5.512  -6.274  1.00  0.00     0.014 A 
HETATM   33  C19 UNL     1      62.759   6.760  -6.056  1.00  0.00     0.001 A 
HETATM   34  C20 UNL     1      62.229   7.081  -4.832  1.00  0.00     0.000 A 
HETATM   35  C21 UNL     1      62.244   6.113  -3.862  1.00  0.00     0.001 A 
HETATM   36  C22 UNL     1      62.779   4.829  -4.090  1.00  0.00     0.014 A 
ENDBRANCH   4  31
TORSDOF 7
ENDMDL
