MODEL 1
REMARK VINA RESULT: -11.827041968      0.000      0.000
REMARK  7 active torsions:
REMARK  status: ('A' for Active; 'I' for Inactive)
REMARK    1  A    between atoms: N1_1  and  N2_4 
REMARK    2  A    between atoms: N3_6  and  C1_8 
REMARK    3  A    between atoms: C4_11  and  C5_12 
REMARK    4  A    between atoms: C7_16  and  N5_17 
REMARK       I    between atoms: N5_17  and  C8_19 
REMARK       I    between atoms: C8_19  and  N6_21 
REMARK    5  A    between atoms: N6_21  and  C9_23 
REMARK    6  A    between atoms: C12_26  and  O2_27 
REMARK    7  A    between atoms: O2_27  and  C13_28 
ROOT
HETATM    1  C5  UNL     1      61.322   6.719  -2.038  1.00  0.00     0.075 A 
HETATM    2  C6  UNL     1      61.744   7.690  -2.924  1.00  0.00     0.137 A 
HETATM    3  N4  UNL     1      61.558   7.222  -4.179  1.00  0.00    -0.199 N 
ATOM      4  H4  UNL     1      61.779   7.721  -5.040  1.00  0.00     0.183 HD
HETATM    5  C7  UNL     1      61.032   5.982  -4.101  1.00  0.00     0.686 A 
HETATM    6  N7  UNL     1      60.900   5.706  -2.816  1.00  0.00    -0.189 N 
ATOM      7  H7  UNL     1      60.523   4.829  -2.456  1.00  0.00     0.184 HD
ENDROOT
BRANCH   5   8
HETATM    8  N5  UNL     1      60.724   5.230  -5.091  1.00  0.00    -0.141 N 
HETATM    9  C8  UNL     1      61.783   4.398  -5.637  1.00  0.00     0.339 C 
HETATM   10  O1  UNL     1      62.741   4.930  -6.227  1.00  0.00    -0.246 OA
HETATM   11  N6  UNL     1      61.654   3.016  -5.462  1.00  0.00    -0.308 N 
ATOM     12  H6  UNL     1      60.836   2.669  -4.961  1.00  0.00     0.170 HD
ATOM     13  H5  UNL     1      59.780   5.216  -5.479  1.00  0.00     0.189 HD
BRANCH  11  14
HETATM   14  C9  UNL     1      62.591   2.074  -5.938  1.00  0.00     0.036 A 
HETATM   15  C10 UNL     1      62.747   0.897  -5.181  1.00  0.00     0.032 A 
HETATM   16  C11 UNL     1      63.616  -0.098  -5.563  1.00  0.00     0.039 A 
HETATM   17  C12 UNL     1      64.374   0.015  -6.707  1.00  0.00     0.076 A 
HETATM   18  C19 UNL     1      64.234   1.145  -7.448  1.00  0.00     0.039 A 
HETATM   19  C20 UNL     1      63.361   2.138  -7.058  1.00  0.00     0.032 A 
BRANCH  17  20
HETATM   20  O2  UNL     1      65.255  -0.999  -7.090  1.00  0.00    -0.311 OA
BRANCH  20  21
HETATM   21  C13 UNL     1      66.402  -1.137  -6.311  1.00  0.00     0.076 A 
HETATM   22  C14 UNL     1      67.459  -0.265  -6.453  1.00  0.00     0.037 A 
HETATM   23  C15 UNL     1      68.603  -0.387  -5.690  1.00  0.00     0.003 A 
HETATM   24  C16 UNL     1      68.694  -1.408  -4.759  1.00  0.00     0.000 A 
HETATM   25  C17 UNL     1      67.627  -2.264  -4.637  1.00  0.00     0.003 A 
HETATM   26  C18 UNL     1      66.473  -2.164  -5.388  1.00  0.00     0.037 A 
ENDBRANCH  20  21
ENDBRANCH  17  20
ENDBRANCH  11  14
ENDBRANCH   5   8
BRANCH   1  27
HETATM   27  C4  UNL     1      61.317   6.746  -0.585  1.00  0.00    -0.007 A 
HETATM   28  C3  UNL     1      61.547   7.908   0.121  1.00  0.00     0.016 A 
HETATM   29  C2  UNL     1      61.544   7.937   1.507  1.00  0.00     0.032 A 
HETATM   30  C1  UNL     1      61.307   6.792   2.235  1.00  0.00     0.049 A 
HETATM   31  C22 UNL     1      61.076   5.629   1.531  1.00  0.00     0.032 A 
HETATM   32  C21 UNL     1      61.080   5.601   0.137  1.00  0.00     0.016 A 
BRANCH  30  33
HETATM   33  N3  UNL     1      61.297   6.797   3.667  1.00  0.00    -0.287 N 
HETATM   34  N2  UNL     1      62.244   7.376   4.212  1.00  0.00    -0.249 N 
ATOM     35  H2  UNL     1      63.048   6.903   3.800  1.00  0.00     0.207 HD
ATOM     36  H3  UNL     1      60.555   6.350   4.205  1.00  0.00     0.188 HD
BRANCH  34  37
HETATM   37  N1  UNL     1      62.786   8.198   4.967  1.00  0.00    -0.331 N 
ATOM     38  H12 UNL     1      63.719   7.787   5.018  1.00  0.00     0.178 HD
ATOM     39  H11 UNL     1      62.837   9.030   5.555  1.00  0.00     0.178 HD
ENDBRANCH  34  37
ENDBRANCH  30  33
ENDBRANCH   1  27
TORSDOF 7
ENDMDL
MODEL 2
REMARK VINA RESULT: -11.814693874      0.039      1.202
REMARK  7 active torsions:
REMARK  status: ('A' for Active; 'I' for Inactive)
REMARK    1  A    between atoms: N1_1  and  N2_4 
REMARK    2  A    between atoms: N3_6  and  C1_8 
REMARK    3  A    between atoms: C4_11  and  C5_12 
REMARK    4  A    between atoms: C7_16  and  N5_17 
REMARK       I    between atoms: N5_17  and  C8_19 
REMARK       I    between atoms: C8_19  and  N6_21 
REMARK    5  A    between atoms: N6_21  and  C9_23 
REMARK    6  A    between atoms: C12_26  and  O2_27 
REMARK    7  A    between atoms: O2_27  and  C13_28 
ROOT
HETATM    1  C5  UNL     1      61.321   6.709  -2.020  1.00  0.00     0.075 A 
HETATM    2  C6  UNL     1      61.727   7.694  -2.897  1.00  0.00     0.137 A 
HETATM    3  N4  UNL     1      61.541   7.236  -4.156  1.00  0.00    -0.199 N 
ATOM      4  H4  UNL     1      61.752   7.748  -5.013  1.00  0.00     0.183 HD
HETATM    5  C7  UNL     1      61.031   5.989  -4.089  1.00  0.00     0.686 A 
HETATM    6  N7  UNL     1      60.908   5.698  -2.806  1.00  0.00    -0.189 N 
ATOM      7  H7  UNL     1      60.543   4.813  -2.454  1.00  0.00     0.184 HD
ENDROOT
BRANCH   5   8
HETATM    8  N5  UNL     1      60.727   5.244  -5.086  1.00  0.00    -0.141 N 
HETATM    9  C8  UNL     1      61.787   4.412  -5.628  1.00  0.00     0.339 C 
HETATM   10  O1  UNL     1      62.752   4.943  -6.208  1.00  0.00    -0.246 OA
HETATM   11  N6  UNL     1      61.652   3.029  -5.461  1.00  0.00    -0.308 N 
ATOM     12  H6  UNL     1      60.829   2.682  -4.968  1.00  0.00     0.170 HD
ATOM     13  H5  UNL     1      59.787   5.236  -5.481  1.00  0.00     0.189 HD
BRANCH  11  14
HETATM   14  C9  UNL     1      62.589   2.086  -5.936  1.00  0.00     0.036 A 
HETATM   15  C10 UNL     1      62.734   0.904  -5.184  1.00  0.00     0.032 A 
HETATM   16  C11 UNL     1      63.602  -0.092  -5.565  1.00  0.00     0.039 A 
HETATM   17  C12 UNL     1      64.370   0.024  -6.702  1.00  0.00     0.076 A 
HETATM   18  C19 UNL     1      64.242   1.160  -7.437  1.00  0.00     0.039 A 
HETATM   19  C20 UNL     1      63.369   2.153  -7.049  1.00  0.00     0.032 A 
BRANCH  17  20
HETATM   20  O2  UNL     1      65.251  -0.991  -7.084  1.00  0.00    -0.311 OA
BRANCH  20  21
HETATM   21  C13 UNL     1      66.397  -1.130  -6.305  1.00  0.00     0.076 A 
HETATM   22  C14 UNL     1      66.513  -2.164  -5.401  1.00  0.00     0.037 A 
HETATM   23  C15 UNL     1      67.642  -2.316  -4.621  1.00  0.00     0.003 A 
HETATM   24  C16 UNL     1      68.683  -1.412  -4.746  1.00  0.00     0.000 A 
HETATM   25  C17 UNL     1      68.542  -0.391  -5.652  1.00  0.00     0.003 A 
HETATM   26  C18 UNL     1      67.425  -0.215  -6.443  1.00  0.00     0.037 A 
ENDBRANCH  20  21
ENDBRANCH  17  20
ENDBRANCH  11  14
ENDBRANCH   5   8
BRANCH   1  27
HETATM   27  C4  UNL     1      61.321   6.720  -0.566  1.00  0.00    -0.007 A 
HETATM   28  C3  UNL     1      61.041   5.588   0.169  1.00  0.00     0.016 A 
HETATM   29  C2  UNL     1      61.039   5.595   1.555  1.00  0.00     0.032 A 
HETATM   30  C1  UNL     1      61.323   6.749   2.254  1.00  0.00     0.049 A 
HETATM   31  C22 UNL     1      61.604   7.881   1.520  1.00  0.00     0.032 A 
HETATM   32  C21 UNL     1      61.604   7.873   0.126  1.00  0.00     0.016 A 
BRANCH  30  33
HETATM   33  N3  UNL     1      61.328   6.781   3.686  1.00  0.00    -0.287 N 
HETATM   34  N2  UNL     1      62.260   7.402   4.209  1.00  0.00    -0.249 N 
ATOM     35  H2  UNL     1      63.076   6.948   3.797  1.00  0.00     0.207 HD
ATOM     36  H3  UNL     1      60.607   6.318   4.240  1.00  0.00     0.188 HD
BRANCH  34  37
HETATM   37  N1  UNL     1      62.781   8.255   4.943  1.00  0.00    -0.331 N 
ATOM     38  H12 UNL     1      63.266   7.639   5.596  1.00  0.00     0.178 HD
ATOM     39  H11 UNL     1      63.001   9.198   5.265  1.00  0.00     0.178 HD
ENDBRANCH  34  37
ENDBRANCH  30  33
ENDBRANCH   1  27
TORSDOF 7
ENDMDL
MODEL 3
REMARK VINA RESULT: -11.660605949      0.640      1.054
REMARK  7 active torsions:
REMARK  status: ('A' for Active; 'I' for Inactive)
REMARK    1  A    between atoms: N1_1  and  N2_4 
REMARK    2  A    between atoms: N3_6  and  C1_8 
REMARK    3  A    between atoms: C4_11  and  C5_12 
REMARK    4  A    between atoms: C7_16  and  N5_17 
REMARK       I    between atoms: N5_17  and  C8_19 
REMARK       I    between atoms: C8_19  and  N6_21 
REMARK    5  A    between atoms: N6_21  and  C9_23 
REMARK    6  A    between atoms: C12_26  and  O2_27 
REMARK    7  A    between atoms: O2_27  and  C13_28 
ROOT
HETATM    1  C5  UNL     1      61.322   6.864  -1.539  1.00  0.00     0.075 A 
HETATM    2  C6  UNL     1      61.649   7.834  -2.465  1.00  0.00     0.137 A 
HETATM    3  N4  UNL     1      61.452   7.319  -3.699  1.00  0.00    -0.199 N 
ATOM      4  H4  UNL     1      61.610   7.807  -4.580  1.00  0.00     0.183 HD
HETATM    5  C7  UNL     1      61.011   6.050  -3.570  1.00  0.00     0.686 A 
HETATM    6  N7  UNL     1      60.941   5.803  -2.274  1.00  0.00    -0.189 N 
ATOM      7  H7  UNL     1      60.635   4.914  -1.879  1.00  0.00     0.184 HD
ENDROOT
BRANCH   5   8
HETATM    8  N5  UNL     1      60.718   5.253  -4.529  1.00  0.00    -0.141 N 
HETATM    9  C8  UNL     1      61.826   4.561  -5.166  1.00  0.00     0.339 C 
HETATM   10  O1  UNL     1      62.650   5.207  -5.839  1.00  0.00    -0.246 OA
HETATM   11  N6  UNL     1      61.897   3.176  -4.979  1.00  0.00    -0.308 N 
ATOM     12  H6  UNL     1      61.179   2.730  -4.407  1.00  0.00     0.170 HD
ATOM     13  H5  UNL     1      59.755   5.110  -4.831  1.00  0.00     0.189 HD
BRANCH  11  14
HETATM   14  C9  UNL     1      62.904   2.359  -5.536  1.00  0.00     0.036 A 
HETATM   15  C10 UNL     1      62.600   0.993  -5.687  1.00  0.00     0.032 A 
HETATM   16  C11 UNL     1      63.498   0.110  -6.238  1.00  0.00     0.039 A 
HETATM   17  C12 UNL     1      64.739   0.525  -6.667  1.00  0.00     0.076 A 
HETATM   18  C19 UNL     1      65.047   1.841  -6.527  1.00  0.00     0.039 A 
HETATM   19  C20 UNL     1      64.141   2.720  -5.974  1.00  0.00     0.032 A 
BRANCH  17  20
HETATM   20  O2  UNL     1      65.648  -0.377  -7.225  1.00  0.00    -0.311 OA
BRANCH  20  21
HETATM   21  C13 UNL     1      66.681  -0.797  -6.392  1.00  0.00     0.076 A 
HETATM   22  C14 UNL     1      66.456  -1.738  -5.410  1.00  0.00     0.037 A 
HETATM   23  C15 UNL     1      67.468  -2.166  -4.575  1.00  0.00     0.003 A 
HETATM   24  C16 UNL     1      68.740  -1.641  -4.723  1.00  0.00     0.000 A 
HETATM   25  C17 UNL     1      68.938  -0.705  -5.708  1.00  0.00     0.003 A 
HETATM   26  C18 UNL     1      67.944  -0.260  -6.555  1.00  0.00     0.037 A 
ENDBRANCH  20  21
ENDBRANCH  17  20
ENDBRANCH  11  14
ENDBRANCH   5   8
BRANCH   1  27
HETATM   27  C4  UNL     1      61.365   6.931  -0.087  1.00  0.00    -0.007 A 
HETATM   28  C3  UNL     1      61.425   8.135   0.582  1.00  0.00     0.016 A 
HETATM   29  C2  UNL     1      61.467   8.204   1.965  1.00  0.00     0.032 A 
HETATM   30  C1  UNL     1      61.449   7.057   2.729  1.00  0.00     0.049 A 
HETATM   31  C22 UNL     1      61.388   5.852   2.061  1.00  0.00     0.032 A 
HETATM   32  C21 UNL     1      61.347   5.784   0.669  1.00  0.00     0.016 A 
BRANCH  30  33
HETATM   33  N3  UNL     1      61.490   7.102   4.160  1.00  0.00    -0.287 N 
HETATM   34  N2  UNL     1      62.445   7.712   4.653  1.00  0.00    -0.249 N 
ATOM     35  H2  UNL     1      63.242   7.241   4.227  1.00  0.00     0.207 HD
ATOM     36  H3  UNL     1      60.775   6.658   4.736  1.00  0.00     0.188 HD
BRANCH  34  37
HETATM   37  N1  UNL     1      62.999   8.563   5.366  1.00  0.00    -0.331 N 
ATOM     38  H12 UNL     1      62.314   9.317   5.288  1.00  0.00     0.178 HD
ATOM     39  H11 UNL     1      63.728   8.938   5.972  1.00  0.00     0.178 HD
ENDBRANCH  34  37
ENDBRANCH  30  33
ENDBRANCH   1  27
TORSDOF 7
ENDMDL
MODEL 4
REMARK VINA RESULT: -11.651296554      0.583      1.024
REMARK  7 active torsions:
REMARK  status: ('A' for Active; 'I' for Inactive)
REMARK    1  A    between atoms: N1_1  and  N2_4 
REMARK    2  A    between atoms: N3_6  and  C1_8 
REMARK    3  A    between atoms: C4_11  and  C5_12 
REMARK    4  A    between atoms: C7_16  and  N5_17 
REMARK       I    between atoms: N5_17  and  C8_19 
REMARK       I    between atoms: C8_19  and  N6_21 
REMARK    5  A    between atoms: N6_21  and  C9_23 
REMARK    6  A    between atoms: C12_26  and  O2_27 
REMARK    7  A    between atoms: O2_27  and  C13_28 
ROOT
HETATM    1  C5  UNL     1      61.298   6.837  -1.541  1.00  0.00     0.075 A 
HETATM    2  C6  UNL     1      61.659   7.794  -2.468  1.00  0.00     0.137 A 
HETATM    3  N4  UNL     1      61.456   7.281  -3.702  1.00  0.00    -0.199 N 
ATOM      4  H4  UNL     1      61.634   7.761  -4.583  1.00  0.00     0.183 HD
HETATM    5  C7  UNL     1      60.977   6.026  -3.571  1.00  0.00     0.686 A 
HETATM    6  N7  UNL     1      60.891   5.785  -2.276  1.00  0.00    -0.189 N 
ATOM      7  H7  UNL     1      60.556   4.907  -1.879  1.00  0.00     0.184 HD
ENDROOT
BRANCH   5   8
HETATM    8  N5  UNL     1      60.669   5.233  -4.530  1.00  0.00    -0.141 N 
HETATM    9  C8  UNL     1      61.761   4.511  -5.159  1.00  0.00     0.339 C 
HETATM   10  O1  UNL     1      62.605   5.134  -5.830  1.00  0.00    -0.246 OA
HETATM   11  N6  UNL     1      61.795   3.125  -4.969  1.00  0.00    -0.308 N 
ATOM     12  H6  UNL     1      61.064   2.700  -4.399  1.00  0.00     0.170 HD
ATOM     13  H5  UNL     1      59.703   5.115  -4.836  1.00  0.00     0.189 HD
BRANCH  11  14
HETATM   14  C9  UNL     1      62.784   2.282  -5.519  1.00  0.00     0.036 A 
HETATM   15  C10 UNL     1      62.477   0.909  -5.590  1.00  0.00     0.032 A 
HETATM   16  C11 UNL     1      63.357  -0.001  -6.127  1.00  0.00     0.039 A 
HETATM   17  C12 UNL     1      64.582   0.393  -6.620  1.00  0.00     0.076 A 
HETATM   18  C19 UNL     1      64.892   1.714  -6.557  1.00  0.00     0.039 A 
HETATM   19  C20 UNL     1      64.004   2.620  -6.018  1.00  0.00     0.032 A 
BRANCH  17  20
HETATM   20  O2  UNL     1      65.472  -0.537  -7.163  1.00  0.00    -0.311 OA
BRANCH  20  21
HETATM   21  C13 UNL     1      66.541  -0.905  -6.351  1.00  0.00     0.076 A 
HETATM   22  C14 UNL     1      67.797  -0.376  -6.558  1.00  0.00     0.037 A 
HETATM   23  C15 UNL     1      68.869  -0.730  -5.763  1.00  0.00     0.003 A 
HETATM   24  C16 UNL     1      68.682  -1.636  -4.733  1.00  0.00     0.000 A 
HETATM   25  C17 UNL     1      67.422  -2.148  -4.548  1.00  0.00     0.003 A 
HETATM   26  C18 UNL     1      66.335  -1.812  -5.329  1.00  0.00     0.037 A 
ENDBRANCH  20  21
ENDBRANCH  17  20
ENDBRANCH  11  14
ENDBRANCH   5   8
BRANCH   1  27
HETATM   27  C4  UNL     1      61.332   6.909  -0.089  1.00  0.00    -0.007 A 
HETATM   28  C3  UNL     1      61.259   5.778   0.695  1.00  0.00     0.016 A 
HETATM   29  C2  UNL     1      61.290   5.841   2.079  1.00  0.00     0.032 A 
HETATM   30  C1  UNL     1      61.397   7.054   2.726  1.00  0.00     0.049 A 
HETATM   31  C22 UNL     1      61.470   8.186   1.943  1.00  0.00     0.032 A 
HETATM   32  C21 UNL     1      61.438   8.120   0.550  1.00  0.00     0.016 A 
BRANCH  30  33
HETATM   33  N3  UNL     1      61.432   7.145   4.155  1.00  0.00    -0.287 N 
HETATM   34  N2  UNL     1      62.411   7.726   4.635  1.00  0.00    -0.249 N 
ATOM     35  H2  UNL     1      63.188   7.203   4.231  1.00  0.00     0.207 HD
ATOM     36  H3  UNL     1      60.693   6.755   4.740  1.00  0.00     0.188 HD
BRANCH  34  37
HETATM   37  N1  UNL     1      63.001   8.574   5.323  1.00  0.00    -0.331 N 
ATOM     38  H12 UNL     1      63.122   9.304   4.620  1.00  0.00     0.178 HD
ATOM     39  H11 UNL     1      63.426   8.955   6.168  1.00  0.00     0.178 HD
ENDBRANCH  34  37
ENDBRANCH  30  33
ENDBRANCH   1  27
TORSDOF 7
ENDMDL
MODEL 5
REMARK VINA RESULT: -11.352414850      1.041      1.323
REMARK  7 active torsions:
REMARK  status: ('A' for Active; 'I' for Inactive)
REMARK    1  A    between atoms: N1_1  and  N2_4 
REMARK    2  A    between atoms: N3_6  and  C1_8 
REMARK    3  A    between atoms: C4_11  and  C5_12 
REMARK    4  A    between atoms: C7_16  and  N5_17 
REMARK       I    between atoms: N5_17  and  C8_19 
REMARK       I    between atoms: C8_19  and  N6_21 
REMARK    5  A    between atoms: N6_21  and  C9_23 
REMARK    6  A    between atoms: C12_26  and  O2_27 
REMARK    7  A    between atoms: O2_27  and  C13_28 
ROOT
HETATM    1  C5  UNL     1      61.264   6.691  -1.566  1.00  0.00     0.075 A 
HETATM    2  C6  UNL     1      61.562   7.624  -2.537  1.00  0.00     0.137 A 
HETATM    3  N4  UNL     1      61.379   7.045  -3.745  1.00  0.00    -0.199 N 
ATOM      4  H4  UNL     1      61.522   7.494  -4.649  1.00  0.00     0.183 HD
HETATM    5  C7  UNL     1      60.974   5.772  -3.554  1.00  0.00     0.686 A 
HETATM    6  N7  UNL     1      60.913   5.586  -2.248  1.00  0.00    -0.189 N 
ATOM      7  H7  UNL     1      60.632   4.708  -1.809  1.00  0.00     0.184 HD
ENDROOT
BRANCH   5   8
HETATM    8  N5  UNL     1      60.705   4.921  -4.473  1.00  0.00    -0.141 N 
HETATM    9  C8  UNL     1      61.825   4.422  -5.252  1.00  0.00     0.339 C 
HETATM   10  O1  UNL     1      62.430   5.191  -6.022  1.00  0.00    -0.246 OA
HETATM   11  N6  UNL     1      62.160   3.073  -5.086  1.00  0.00    -0.308 N 
ATOM     12  H6  UNL     1      61.610   2.519  -4.429  1.00  0.00     0.170 HD
ATOM     13  H5  UNL     1      59.750   4.608  -4.648  1.00  0.00     0.189 HD
BRANCH  11  14
HETATM   14  C9  UNL     1      63.214   2.436  -5.775  1.00  0.00     0.036 A 
HETATM   15  C10 UNL     1      64.465   3.082  -5.754  1.00  0.00     0.032 A 
HETATM   16  C11 UNL     1      65.568   2.541  -6.374  1.00  0.00     0.039 A 
HETATM   17  C12 UNL     1      65.494   1.340  -7.044  1.00  0.00     0.076 A 
HETATM   18  C19 UNL     1      64.293   0.706  -7.073  1.00  0.00     0.039 A 
HETATM   19  C20 UNL     1      63.193   1.255  -6.449  1.00  0.00     0.032 A 
BRANCH  17  20
HETATM   20  O2  UNL     1      66.617   0.796  -7.672  1.00  0.00    -0.311 OA
BRANCH  20  21
HETATM   21  C13 UNL     1      67.299  -0.188  -6.959  1.00  0.00     0.076 A 
HETATM   22  C14 UNL     1      67.729  -1.339  -7.583  1.00  0.00     0.037 A 
HETATM   23  C15 UNL     1      68.405  -2.324  -6.893  1.00  0.00     0.003 A 
HETATM   24  C16 UNL     1      68.659  -2.156  -5.542  1.00  0.00     0.000 A 
HETATM   25  C17 UNL     1      68.220  -1.001  -4.944  1.00  0.00     0.003 A 
HETATM   26  C18 UNL     1      67.542  -0.002  -5.611  1.00  0.00     0.037 A 
ENDBRANCH  20  21
ENDBRANCH  17  20
ENDBRANCH  11  14
ENDBRANCH   5   8
BRANCH   1  27
HETATM   27  C4  UNL     1      61.305   6.830  -0.119  1.00  0.00    -0.007 A 
HETATM   28  C3  UNL     1      61.411   8.063   0.489  1.00  0.00     0.016 A 
HETATM   29  C2  UNL     1      61.452   8.200   1.868  1.00  0.00     0.032 A 
HETATM   30  C1  UNL     1      61.386   7.094   2.688  1.00  0.00     0.049 A 
HETATM   31  C22 UNL     1      61.279   5.861   2.081  1.00  0.00     0.032 A 
HETATM   32  C21 UNL     1      61.239   5.724   0.694  1.00  0.00     0.016 A 
BRANCH  30  33
HETATM   33  N3  UNL     1      61.425   7.210   4.115  1.00  0.00    -0.287 N 
HETATM   34  N2  UNL     1      62.430   7.754   4.585  1.00  0.00    -0.249 N 
ATOM     35  H2  UNL     1      63.182   7.189   4.190  1.00  0.00     0.207 HD
ATOM     36  H3  UNL     1      60.670   6.864   4.706  1.00  0.00     0.188 HD
BRANCH  34  37
HETATM   37  N1  UNL     1      63.058   8.586   5.258  1.00  0.00    -0.331 N 
ATOM     38  H12 UNL     1      63.960   8.113   5.309  1.00  0.00     0.178 HD
ATOM     39  H11 UNL     1      63.191   9.453   5.779  1.00  0.00     0.178 HD
ENDBRANCH  34  37
ENDBRANCH  30  33
ENDBRANCH   1  27
TORSDOF 7
ENDMDL
