MODEL 1
REMARK VINA RESULT: -11.784127811      0.000      0.000
REMARK  7 active torsions:
REMARK  status: ('A' for Active; 'I' for Inactive)
REMARK       I    between atoms: C1_2  and  N1_3 
REMARK    1  A    between atoms: C1_2  and  C19_28 
REMARK    2  A    between atoms: N1_3  and  C2_5 
REMARK    3  A    between atoms: C5_8  and  N2_9 
REMARK    4  A    between atoms: N2_9  and  C6_11 
REMARK    5  A    between atoms: C6_11  and  N3_13 
REMARK    6  A    between atoms: N3_13  and  C7_15 
REMARK    7  A    between atoms: C10_18  and  C11_19 
ROOT
HETATM    1  N2  UNL     1      61.817   5.590  -5.521  1.00  0.00    -0.333 N 
ATOM      2  H2  UNL     1      61.758   6.373  -6.172  1.00  0.00     0.168 HD
ENDROOT
BRANCH   1   3
HETATM    3  C5  UNL     1      62.783   4.627  -5.824  1.00  0.00     0.034 A 
HETATM    4  C4  UNL     1      62.813   3.881  -6.977  1.00  0.00     0.032 A 
HETATM    5  C3  UNL     1      63.809   2.921  -7.187  1.00  0.00     0.032 A 
HETATM    6  C2  UNL     1      64.804   2.661  -6.280  1.00  0.00     0.035 A 
HETATM    7  C18 UNL     1      64.743   3.444  -5.108  1.00  0.00     0.032 A 
HETATM    8  C17 UNL     1      63.781   4.384  -4.886  1.00  0.00     0.032 A 
BRANCH   6   9
HETATM    9  N1  UNL     1      65.820   1.699  -6.407  1.00  0.00    -0.323 N 
HETATM   10  C1  UNL     1      65.683   0.329  -6.224  1.00  0.00     0.256 C 
HETATM   11  O1  UNL     1      64.564  -0.185  -5.903  1.00  0.00    -0.267 OA
ATOM     12  H1  UNL     1      66.748   2.040  -6.657  1.00  0.00     0.169 HD
BRANCH  10  13
HETATM   13  C19 UNL     1      66.816  -0.612  -6.389  1.00  0.00     0.032 A 
HETATM   14  C20 UNL     1      67.246  -1.394  -5.339  1.00  0.00     0.017 A 
HETATM   15  C21 UNL     1      68.285  -2.278  -5.436  1.00  0.00     0.001 A 
HETATM   16  C22 UNL     1      68.945  -2.409  -6.641  1.00  0.00     0.000 A 
HETATM   17  C23 UNL     1      68.542  -1.648  -7.702  1.00  0.00     0.001 A 
HETATM   18  C24 UNL     1      67.475  -0.745  -7.583  1.00  0.00     0.017 A 
ENDBRANCH  10  13
ENDBRANCH   6   9
ENDBRANCH   1   3
BRANCH   1  19
HETATM   19  C6  UNL     1      60.938   5.628  -4.472  1.00  0.00     0.176 C 
HETATM   20  S1  UNL     1      59.899   4.279  -4.386  1.00  0.00    -0.041 SA
BRANCH  19  21
HETATM   21  N3  UNL     1      60.753   6.564  -3.481  1.00  0.00    -0.333 N 
ATOM     22  H3  UNL     1      60.240   7.388  -3.795  1.00  0.00     0.168 HD
BRANCH  21  23
HETATM   23  C7  UNL     1      61.124   6.624  -2.118  1.00  0.00     0.034 A 
HETATM   24  C8  UNL     1      61.074   7.862  -1.461  1.00  0.00     0.030 A 
HETATM   25  C9  UNL     1      61.354   7.971  -0.119  1.00  0.00     0.016 A 
HETATM   26  C10 UNL     1      61.694   6.880   0.651  1.00  0.00    -0.002 A 
HETATM   27  C15 UNL     1      61.744   5.660   0.006  1.00  0.00     0.016 A 
HETATM   28  C16 UNL     1      61.467   5.540  -1.338  1.00  0.00     0.030 A 
BRANCH  26  29
HETATM   29  C11 UNL     1      61.991   6.999   2.076  1.00  0.00     0.085 A 
HETATM   30  C12 UNL     1      61.415   7.819   3.013  1.00  0.00     0.040 A 
HETATM   31  C13 UNL     1      62.018   7.581   4.221  1.00  0.00     0.027 A 
HETATM   32  C14 UNL     1      62.971   6.589   3.963  1.00  0.00     0.142 A 
HETATM   33  O2  UNL     1      62.915   6.280   2.680  1.00  0.00    -0.322 OA
ENDBRANCH  26  29
ENDBRANCH  21  23
ENDBRANCH  19  21
ENDBRANCH   1  19
TORSDOF 7
ENDMDL
MODEL 2
REMARK VINA RESULT: -11.485399464      0.137      1.222
REMARK  7 active torsions:
REMARK  status: ('A' for Active; 'I' for Inactive)
REMARK       I    between atoms: C1_2  and  N1_3 
REMARK    1  A    between atoms: C1_2  and  C19_28 
REMARK    2  A    between atoms: N1_3  and  C2_5 
REMARK    3  A    between atoms: C5_8  and  N2_9 
REMARK    4  A    between atoms: N2_9  and  C6_11 
REMARK    5  A    between atoms: C6_11  and  N3_13 
REMARK    6  A    between atoms: N3_13  and  C7_15 
REMARK    7  A    between atoms: C10_18  and  C11_19 
ROOT
HETATM    1  N2  UNL     1      61.966   5.688  -5.498  1.00  0.00    -0.333 N 
ATOM      2  H2  UNL     1      61.945   6.480  -6.140  1.00  0.00     0.168 HD
ENDROOT
BRANCH   1   3
HETATM    3  C5  UNL     1      62.917   4.705  -5.785  1.00  0.00     0.034 A 
HETATM    4  C4  UNL     1      62.950   3.958  -6.936  1.00  0.00     0.032 A 
HETATM    5  C3  UNL     1      63.928   2.978  -7.131  1.00  0.00     0.032 A 
HETATM    6  C2  UNL     1      64.904   2.698  -6.208  1.00  0.00     0.035 A 
HETATM    7  C18 UNL     1      64.840   3.483  -5.038  1.00  0.00     0.032 A 
HETATM    8  C17 UNL     1      63.894   4.442  -4.831  1.00  0.00     0.032 A 
BRANCH   6   9
HETATM    9  N1  UNL     1      65.901   1.715  -6.318  1.00  0.00    -0.323 N 
HETATM   10  C1  UNL     1      65.730   0.347  -6.152  1.00  0.00     0.256 C 
HETATM   11  O1  UNL     1      64.593  -0.145  -5.864  1.00  0.00    -0.267 OA
ATOM     12  H1  UNL     1      66.842   2.039  -6.541  1.00  0.00     0.169 HD
BRANCH  10  13
HETATM   13  C19 UNL     1      66.846  -0.617  -6.297  1.00  0.00     0.032 A 
HETATM   14  C20 UNL     1      67.488  -0.779  -7.506  1.00  0.00     0.017 A 
HETATM   15  C21 UNL     1      68.524  -1.653  -7.697  1.00  0.00     0.001 A 
HETATM   16  C22 UNL     1      68.961  -2.417  -6.634  1.00  0.00     0.000 A 
HETATM   17  C23 UNL     1      68.346  -2.278  -5.421  1.00  0.00     0.001 A 
HETATM   18  C24 UNL     1      67.285  -1.378  -5.246  1.00  0.00     0.017 A 
ENDBRANCH  10  13
ENDBRANCH   6   9
ENDBRANCH   1   3
BRANCH   1  19
HETATM   19  C6  UNL     1      61.057   5.735  -4.474  1.00  0.00     0.176 C 
HETATM   20  S1  UNL     1      60.103   4.330  -4.326  1.00  0.00    -0.041 SA
BRANCH  19  21
HETATM   21  N3  UNL     1      60.787   6.717  -3.549  1.00  0.00    -0.333 N 
ATOM     22  H3  UNL     1      60.326   7.533  -3.952  1.00  0.00     0.168 HD
BRANCH  21  23
HETATM   23  C7  UNL     1      61.013   6.833  -2.159  1.00  0.00     0.034 A 
HETATM   24  C8  UNL     1      61.467   5.708  -1.455  1.00  0.00     0.030 A 
HETATM   25  C9  UNL     1      61.773   5.778  -0.116  1.00  0.00     0.016 A 
HETATM   26  C10 UNL     1      61.653   6.947   0.604  1.00  0.00    -0.002 A 
HETATM   27  C15 UNL     1      61.205   8.055  -0.087  1.00  0.00     0.016 A 
HETATM   28  C16 UNL     1      60.896   7.996  -1.427  1.00  0.00     0.030 A 
BRANCH  26  29
HETATM   29  C11 UNL     1      61.979   7.018   2.026  1.00  0.00     0.085 A 
HETATM   30  C12 UNL     1      61.421   7.804   3.003  1.00  0.00     0.040 A 
HETATM   31  C13 UNL     1      62.050   7.527   4.189  1.00  0.00     0.027 A 
HETATM   32  C14 UNL     1      62.999   6.548   3.877  1.00  0.00     0.142 A 
HETATM   33  O2  UNL     1      62.917   6.282   2.586  1.00  0.00    -0.322 OA
ENDBRANCH  26  29
ENDBRANCH  21  23
ENDBRANCH  19  21
ENDBRANCH   1  19
TORSDOF 7
ENDMDL
MODEL 3
REMARK VINA RESULT: -11.239950675      0.870      1.224
REMARK  7 active torsions:
REMARK  status: ('A' for Active; 'I' for Inactive)
REMARK       I    between atoms: C1_2  and  N1_3 
REMARK    1  A    between atoms: C1_2  and  C19_28 
REMARK    2  A    between atoms: N1_3  and  C2_5 
REMARK    3  A    between atoms: C5_8  and  N2_9 
REMARK    4  A    between atoms: N2_9  and  C6_11 
REMARK    5  A    between atoms: C6_11  and  N3_13 
REMARK    6  A    between atoms: N3_13  and  C7_15 
REMARK    7  A    between atoms: C10_18  and  C11_19 
ROOT
HETATM    1  N2  UNL     1      61.121   4.775  -5.663  1.00  0.00    -0.333 N 
ATOM      2  H2  UNL     1      60.266   4.640  -6.202  1.00  0.00     0.168 HD
ENDROOT
BRANCH   1   3
HETATM    3  C5  UNL     1      62.160   3.886  -5.950  1.00  0.00     0.034 A 
HETATM    4  C4  UNL     1      62.150   2.973  -6.975  1.00  0.00     0.032 A 
HETATM    5  C3  UNL     1      63.228   2.105  -7.176  1.00  0.00     0.032 A 
HETATM    6  C2  UNL     1      64.347   2.101  -6.383  1.00  0.00     0.035 A 
HETATM    7  C18 UNL     1      64.324   3.051  -5.340  1.00  0.00     0.032 A 
HETATM    8  C17 UNL     1      63.282   3.905  -5.129  1.00  0.00     0.032 A 
BRANCH   6   9
HETATM    9  N1  UNL     1      65.455   1.247  -6.504  1.00  0.00    -0.323 N 
HETATM   10  C1  UNL     1      65.491  -0.103  -6.180  1.00  0.00     0.256 C 
HETATM   11  O1  UNL     1      64.467  -0.698  -5.717  1.00  0.00    -0.267 OA
ATOM     12  H1  UNL     1      66.315   1.658  -6.865  1.00  0.00     0.169 HD
BRANCH  10  13
HETATM   13  C19 UNL     1      66.710  -0.929  -6.352  1.00  0.00     0.032 A 
HETATM   14  C20 UNL     1      67.380  -0.960  -7.557  1.00  0.00     0.017 A 
HETATM   15  C21 UNL     1      68.508  -1.704  -7.770  1.00  0.00     0.001 A 
HETATM   16  C22 UNL     1      69.017  -2.464  -6.737  1.00  0.00     0.000 A 
HETATM   17  C23 UNL     1      68.376  -2.453  -5.529  1.00  0.00     0.001 A 
HETATM   18  C24 UNL     1      67.219  -1.686  -5.330  1.00  0.00     0.017 A 
ENDBRANCH  10  13
ENDBRANCH   6   9
ENDBRANCH   1   3
BRANCH   1  19
HETATM   19  C6  UNL     1      61.091   5.803  -4.758  1.00  0.00     0.176 C 
HETATM   20  S1  UNL     1      62.029   7.153  -5.209  1.00  0.00    -0.041 SA
BRANCH  19  21
HETATM   21  N3  UNL     1      60.437   5.930  -3.555  1.00  0.00    -0.333 N 
ATOM     22  H3  UNL     1      59.422   5.869  -3.639  1.00  0.00     0.168 HD
BRANCH  21  23
HETATM   23  C7  UNL     1      60.875   6.128  -2.225  1.00  0.00     0.034 A 
HETATM   24  C8  UNL     1      60.758   7.407  -1.662  1.00  0.00     0.030 A 
HETATM   25  C9  UNL     1      61.100   7.645  -0.351  1.00  0.00     0.016 A 
HETATM   26  C10 UNL     1      61.571   6.649   0.477  1.00  0.00    -0.002 A 
HETATM   27  C15 UNL     1      61.687   5.390  -0.076  1.00  0.00     0.016 A 
HETATM   28  C16 UNL     1      61.348   5.141  -1.387  1.00  0.00     0.030 A 
BRANCH  26  29
HETATM   29  C11 UNL     1      61.933   6.905   1.869  1.00  0.00     0.085 A 
HETATM   30  C12 UNL     1      61.399   7.813   2.748  1.00  0.00     0.040 A 
HETATM   31  C13 UNL     1      62.059   7.691   3.944  1.00  0.00     0.027 A 
HETATM   32  C14 UNL     1      63.001   6.678   3.738  1.00  0.00     0.142 A 
HETATM   33  O2  UNL     1      62.886   6.246   2.496  1.00  0.00    -0.322 OA
ENDBRANCH  26  29
ENDBRANCH  21  23
ENDBRANCH  19  21
ENDBRANCH   1  19
TORSDOF 7
ENDMDL
MODEL 4
REMARK VINA RESULT: -10.936671504      1.160      1.160
REMARK  7 active torsions:
REMARK  status: ('A' for Active; 'I' for Inactive)
REMARK       I    between atoms: C1_2  and  N1_3 
REMARK    1  A    between atoms: C1_2  and  C19_28 
REMARK    2  A    between atoms: N1_3  and  C2_5 
REMARK    3  A    between atoms: C5_8  and  N2_9 
REMARK    4  A    between atoms: N2_9  and  C6_11 
REMARK    5  A    between atoms: C6_11  and  N3_13 
REMARK    6  A    between atoms: N3_13  and  C7_15 
REMARK    7  A    between atoms: C10_18  and  C11_19 
ROOT
HETATM    1  N2  UNL     1      61.023   4.795  -5.723  1.00  0.00    -0.333 N 
ATOM      2  H2  UNL     1      60.205   4.793  -6.332  1.00  0.00     0.168 HD
ENDROOT
BRANCH   1   3
HETATM    3  C5  UNL     1      61.928   3.749  -5.927  1.00  0.00     0.034 A 
HETATM    4  C4  UNL     1      61.909   2.894  -7.001  1.00  0.00     0.032 A 
HETATM    5  C3  UNL     1      62.842   1.858  -7.113  1.00  0.00     0.032 A 
HETATM    6  C2  UNL     1      63.821   1.626  -6.181  1.00  0.00     0.035 A 
HETATM    7  C18 UNL     1      63.811   2.522  -5.091  1.00  0.00     0.032 A 
HETATM    8  C17 UNL     1      62.909   3.537  -4.965  1.00  0.00     0.032 A 
BRANCH   6   9
HETATM    9  N1  UNL     1      64.775   0.596  -6.209  1.00  0.00    -0.323 N 
HETATM   10  C1  UNL     1      66.107   0.719  -6.581  1.00  0.00     0.256 C 
HETATM   11  O1  UNL     1      66.589   1.836  -6.951  1.00  0.00    -0.267 OA
ATOM     12  H1  UNL     1      64.458  -0.332  -5.929  1.00  0.00     0.169 HD
BRANCH  10  13
HETATM   13  C19 UNL     1      67.044  -0.429  -6.569  1.00  0.00     0.032 A 
HETATM   14  C20 UNL     1      67.283  -1.137  -5.411  1.00  0.00     0.017 A 
HETATM   15  C21 UNL     1      68.137  -2.204  -5.344  1.00  0.00     0.001 A 
HETATM   16  C22 UNL     1      68.799  -2.607  -6.486  1.00  0.00     0.000 A 
HETATM   17  C23 UNL     1      68.582  -1.926  -7.651  1.00  0.00     0.001 A 
HETATM   18  C24 UNL     1      67.705  -0.833  -7.700  1.00  0.00     0.017 A 
ENDBRANCH  10  13
ENDBRANCH   6   9
ENDBRANCH   1   3
BRANCH   1  19
HETATM   19  C6  UNL     1      61.084   5.823  -4.820  1.00  0.00     0.176 C 
HETATM   20  S1  UNL     1      62.165   7.067  -5.254  1.00  0.00    -0.041 SA
BRANCH  19  21
HETATM   21  N3  UNL     1      60.423   6.020  -3.630  1.00  0.00    -0.333 N 
ATOM     22  H3  UNL     1      59.408   6.045  -3.731  1.00  0.00     0.168 HD
BRANCH  21  23
HETATM   23  C7  UNL     1      60.855   6.197  -2.295  1.00  0.00     0.034 A 
HETATM   24  C8  UNL     1      60.789   7.478  -1.730  1.00  0.00     0.030 A 
HETATM   25  C9  UNL     1      61.127   7.699  -0.415  1.00  0.00     0.016 A 
HETATM   26  C10 UNL     1      61.544   6.682   0.415  1.00  0.00    -0.002 A 
HETATM   27  C15 UNL     1      61.610   5.419  -0.139  1.00  0.00     0.016 A 
HETATM   28  C16 UNL     1      61.275   5.188  -1.454  1.00  0.00     0.030 A 
BRANCH  26  29
HETATM   29  C11 UNL     1      61.902   6.919   1.812  1.00  0.00     0.085 A 
HETATM   30  C12 UNL     1      61.339   7.786   2.713  1.00  0.00     0.040 A 
HETATM   31  C13 UNL     1      62.007   7.662   3.904  1.00  0.00     0.027 A 
HETATM   32  C14 UNL     1      62.985   6.688   3.672  1.00  0.00     0.142 A 
HETATM   33  O2  UNL     1      62.881   6.281   2.421  1.00  0.00    -0.322 OA
ENDBRANCH  26  29
ENDBRANCH  21  23
ENDBRANCH  19  21
ENDBRANCH   1  19
TORSDOF 7
ENDMDL
MODEL 5
REMARK VINA RESULT: -10.432251421      1.984      9.907
REMARK  7 active torsions:
REMARK  status: ('A' for Active; 'I' for Inactive)
REMARK       I    between atoms: C1_2  and  N1_3 
REMARK    1  A    between atoms: C1_2  and  C19_28 
REMARK    2  A    between atoms: N1_3  and  C2_5 
REMARK    3  A    between atoms: C5_8  and  N2_9 
REMARK    4  A    between atoms: N2_9  and  C6_11 
REMARK    5  A    between atoms: C6_11  and  N3_13 
REMARK    6  A    between atoms: N3_13  and  C7_15 
REMARK    7  A    between atoms: C10_18  and  C11_19 
ROOT
HETATM    1  N2  UNL     1      60.882   3.723  -7.139  1.00  0.00    -0.333 N 
ATOM      2  H2  UNL     1      60.271   4.089  -7.870  1.00  0.00     0.168 HD
ENDROOT
BRANCH   1   3
HETATM    3  C5  UNL     1      60.905   4.457  -5.951  1.00  0.00     0.034 A 
HETATM    4  C4  UNL     1      61.501   5.685  -5.799  1.00  0.00     0.032 A 
HETATM    5  C3  UNL     1      61.495   6.340  -4.563  1.00  0.00     0.032 A 
HETATM    6  C2  UNL     1      60.908   5.817  -3.439  1.00  0.00     0.035 A 
HETATM    7  C18 UNL     1      60.306   4.555  -3.631  1.00  0.00     0.032 A 
HETATM    8  C17 UNL     1      60.302   3.902  -4.827  1.00  0.00     0.032 A 
BRANCH   6   9
HETATM    9  N1  UNL     1      60.882   6.399  -2.162  1.00  0.00    -0.323 N 
HETATM   10  C1  UNL     1      61.533   5.926  -1.030  1.00  0.00     0.256 C 
HETATM   11  O1  UNL     1      62.235   4.866  -1.066  1.00  0.00    -0.267 OA
ATOM     12  H1  UNL     1      60.333   7.252  -2.056  1.00  0.00     0.169 HD
BRANCH  10  13
HETATM   13  C19 UNL     1      61.454   6.617   0.279  1.00  0.00     0.032 A 
HETATM   14  C20 UNL     1      61.883   5.998   1.434  1.00  0.00     0.017 A 
HETATM   15  C21 UNL     1      61.834   6.589   2.667  1.00  0.00     0.001 A 
HETATM   16  C22 UNL     1      61.334   7.871   2.777  1.00  0.00     0.000 A 
HETATM   17  C23 UNL     1      60.901   8.512   1.650  1.00  0.00     0.001 A 
HETATM   18  C24 UNL     1      60.958   7.890   0.395  1.00  0.00     0.017 A 
ENDBRANCH  10  13
ENDBRANCH   6   9
ENDBRANCH   1   3
BRANCH   1  19
HETATM   19  C6  UNL     1      61.565   2.579  -7.460  1.00  0.00     0.176 C 
HETATM   20  S1  UNL     1      60.624   1.161  -7.376  1.00  0.00    -0.041 SA
BRANCH  19  21
HETATM   21  N3  UNL     1      62.873   2.383  -7.837  1.00  0.00    -0.333 N 
ATOM     22  H3  UNL     1      63.163   2.982  -8.611  1.00  0.00     0.168 HD
BRANCH  21  23
HETATM   23  C7  UNL     1      63.900   1.527  -7.378  1.00  0.00     0.034 A 
HETATM   24  C8  UNL     1      65.233   1.928  -7.540  1.00  0.00     0.030 A 
HETATM   25  C9  UNL     1      66.272   1.172  -7.050  1.00  0.00     0.016 A 
HETATM   26  C10 UNL     1      66.064  -0.012  -6.377  1.00  0.00    -0.002 A 
HETATM   27  C15 UNL     1      64.752  -0.409  -6.217  1.00  0.00     0.016 A 
HETATM   28  C16 UNL     1      63.704   0.340  -6.704  1.00  0.00     0.030 A 
BRANCH  26  29
HETATM   29  C11 UNL     1      67.170  -0.813  -5.857  1.00  0.00     0.085 A 
HETATM   30  C12 UNL     1      67.629  -2.033  -6.285  1.00  0.00     0.040 A 
HETATM   31  C13 UNL     1      68.688  -2.395  -5.493  1.00  0.00     0.027 A 
HETATM   32  C14 UNL     1      68.838  -1.343  -4.583  1.00  0.00     0.142 A 
HETATM   33  O2  UNL     1      67.916  -0.434  -4.840  1.00  0.00    -0.322 OA
ENDBRANCH  26  29
ENDBRANCH  21  23
ENDBRANCH  19  21
ENDBRANCH   1  19
TORSDOF 7
ENDMDL
