MODEL 1
REMARK VINA RESULT: -8.671427186      0.000      0.000
REMARK  11 active torsions:
REMARK  status: ('A' for Active; 'I' for Inactive)
REMARK    1  A    between atoms: C2_2  and  C3_3 
REMARK    2  A    between atoms: C3_3  and  N1_4 
REMARK    3  A    between atoms: C3_3  and  C22_32 
REMARK       I    between atoms: N1_4  and  C4_6 
REMARK    4  A    between atoms: C4_6  and  C5_8 
REMARK    5  A    between atoms: C7_10  and  O2_11 
REMARK    6  A    between atoms: O2_11  and  C8_12 
REMARK    7  A    between atoms: C8_12  and  C9_13 
REMARK    8  A    between atoms: C9_13  and  O3_14 
REMARK    9  A    between atoms: C11_16  and  C12_17 
REMARK   10  A    between atoms: C18_26  and  C19_27 
REMARK   11  A    between atoms: C25_37  and  O4_38 
ROOT
HETATM    1  C5  UNL     1     -14.429  21.335  16.651  1.00  0.00     0.103 A 
HETATM    2  C6  UNL     1     -13.587  22.325  17.180  1.00  0.00     0.073 A 
HETATM    3  C7  UNL     1     -12.835  23.139  16.382  1.00  0.00     0.084 A 
HETATM    4  C11 UNL     1     -12.945  22.937  14.996  1.00  0.00     0.032 A 
HETATM    5  C18 UNL     1     -13.768  21.970  14.479  1.00  0.00     0.027 A 
HETATM    6  N2  UNL     1     -14.500  21.180  15.320  1.00  0.00    -0.354 N 
ATOM      7  H2  UNL     1     -15.110  20.462  14.929  1.00  0.00     0.166 HD
ENDROOT
BRANCH   1   8
HETATM    8  C4  UNL     1     -15.189  20.522  17.589  1.00  0.00     0.269 C 
HETATM    9  N1  UNL     1     -16.552  20.209  17.371  1.00  0.00    -0.344 N 
ATOM     10  H1  UNL     1     -16.995  20.574  16.527  1.00  0.00     0.163 HD
HETATM   11  O1  UNL     1     -14.664  20.064  18.629  1.00  0.00    -0.266 OA
BRANCH   9  12
HETATM   12  C3  UNL     1     -17.349  19.417  18.252  1.00  0.00     0.152 C 
BRANCH  12  13
HETATM   13  C2  UNL     1     -18.070  20.350  19.235  1.00  0.00     0.028 C 
HETATM   14  C1  UNL     1     -18.267  19.616  20.555  1.00  0.00     0.007 C 
ENDBRANCH  12  13
BRANCH  12  15
HETATM   15  C22 UNL     1     -18.323  18.529  17.572  1.00  0.00     0.105 A 
HETATM   16  N3  UNL     1     -19.210  17.674  18.096  1.00  0.00    -0.342 N 
HETATM   17  C23 UNL     1     -19.919  17.051  17.142  1.00  0.00     0.063 A 
ATOM     18  H3  UNL     1     -19.331  17.516  19.096  1.00  0.00     0.167 HD
HETATM   19  C24 UNL     1     -20.930  16.106  17.136  1.00  0.00     0.068 A 
HETATM   20  C29 UNL     1     -19.450  17.544  15.943  1.00  0.00     0.060 A 
HETATM   21  C25 UNL     1     -21.501  15.624  15.980  1.00  0.00     0.070 A 
HETATM   22  C27 UNL     1     -21.021  16.127  14.786  1.00  0.00     0.039 A 
HETATM   23  C28 UNL     1     -20.004  17.079  14.770  1.00  0.00     0.035 A 
HETATM   24  N4  UNL     1     -18.483  18.438  16.235  1.00  0.00    -0.342 N 
ATOM     25  H4  UNL     1     -17.950  18.968  15.546  1.00  0.00     0.167 HD
BRANCH  21  26
HETATM   26  O4  UNL     1     -22.516  14.678  15.957  1.00  0.00    -0.356 OA
HETATM   27  C26 UNL     1     -23.821  15.044  16.386  1.00  0.00     0.210 C 
ENDBRANCH  21  26
ENDBRANCH  12  15
ENDBRANCH   9  12
ENDBRANCH   1   8
BRANCH   3  28
HETATM   28  O2  UNL     1     -12.021  24.096  16.856  1.00  0.00    -0.348 OA
BRANCH  28  29
HETATM   29  C8  UNL     1     -11.024  24.186  17.776  1.00  0.00     0.201 C 
BRANCH  29  30
HETATM   30  C9  UNL     1     -11.115  25.262  18.813  1.00  0.00     0.193 C 
BRANCH  30  31
HETATM   31  O3  UNL     1     -11.042  24.818  20.121  1.00  0.00    -0.394 OA
HETATM   32  C10 UNL     1     -12.195  25.118  20.810  1.00  0.00     0.201 C 
ENDBRANCH  30  31
ENDBRANCH  29  30
ENDBRANCH  28  29
ENDBRANCH   3  28
BRANCH   5  33
HETATM   33  C19 UNL     1     -13.869  21.792  13.005  1.00  0.00     0.028 C 
HETATM   34  C20 UNL     1     -12.843  20.779  12.515  1.00  0.00     0.016 C 
HETATM   35  C21 UNL     1     -15.245  21.201  12.682  1.00  0.00     0.016 C 
ENDBRANCH   5  33
BRANCH   4  36
HETATM   36  C12 UNL     1     -12.105  23.825  14.167  1.00  0.00     0.002 A 
HETATM   37  C13 UNL     1     -12.581  25.013  13.662  1.00  0.00     0.039 A 
HETATM   38  C14 UNL     1     -11.821  25.876  12.896  1.00  0.00     0.056 A 
HETATM   39 CL1  UNL     1     -12.480  27.372  12.282  1.00  0.00    -0.083 Cl
HETATM   40  C15 UNL     1     -10.519  25.540  12.617  1.00  0.00     0.057 A 
HETATM   41 CL2  UNL     1      -9.500  26.588  11.651  1.00  0.00    -0.082 Cl
HETATM   42  C16 UNL     1     -10.031  24.348  13.120  1.00  0.00     0.050 A 
HETATM   43  C17 UNL     1     -10.797  23.497  13.881  1.00  0.00     0.047 A 
HETATM   44 CL3  UNL     1     -10.078  22.021  14.461  1.00  0.00    -0.083 Cl
ENDBRANCH   4  36
TORSDOF 11
ENDMDL
MODEL 2
REMARK VINA RESULT: -8.513392054      0.733      1.262
REMARK  11 active torsions:
REMARK  status: ('A' for Active; 'I' for Inactive)
REMARK    1  A    between atoms: C2_2  and  C3_3 
REMARK    2  A    between atoms: C3_3  and  N1_4 
REMARK    3  A    between atoms: C3_3  and  C22_32 
REMARK       I    between atoms: N1_4  and  C4_6 
REMARK    4  A    between atoms: C4_6  and  C5_8 
REMARK    5  A    between atoms: C7_10  and  O2_11 
REMARK    6  A    between atoms: O2_11  and  C8_12 
REMARK    7  A    between atoms: C8_12  and  C9_13 
REMARK    8  A    between atoms: C9_13  and  O3_14 
REMARK    9  A    between atoms: C11_16  and  C12_17 
REMARK   10  A    between atoms: C18_26  and  C19_27 
REMARK   11  A    between atoms: C25_37  and  O4_38 
ROOT
HETATM    1  C5  UNL     1     -14.102  21.488  16.826  1.00  0.00     0.103 A 
HETATM    2  C6  UNL     1     -13.257  22.526  17.247  1.00  0.00     0.073 A 
HETATM    3  C7  UNL     1     -12.593  23.325  16.360  1.00  0.00     0.084 A 
HETATM    4  C11 UNL     1     -12.797  23.056  14.996  1.00  0.00     0.032 A 
HETATM    5  C18 UNL     1     -13.623  22.042  14.585  1.00  0.00     0.027 A 
HETATM    6  N2  UNL     1     -14.265  21.271  15.512  1.00  0.00    -0.354 N 
ATOM      7  H2  UNL     1     -14.878  20.517  15.199  1.00  0.00     0.166 HD
ENDROOT
BRANCH   1   8
HETATM    8  C4  UNL     1     -14.764  20.696  17.852  1.00  0.00     0.269 C 
HETATM    9  N1  UNL     1     -16.033  20.108  17.638  1.00  0.00    -0.344 N 
ATOM     10  H1  UNL     1     -16.479  20.256  16.732  1.00  0.00     0.163 HD
HETATM   11  O1  UNL     1     -14.234  20.503  18.970  1.00  0.00    -0.266 OA
BRANCH   9  12
HETATM   12  C3  UNL     1     -16.731  19.322  18.604  1.00  0.00     0.152 C 
BRANCH  12  13
HETATM   13  C2  UNL     1     -17.241  20.249  19.717  1.00  0.00     0.028 C 
HETATM   14  C1  UNL     1     -18.544  20.892  19.262  1.00  0.00     0.007 C 
ENDBRANCH  12  13
BRANCH  12  15
HETATM   15  C22 UNL     1     -17.847  18.515  18.052  1.00  0.00     0.105 A 
HETATM   16  N3  UNL     1     -18.219  18.331  16.780  1.00  0.00    -0.342 N 
HETATM   17  C23 UNL     1     -19.285  17.521  16.688  1.00  0.00     0.063 A 
ATOM     18  H3  UNL     1     -17.750  18.754  15.978  1.00  0.00     0.167 HD
HETATM   19  C24 UNL     1     -20.045  17.019  15.646  1.00  0.00     0.068 A 
HETATM   20  C29 UNL     1     -19.605  17.173  17.984  1.00  0.00     0.060 A 
HETATM   21  C25 UNL     1     -21.118  16.178  15.836  1.00  0.00     0.070 A 
HETATM   22  C27 UNL     1     -21.427  15.839  17.139  1.00  0.00     0.039 A 
HETATM   23  C28 UNL     1     -20.675  16.333  18.203  1.00  0.00     0.035 A 
HETATM   24  N4  UNL     1     -18.715  17.791  18.788  1.00  0.00    -0.342 N 
ATOM     25  H4  UNL     1     -18.701  17.722  19.805  1.00  0.00     0.167 HD
BRANCH  21  26
HETATM   26  O4  UNL     1     -21.889  15.665  14.803  1.00  0.00    -0.356 OA
HETATM   27  C26 UNL     1     -21.264  15.309  13.576  1.00  0.00     0.210 C 
ENDBRANCH  21  26
ENDBRANCH  12  15
ENDBRANCH   9  12
ENDBRANCH   1   8
BRANCH   3  28
HETATM   28  O2  UNL     1     -11.779  24.326  16.730  1.00  0.00    -0.348 OA
BRANCH  28  29
HETATM   29  C8  UNL     1     -10.759  24.503  17.611  1.00  0.00     0.201 C 
BRANCH  29  30
HETATM   30  C9  UNL     1     -10.951  25.484  18.727  1.00  0.00     0.193 C 
BRANCH  30  31
HETATM   31  O3  UNL     1     -10.960  24.929  19.994  1.00  0.00    -0.394 OA
HETATM   32  C10 UNL     1     -12.081  25.313  20.694  1.00  0.00     0.201 C 
ENDBRANCH  30  31
ENDBRANCH  29  30
ENDBRANCH  28  29
ENDBRANCH   3  28
BRANCH   5  33
HETATM   33  C19 UNL     1     -13.826  21.794  13.132  1.00  0.00     0.028 C 
HETATM   34  C20 UNL     1     -12.860  20.730  12.629  1.00  0.00     0.016 C 
HETATM   35  C21 UNL     1     -15.235  21.225  12.930  1.00  0.00     0.016 C 
ENDBRANCH   5  33
BRANCH   4  36
HETATM   36  C12 UNL     1     -12.050  23.930  14.069  1.00  0.00     0.002 A 
HETATM   37  C13 UNL     1     -12.587  25.099  13.579  1.00  0.00     0.039 A 
HETATM   38  C14 UNL     1     -11.913  25.948  12.723  1.00  0.00     0.056 A 
HETATM   39 CL1  UNL     1     -12.647  27.420  12.135  1.00  0.00    -0.083 Cl
HETATM   40  C15 UNL     1     -10.639  25.619  12.332  1.00  0.00     0.057 A 
HETATM   41 CL2  UNL     1      -9.729  26.650  11.247  1.00  0.00    -0.082 Cl
HETATM   42  C16 UNL     1     -10.091  24.446  12.818  1.00  0.00     0.050 A 
HETATM   43  C17 UNL     1     -10.771  23.608  13.670  1.00  0.00     0.047 A 
HETATM   44 CL3  UNL     1      -9.982  22.156  14.219  1.00  0.00    -0.083 Cl
ENDBRANCH   4  36
TORSDOF 11
ENDMDL
MODEL 3
REMARK VINA RESULT: -7.898837075      6.619     13.080
REMARK  11 active torsions:
REMARK  status: ('A' for Active; 'I' for Inactive)
REMARK    1  A    between atoms: C2_2  and  C3_3 
REMARK    2  A    between atoms: C3_3  and  N1_4 
REMARK    3  A    between atoms: C3_3  and  C22_32 
REMARK       I    between atoms: N1_4  and  C4_6 
REMARK    4  A    between atoms: C4_6  and  C5_8 
REMARK    5  A    between atoms: C7_10  and  O2_11 
REMARK    6  A    between atoms: O2_11  and  C8_12 
REMARK    7  A    between atoms: C8_12  and  C9_13 
REMARK    8  A    between atoms: C9_13  and  O3_14 
REMARK    9  A    between atoms: C11_16  and  C12_17 
REMARK   10  A    between atoms: C18_26  and  C19_27 
REMARK   11  A    between atoms: C25_37  and  O4_38 
ROOT
HETATM    1  C5  UNL     1     -23.215  16.185  17.424  1.00  0.00     0.103 A 
HETATM    2  C6  UNL     1     -23.096  16.675  18.734  1.00  0.00     0.073 A 
HETATM    3  C7  UNL     1     -24.187  16.952  19.507  1.00  0.00     0.084 A 
HETATM    4  C11 UNL     1     -25.446  16.722  18.925  1.00  0.00     0.032 A 
HETATM    5  C18 UNL     1     -25.562  16.243  17.645  1.00  0.00     0.027 A 
HETATM    6  N2  UNL     1     -24.439  15.981  16.913  1.00  0.00    -0.354 N 
ATOM      7  H2  UNL     1     -24.533  15.625  15.961  1.00  0.00     0.166 HD
ENDROOT
BRANCH   1   8
HETATM    8  C4  UNL     1     -21.990  15.920  16.687  1.00  0.00     0.269 C 
HETATM    9  N1  UNL     1     -21.092  16.957  16.335  1.00  0.00    -0.344 N 
ATOM     10  H1  UNL     1     -21.330  17.908  16.617  1.00  0.00     0.163 HD
HETATM   11  O1  UNL     1     -21.679  14.761  16.332  1.00  0.00    -0.266 OA
BRANCH   9  12
HETATM   12  C3  UNL     1     -19.876  16.761  15.614  1.00  0.00     0.152 C 
BRANCH  12  13
HETATM   13  C2  UNL     1     -20.151  16.972  14.119  1.00  0.00     0.028 C 
HETATM   14  C1  UNL     1     -20.051  15.630  13.406  1.00  0.00     0.007 C 
ENDBRANCH  12  13
BRANCH  12  15
HETATM   15  C22 UNL     1     -18.750  17.618  16.058  1.00  0.00     0.105 A 
HETATM   16  N3  UNL     1     -18.334  17.906  17.297  1.00  0.00    -0.342 N 
HETATM   17  C23 UNL     1     -17.270  18.724  17.285  1.00  0.00     0.063 A 
ATOM     18  H3  UNL     1     -18.771  17.548  18.147  1.00  0.00     0.167 HD
HETATM   19  C24 UNL     1     -16.475  19.308  18.255  1.00  0.00     0.068 A 
HETATM   20  C29 UNL     1     -17.000  18.967  15.954  1.00  0.00     0.060 A 
HETATM   21  C25 UNL     1     -15.411  20.131  17.958  1.00  0.00     0.070 A 
HETATM   22  C27 UNL     1     -15.152  20.366  16.622  1.00  0.00     0.039 A 
HETATM   23  C28 UNL     1     -15.941  19.788  15.629  1.00  0.00     0.035 A 
HETATM   24  N4  UNL     1     -17.913  18.284  15.235  1.00  0.00    -0.342 N 
ATOM     25  H4  UNL     1     -17.965  18.271  14.217  1.00  0.00     0.167 HD
BRANCH  21  26
HETATM   26  O4  UNL     1     -14.603  20.723  18.919  1.00  0.00    -0.356 OA
HETATM   27  C26 UNL     1     -15.146  21.729  19.764  1.00  0.00     0.210 C 
ENDBRANCH  21  26
ENDBRANCH  12  15
ENDBRANCH   9  12
ENDBRANCH   1   8
BRANCH   3  28
HETATM   28  O2  UNL     1     -24.107  17.420  20.762  1.00  0.00    -0.348 OA
BRANCH  28  29
HETATM   29  C8  UNL     1     -23.130  17.869  21.595  1.00  0.00     0.201 C 
BRANCH  29  30
HETATM   30  C9  UNL     1     -22.212  18.941  21.093  1.00  0.00     0.193 C 
BRANCH  30  31
HETATM   31  O3  UNL     1     -20.911  18.532  20.861  1.00  0.00    -0.394 OA
HETATM   32  C10 UNL     1     -20.086  19.611  20.639  1.00  0.00     0.201 C 
ENDBRANCH  30  31
ENDBRANCH  29  30
ENDBRANCH  28  29
ENDBRANCH   3  28
BRANCH   5  33
HETATM   33  C19 UNL     1     -26.910  15.999  17.065  1.00  0.00     0.028 C 
HETATM   34  C20 UNL     1     -27.335  17.166  16.184  1.00  0.00     0.016 C 
HETATM   35  C21 UNL     1     -26.828  14.775  16.147  1.00  0.00     0.016 C 
ENDBRANCH   5  33
BRANCH   4  36
HETATM   36  C12 UNL     1     -26.600  17.049  19.785  1.00  0.00     0.002 A 
HETATM   37  C13 UNL     1     -27.216  16.099  20.568  1.00  0.00     0.039 A 
HETATM   38  C14 UNL     1     -28.288  16.370  21.396  1.00  0.00     0.056 A 
HETATM   39 CL1  UNL     1     -29.028  15.122  22.368  1.00  0.00    -0.083 Cl
HETATM   40  C15 UNL     1     -28.775  17.653  21.448  1.00  0.00     0.057 A 
HETATM   41 CL2  UNL     1     -30.133  18.065  22.475  1.00  0.00    -0.082 Cl
HETATM   42  C16 UNL     1     -28.164  18.615  20.665  1.00  0.00     0.050 A 
HETATM   43  C17 UNL     1     -27.097  18.333  19.844  1.00  0.00     0.047 A 
HETATM   44 CL3  UNL     1     -26.406  19.623  18.901  1.00  0.00    -0.083 Cl
ENDBRANCH   4  36
TORSDOF 11
ENDMDL
MODEL 4
REMARK VINA RESULT: -7.683183587      3.186      6.223
REMARK  11 active torsions:
REMARK  status: ('A' for Active; 'I' for Inactive)
REMARK    1  A    between atoms: C2_2  and  C3_3 
REMARK    2  A    between atoms: C3_3  and  N1_4 
REMARK    3  A    between atoms: C3_3  and  C22_32 
REMARK       I    between atoms: N1_4  and  C4_6 
REMARK    4  A    between atoms: C4_6  and  C5_8 
REMARK    5  A    between atoms: C7_10  and  O2_11 
REMARK    6  A    between atoms: O2_11  and  C8_12 
REMARK    7  A    between atoms: C8_12  and  C9_13 
REMARK    8  A    between atoms: C9_13  and  O3_14 
REMARK    9  A    between atoms: C11_16  and  C12_17 
REMARK   10  A    between atoms: C18_26  and  C19_27 
REMARK   11  A    between atoms: C25_37  and  O4_38 
ROOT
HETATM    1  C5  UNL     1     -10.938  25.861  17.104  1.00  0.00     0.103 A 
HETATM    2  C6  UNL     1     -10.820  25.216  15.863  1.00  0.00     0.073 A 
HETATM    3  C7  UNL     1     -10.333  25.854  14.758  1.00  0.00     0.084 A 
HETATM    4  C11 UNL     1      -9.952  27.197  14.923  1.00  0.00     0.032 A 
HETATM    5  C18 UNL     1     -10.066  27.827  16.135  1.00  0.00     0.027 A 
HETATM    6  N2  UNL     1     -10.560  27.145  17.211  1.00  0.00    -0.354 N 
ATOM      7  H2  UNL     1     -10.643  27.619  18.110  1.00  0.00     0.166 HD
ENDROOT
BRANCH   1   8
HETATM    8  C4  UNL     1     -11.467  25.091  18.219  1.00  0.00     0.269 C 
HETATM    9  N1  UNL     1     -12.752  24.498  18.173  1.00  0.00    -0.344 N 
ATOM     10  H1  UNL     1     -13.304  24.627  17.325  1.00  0.00     0.163 HD
HETATM   11  O1  UNL     1     -10.805  24.922  19.268  1.00  0.00    -0.266 OA
BRANCH   9  12
HETATM   12  C3  UNL     1     -13.325  23.733  19.233  1.00  0.00     0.152 C 
BRANCH  12  13
HETATM   13  C2  UNL     1     -13.949  24.695  20.253  1.00  0.00     0.028 C 
HETATM   14  C1  UNL     1     -14.461  23.889  21.439  1.00  0.00     0.007 C 
ENDBRANCH  12  13
BRANCH  12  15
HETATM   15  C22 UNL     1     -14.323  22.725  18.795  1.00  0.00     0.105 A 
HETATM   16  N3  UNL     1     -14.254  21.389  18.821  1.00  0.00    -0.342 N 
HETATM   17  C23 UNL     1     -15.372  20.827  18.336  1.00  0.00     0.063 A 
ATOM     18  H3  UNL     1     -13.451  20.863  19.166  1.00  0.00     0.167 HD
HETATM   19  C24 UNL     1     -15.809  19.528  18.145  1.00  0.00     0.068 A 
HETATM   20  C29 UNL     1     -16.196  21.875  17.983  1.00  0.00     0.060 A 
HETATM   21  C25 UNL     1     -17.041  19.221  17.614  1.00  0.00     0.070 A 
HETATM   22  C27 UNL     1     -17.857  20.280  17.265  1.00  0.00     0.039 A 
HETATM   23  C28 UNL     1     -17.435  21.596  17.448  1.00  0.00     0.035 A 
HETATM   24  N4  UNL     1     -15.533  23.013  18.273  1.00  0.00    -0.342 N 
ATOM     25  H4  UNL     1     -15.893  23.954  18.119  1.00  0.00     0.167 HD
BRANCH  21  26
HETATM   26  O4  UNL     1     -17.495  17.924  17.418  1.00  0.00    -0.356 OA
HETATM   27  C26 UNL     1     -18.847  17.604  17.721  1.00  0.00     0.210 C 
ENDBRANCH  21  26
ENDBRANCH  12  15
ENDBRANCH   9  12
ENDBRANCH   1   8
BRANCH   3  28
HETATM   28  O2  UNL     1     -10.208  25.266  13.558  1.00  0.00    -0.348 OA
BRANCH  28  29
HETATM   29  C8  UNL     1     -10.599  24.100  12.977  1.00  0.00     0.201 C 
BRANCH  29  30
HETATM   30  C9  UNL     1     -10.264  22.817  13.672  1.00  0.00     0.193 C 
BRANCH  30  31
HETATM   31  O3  UNL     1     -11.140  21.775  13.426  1.00  0.00    -0.394 OA
HETATM   32  C10 UNL     1     -12.083  21.676  14.424  1.00  0.00     0.201 C 
ENDBRANCH  30  31
ENDBRANCH  29  30
ENDBRANCH  28  29
ENDBRANCH   3  28
BRANCH   5  33
HETATM   33  C19 UNL     1      -9.642  29.245  16.276  1.00  0.00     0.028 C 
HETATM   34  C20 UNL     1     -10.727  30.184  15.767  1.00  0.00     0.016 C 
HETATM   35  C21 UNL     1      -9.472  29.554  17.768  1.00  0.00     0.016 C 
ENDBRANCH   5  33
BRANCH   4  36
HETATM   36  C12 UNL     1      -9.447  27.856  13.702  1.00  0.00     0.002 A 
HETATM   37  C13 UNL     1      -8.102  28.053  13.486  1.00  0.00     0.039 A 
HETATM   38  C14 UNL     1      -7.591  28.652  12.351  1.00  0.00     0.056 A 
HETATM   39 CL1  UNL     1      -5.872  28.875  12.132  1.00  0.00    -0.083 Cl
HETATM   40  C15 UNL     1      -8.462  29.079  11.379  1.00  0.00     0.057 A 
HETATM   41 CL2  UNL     1      -7.881  29.847   9.916  1.00  0.00    -0.082 Cl
HETATM   42  C16 UNL     1      -9.815  28.885  11.587  1.00  0.00     0.050 A 
HETATM   43  C17 UNL     1     -10.313  28.288  12.721  1.00  0.00     0.047 A 
HETATM   44 CL3  UNL     1     -12.037  28.097  12.877  1.00  0.00    -0.083 Cl
ENDBRANCH   4  36
TORSDOF 11
ENDMDL
MODEL 5
REMARK VINA RESULT: -7.677718247      3.462      5.239
REMARK  11 active torsions:
REMARK  status: ('A' for Active; 'I' for Inactive)
REMARK    1  A    between atoms: C2_2  and  C3_3 
REMARK    2  A    between atoms: C3_3  and  N1_4 
REMARK    3  A    between atoms: C3_3  and  C22_32 
REMARK       I    between atoms: N1_4  and  C4_6 
REMARK    4  A    between atoms: C4_6  and  C5_8 
REMARK    5  A    between atoms: C7_10  and  O2_11 
REMARK    6  A    between atoms: O2_11  and  C8_12 
REMARK    7  A    between atoms: C8_12  and  C9_13 
REMARK    8  A    between atoms: C9_13  and  O3_14 
REMARK    9  A    between atoms: C11_16  and  C12_17 
REMARK   10  A    between atoms: C18_26  and  C19_27 
REMARK   11  A    between atoms: C25_37  and  O4_38 
ROOT
HETATM    1  C5  UNL     1     -11.247  25.053  16.687  1.00  0.00     0.103 A 
HETATM    2  C6  UNL     1     -10.911  26.414  16.760  1.00  0.00     0.073 A 
HETATM    3  C7  UNL     1     -10.465  27.109  15.673  1.00  0.00     0.084 A 
HETATM    4  C11 UNL     1     -10.358  26.393  14.468  1.00  0.00     0.032 A 
HETATM    5  C18 UNL     1     -10.686  25.064  14.397  1.00  0.00     0.027 A 
HETATM    6  N2  UNL     1     -11.127  24.413  15.513  1.00  0.00    -0.354 N 
ATOM      7  H2  UNL     1     -11.370  23.423  15.454  1.00  0.00     0.166 HD
ENDROOT
BRANCH   1   8
HETATM    8  C4  UNL     1     -11.713  24.405  17.903  1.00  0.00     0.269 C 
HETATM    9  N1  UNL     1     -13.036  23.918  18.030  1.00  0.00    -0.344 N 
ATOM     10  H1  UNL     1     -13.664  24.034  17.234  1.00  0.00     0.163 HD
HETATM   11  O1  UNL     1     -10.959  24.252  18.891  1.00  0.00    -0.266 OA
BRANCH   9  12
HETATM   12  C3  UNL     1     -13.551  23.274  19.195  1.00  0.00     0.152 C 
BRANCH  12  13
HETATM   13  C2  UNL     1     -13.806  24.337  20.273  1.00  0.00     0.028 C 
HETATM   14  C1  UNL     1     -14.848  25.320  19.756  1.00  0.00     0.007 C 
ENDBRANCH  12  13
BRANCH  12  15
HETATM   15  C22 UNL     1     -14.775  22.468  18.964  1.00  0.00     0.105 A 
HETATM   16  N3  UNL     1     -15.494  21.741  19.828  1.00  0.00    -0.342 N 
HETATM   17  C23 UNL     1     -16.543  21.157  19.229  1.00  0.00     0.063 A 
ATOM     18  H3  UNL     1     -15.271  21.642  20.819  1.00  0.00     0.167 HD
HETATM   19  C24 UNL     1     -17.571  20.328  19.647  1.00  0.00     0.068 A 
HETATM   20  C29 UNL     1     -16.481  21.540  17.906  1.00  0.00     0.060 A 
HETATM   21  C25 UNL     1     -18.549  19.861  18.799  1.00  0.00     0.070 A 
HETATM   22  C27 UNL     1     -18.475  20.253  17.477  1.00  0.00     0.039 A 
HETATM   23  C28 UNL     1     -17.449  21.086  17.035  1.00  0.00     0.035 A 
HETATM   24  N4  UNL     1     -15.400  22.335  17.776  1.00  0.00    -0.342 N 
ATOM     25  H4  UNL     1     -15.097  22.771  16.905  1.00  0.00     0.167 HD
BRANCH  21  26
HETATM   26  O4  UNL     1     -19.586  19.032  19.202  1.00  0.00    -0.356 OA
HETATM   27  C26 UNL     1     -20.357  19.382  20.345  1.00  0.00     0.210 C 
ENDBRANCH  21  26
ENDBRANCH  12  15
ENDBRANCH   9  12
ENDBRANCH   1   8
BRANCH   3  28
HETATM   28  O2  UNL     1     -10.137  28.411  15.709  1.00  0.00    -0.348 OA
BRANCH  28  29
HETATM   29  C8  UNL     1     -10.283  29.448  16.576  1.00  0.00     0.201 C 
BRANCH  29  30
HETATM   30  C9  UNL     1      -9.213  29.668  17.600  1.00  0.00     0.193 C 
BRANCH  30  31
HETATM   31  O3  UNL     1      -8.206  28.719  17.603  1.00  0.00    -0.394 OA
HETATM   32  C10 UNL     1      -7.370  28.889  18.684  1.00  0.00     0.201 C 
ENDBRANCH  30  31
ENDBRANCH  29  30
ENDBRANCH  28  29
ENDBRANCH   3  28
BRANCH   5  33
HETATM   33  C19 UNL     1     -10.572  24.341  13.102  1.00  0.00     0.028 C 
HETATM   34  C20 UNL     1     -10.106  22.908  13.326  1.00  0.00     0.016 C 
HETATM   35  C21 UNL     1     -11.968  24.245  12.476  1.00  0.00     0.016 C 
ENDBRANCH   5  33
BRANCH   4  36
HETATM   36  C12 UNL     1      -9.857  27.175  13.320  1.00  0.00     0.002 A 
HETATM   37  C13 UNL     1      -8.512  27.300  13.056  1.00  0.00     0.039 A 
HETATM   38  C14 UNL     1      -8.007  28.010  11.985  1.00  0.00     0.056 A 
HETATM   39 CL1  UNL     1      -6.288  28.132  11.700  1.00  0.00    -0.083 Cl
HETATM   40  C15 UNL     1      -8.884  28.631  11.130  1.00  0.00     0.057 A 
HETATM   41 CL2  UNL     1      -8.311  29.549   9.752  1.00  0.00    -0.082 Cl
HETATM   42  C16 UNL     1     -10.238  28.512  11.387  1.00  0.00     0.050 A 
HETATM   43  C17 UNL     1     -10.730  27.802  12.457  1.00  0.00     0.047 A 
HETATM   44 CL3  UNL     1     -12.454  27.722  12.684  1.00  0.00    -0.083 Cl
ENDBRANCH   4  36
TORSDOF 11
ENDMDL
