MODEL 1
REMARK VINA RESULT: -8.973103693      0.000      0.000
REMARK  13 active torsions:
REMARK  status: ('A' for Active; 'I' for Inactive)
REMARK    1  A    between atoms: C2_2  and  C3_3 
REMARK    2  A    between atoms: C3_3  and  C4_4 
REMARK    3  A    between atoms: C4_4  and  C5_5 
REMARK    4  A    between atoms: C5_5  and  C6_6 
REMARK    5  A    between atoms: C6_6  and  N1_7 
REMARK    6  A    between atoms: N1_7  and  C8_9 
REMARK    7  A    between atoms: C8_9  and  C9_10 
REMARK    8  A    between atoms: C9_10  and  O1_11 
REMARK    9  A    between atoms: C9_10  and  C10_13 
REMARK   10  A    between atoms: C10_13  and  O2_14 
REMARK   11  A    between atoms: O2_14  and  C11_15 
REMARK   12  A    between atoms: C16_23  and  N3_24 
REMARK   13  A    between atoms: N3_24  and  C17_26 
ROOT
HETATM    1  C11 UNL     1     -15.166  21.417  19.577  1.00  0.00     0.144 A 
HETATM    2  C12 UNL     1     -16.523  21.149  19.907  1.00  0.00     0.080 A 
HETATM    3  C13 UNL     1     -17.224  20.346  19.055  1.00  0.00     0.051 A 
HETATM    4 CL1  UNL     1     -18.985  20.812  18.991  1.00  0.00    -0.083 Cl
HETATM    5  C14 UNL     1     -16.694  19.786  17.947  1.00  0.00     0.029 A 
HETATM    6  C15 UNL     1     -15.343  20.098  17.650  1.00  0.00     0.091 A 
HETATM    7  N2  UNL     1     -14.671  20.876  18.465  1.00  0.00    -0.333 N 
ATOM      8  H2  UNL     1     -13.700  21.081  18.231  1.00  0.00     0.168 HD
HETATM    9  C16 UNL     1     -14.841  19.690  16.434  1.00  0.00     0.134 A 
HETATM   10  N4  UNL     1     -15.613  19.019  15.592  1.00  0.00    -0.340 N 
ATOM     11  H4  UNL     1     -15.201  18.748  14.698  1.00  0.00     0.167 HD
HETATM   12  C23 UNL     1     -16.884  18.665  15.810  1.00  0.00     0.047 A 
HETATM   13  C24 UNL     1     -17.602  17.900  14.973  1.00  0.00     0.053 A 
HETATM   14  C25 UNL     1     -18.859  17.439  15.257  1.00  0.00     0.047 A 
HETATM   15  C26 UNL     1     -19.595  16.642  14.334  1.00  0.00     0.099 C 
HETATM   16  N5  UNL     1     -20.208  16.006  13.589  1.00  0.00    -0.191 NA
HETATM   17  C27 UNL     1     -19.373  17.790  16.484  1.00  0.00     0.030 A 
HETATM   18  C28 UNL     1     -18.674  18.595  17.413  1.00  0.00    -0.047 A 
HETATM   19  C29 UNL     1     -19.051  18.371  18.849  1.00  0.00     0.049 C 
HETATM   20  C30 UNL     1     -17.444  19.060  17.067  1.00  0.00     0.011 A 
ENDROOT
BRANCH   9  21
HETATM   21  N3  UNL     1     -13.604  19.992  16.181  1.00  0.00    -0.341 N 
ATOM     22  H3  UNL     1     -12.843  19.431  16.563  1.00  0.00     0.167 HD
BRANCH  21  23
HETATM   23  C17 UNL     1     -13.330  21.129  15.353  1.00  0.00     0.035 A 
HETATM   24  C18 UNL     1     -14.266  22.080  15.022  1.00  0.00     0.031 A 
HETATM   25  C19 UNL     1     -13.968  23.163  14.224  1.00  0.00     0.028 A 
HETATM   26  C20 UNL     1     -12.694  23.340  13.713  1.00  0.00     0.055 A 
HETATM   27 CL2  UNL     1     -12.297  24.715  12.695  1.00  0.00    -0.083 Cl
HETATM   28  C21 UNL     1     -11.746  22.393  14.037  1.00  0.00     0.058 A 
HETATM   29 CL3  UNL     1     -10.130  22.623  13.388  1.00  0.00    -0.082 Cl
HETATM   30  C22 UNL     1     -12.043  21.314  14.833  1.00  0.00     0.055 A 
ENDBRANCH  21  23
ENDBRANCH   9  21
BRANCH   1  31
HETATM   31  O2  UNL     1     -14.417  22.217  20.411  1.00  0.00    -0.333 OA
BRANCH  31  32
HETATM   32  C10 UNL     1     -14.909  23.505  20.737  1.00  0.00     0.214 C 
BRANCH  32  33
HETATM   33  C9  UNL     1     -14.282  24.563  19.855  1.00  0.00     0.180 C 
BRANCH  33  34
HETATM   34  C8  UNL     1     -12.879  24.168  19.440  1.00  0.00     0.096 C 
BRANCH  34  35
HETATM   35  N1  UNL     1     -11.962  25.227  19.415  1.00  0.00    -0.376 N 
HETATM   36  C7  UNL     1     -12.006  26.101  20.518  1.00  0.00     0.154 C 
BRANCH  35  37
HETATM   37  C6  UNL     1     -10.883  25.240  18.540  1.00  0.00     0.062 C 
BRANCH  37  38
HETATM   38  C5  UNL     1     -10.914  24.229  17.420  1.00  0.00     0.044 C 
BRANCH  38  39
HETATM   39  C4  UNL     1     -10.516  24.988  16.171  1.00  0.00     0.005 C 
BRANCH  39  40
HETATM   40  C3  UNL     1     -10.582  26.473  16.315  1.00  0.00     0.000 C 
BRANCH  40  41
HETATM   41  C2  UNL     1     -10.940  27.128  15.024  1.00  0.00    -0.005 C 
HETATM   42  C1  UNL     1     -10.537  28.584  15.052  1.00  0.00     0.005 C 
ENDBRANCH  40  41
ENDBRANCH  39  40
ENDBRANCH  38  39
ENDBRANCH  37  38
ENDBRANCH  35  37
ENDBRANCH  34  35
ENDBRANCH  33  34
BRANCH  33  43
HETATM   43  O1  UNL     1     -15.104  24.763  18.761  1.00  0.00    -0.388 OA
ATOM     44  H1  UNL     1     -15.053  25.656  18.440  1.00  0.00     0.210 HD
ENDBRANCH  33  43
ENDBRANCH  32  33
ENDBRANCH  31  32
ENDBRANCH   1  31
TORSDOF 13
ENDMDL
MODEL 2
REMARK VINA RESULT: -8.613671349      0.611      1.006
REMARK  13 active torsions:
REMARK  status: ('A' for Active; 'I' for Inactive)
REMARK    1  A    between atoms: C2_2  and  C3_3 
REMARK    2  A    between atoms: C3_3  and  C4_4 
REMARK    3  A    between atoms: C4_4  and  C5_5 
REMARK    4  A    between atoms: C5_5  and  C6_6 
REMARK    5  A    between atoms: C6_6  and  N1_7 
REMARK    6  A    between atoms: N1_7  and  C8_9 
REMARK    7  A    between atoms: C8_9  and  C9_10 
REMARK    8  A    between atoms: C9_10  and  O1_11 
REMARK    9  A    between atoms: C9_10  and  C10_13 
REMARK   10  A    between atoms: C10_13  and  O2_14 
REMARK   11  A    between atoms: O2_14  and  C11_15 
REMARK   12  A    between atoms: C16_23  and  N3_24 
REMARK   13  A    between atoms: N3_24  and  C17_26 
ROOT
HETATM    1  C11 UNL     1     -15.130  21.396  19.578  1.00  0.00     0.144 A 
HETATM    2  C12 UNL     1     -16.482  21.137  19.934  1.00  0.00     0.080 A 
HETATM    3  C13 UNL     1     -17.203  20.338  19.094  1.00  0.00     0.051 A 
HETATM    4 CL1  UNL     1     -18.962  20.815  19.062  1.00  0.00    -0.083 Cl
HETATM    5  C14 UNL     1     -16.697  19.774  17.978  1.00  0.00     0.029 A 
HETATM    6  C15 UNL     1     -15.349  20.078  17.656  1.00  0.00     0.091 A 
HETATM    7  N2  UNL     1     -14.658  20.852  18.458  1.00  0.00    -0.333 N 
ATOM      8  H2  UNL     1     -13.690  21.051  18.207  1.00  0.00     0.168 HD
HETATM    9  C16 UNL     1     -14.873  19.667  16.430  1.00  0.00     0.134 A 
HETATM   10  N4  UNL     1     -15.663  19.000  15.603  1.00  0.00    -0.340 N 
ATOM     11  H4  UNL     1     -15.270  18.727  14.702  1.00  0.00     0.167 HD
HETATM   12  C23 UNL     1     -16.933  18.655  15.845  1.00  0.00     0.047 A 
HETATM   13  C24 UNL     1     -17.671  17.894  15.021  1.00  0.00     0.053 A 
HETATM   14  C25 UNL     1     -18.925  17.441  15.327  1.00  0.00     0.047 A 
HETATM   15  C26 UNL     1     -19.683  16.648  14.419  1.00  0.00     0.099 C 
HETATM   16  N5  UNL     1     -20.314  16.015  13.685  1.00  0.00    -0.191 NA
HETATM   17  C27 UNL     1     -19.414  17.796  16.563  1.00  0.00     0.030 A 
HETATM   18  C28 UNL     1     -18.694  18.596  17.480  1.00  0.00    -0.047 A 
HETATM   19  C29 UNL     1     -19.046  18.374  18.922  1.00  0.00     0.049 C 
HETATM   20  C30 UNL     1     -17.468  19.053  17.111  1.00  0.00     0.011 A 
ENDROOT
BRANCH   9  21
HETATM   21  N3  UNL     1     -13.638  19.961  16.155  1.00  0.00    -0.341 N 
ATOM     22  H3  UNL     1     -12.875  19.379  16.500  1.00  0.00     0.167 HD
BRANCH  21  23
HETATM   23  C17 UNL     1     -13.371  21.119  15.356  1.00  0.00     0.035 A 
HETATM   24  C18 UNL     1     -14.317  22.060  15.028  1.00  0.00     0.031 A 
HETATM   25  C19 UNL     1     -14.025  23.166  14.258  1.00  0.00     0.028 A 
HETATM   26  C20 UNL     1     -12.746  23.375  13.773  1.00  0.00     0.055 A 
HETATM   27 CL2  UNL     1     -12.356  24.778  12.791  1.00  0.00    -0.083 Cl
HETATM   28  C21 UNL     1     -11.787  22.438  14.094  1.00  0.00     0.058 A 
HETATM   29 CL3  UNL     1     -10.164  22.709  13.478  1.00  0.00    -0.082 Cl
HETATM   30  C22 UNL     1     -12.078  21.338  14.863  1.00  0.00     0.055 A 
ENDBRANCH  21  23
ENDBRANCH   9  21
BRANCH   1  31
HETATM   31  O2  UNL     1     -14.361  22.192  20.399  1.00  0.00    -0.333 OA
BRANCH  31  32
HETATM   32  C10 UNL     1     -14.739  23.545  20.579  1.00  0.00     0.214 C 
BRANCH  32  33
HETATM   33  C9  UNL     1     -13.895  24.462  19.719  1.00  0.00     0.180 C 
BRANCH  33  34
HETATM   34  C8  UNL     1     -12.921  23.671  18.870  1.00  0.00     0.096 C 
BRANCH  34  35
HETATM   35  N1  UNL     1     -11.722  24.341  18.588  1.00  0.00    -0.376 N 
HETATM   36  C7  UNL     1     -11.046  23.921  17.427  1.00  0.00     0.154 C 
BRANCH  35  37
HETATM   37  C6  UNL     1     -11.385  25.534  19.215  1.00  0.00     0.062 C 
BRANCH  37  38
HETATM   38  C5  UNL     1     -11.579  26.795  18.411  1.00  0.00     0.044 C 
BRANCH  38  39
HETATM   39  C4  UNL     1     -10.185  27.293  18.086  1.00  0.00     0.005 C 
BRANCH  39  40
HETATM   40  C3  UNL     1     -10.079  27.987  16.769  1.00  0.00     0.000 C 
BRANCH  40  41
HETATM   41  C2  UNL     1     -10.389  27.061  15.641  1.00  0.00    -0.005 C 
HETATM   42  C1  UNL     1     -10.906  27.842  14.456  1.00  0.00     0.005 C 
ENDBRANCH  40  41
ENDBRANCH  39  40
ENDBRANCH  38  39
ENDBRANCH  37  38
ENDBRANCH  35  37
ENDBRANCH  34  35
ENDBRANCH  33  34
BRANCH  33  43
HETATM   43  O1  UNL     1     -14.741  25.235  18.945  1.00  0.00    -0.388 OA
ATOM     44  H1  UNL     1     -14.847  26.109  19.302  1.00  0.00     0.210 HD
ENDBRANCH  33  43
ENDBRANCH  32  33
ENDBRANCH  31  32
ENDBRANCH   1  31
TORSDOF 13
ENDMDL
MODEL 3
REMARK VINA RESULT: -8.613456462      3.081      8.756
REMARK  13 active torsions:
REMARK  status: ('A' for Active; 'I' for Inactive)
REMARK    1  A    between atoms: C2_2  and  C3_3 
REMARK    2  A    between atoms: C3_3  and  C4_4 
REMARK    3  A    between atoms: C4_4  and  C5_5 
REMARK    4  A    between atoms: C5_5  and  C6_6 
REMARK    5  A    between atoms: C6_6  and  N1_7 
REMARK    6  A    between atoms: N1_7  and  C8_9 
REMARK    7  A    between atoms: C8_9  and  C9_10 
REMARK    8  A    between atoms: C9_10  and  O1_11 
REMARK    9  A    between atoms: C9_10  and  C10_13 
REMARK   10  A    between atoms: C10_13  and  O2_14 
REMARK   11  A    between atoms: O2_14  and  C11_15 
REMARK   12  A    between atoms: C16_23  and  N3_24 
REMARK   13  A    between atoms: N3_24  and  C17_26 
ROOT
HETATM    1  C11 UNL     1     -17.882  18.167  15.323  1.00  0.00     0.144 A 
HETATM    2  C12 UNL     1     -18.283  18.025  16.679  1.00  0.00     0.080 A 
HETATM    3  C13 UNL     1     -17.744  18.895  17.583  1.00  0.00     0.051 A 
HETATM    4 CL1  UNL     1     -17.532  18.117  19.218  1.00  0.00    -0.083 Cl
HETATM    5  C14 UNL     1     -16.882  19.879  17.251  1.00  0.00     0.029 A 
HETATM    6  C15 UNL     1     -16.497  19.969  15.890  1.00  0.00     0.091 A 
HETATM    7  N2  UNL     1     -17.010  19.128  15.022  1.00  0.00    -0.333 N 
ATOM      8  H2  UNL     1     -16.720  19.217  14.049  1.00  0.00     0.168 HD
HETATM    9  C16 UNL     1     -15.482  20.841  15.564  1.00  0.00     0.134 A 
HETATM   10  N4  UNL     1     -14.909  21.571  16.510  1.00  0.00    -0.340 N 
ATOM     11  H4  UNL     1     -14.154  22.194  16.223  1.00  0.00     0.167 HD
HETATM   12  C23 UNL     1     -15.233  21.562  17.808  1.00  0.00     0.047 A 
HETATM   13  C24 UNL     1     -14.695  22.388  18.718  1.00  0.00     0.053 A 
HETATM   14  C25 UNL     1     -15.116  22.460  20.019  1.00  0.00     0.047 A 
HETATM   15  C26 UNL     1     -14.508  23.339  20.960  1.00  0.00     0.099 C 
HETATM   16  N5  UNL     1     -14.015  24.039  21.737  1.00  0.00    -0.191 NA
HETATM   17  C27 UNL     1     -16.159  21.634  20.366  1.00  0.00     0.030 A 
HETATM   18  C28 UNL     1     -16.771  20.737  19.460  1.00  0.00    -0.047 A 
HETATM   19  C29 UNL     1     -18.202  20.404  19.772  1.00  0.00     0.049 C 
HETATM   20  C30 UNL     1     -16.290  20.676  18.190  1.00  0.00     0.011 A 
ENDROOT
BRANCH   9  21
HETATM   21  N3  UNL     1     -15.142  20.902  14.312  1.00  0.00    -0.341 N 
ATOM     22  H3  UNL     1     -15.725  20.473  13.594  1.00  0.00     0.167 HD
BRANCH  21  23
HETATM   23  C17 UNL     1     -13.932  21.584  13.962  1.00  0.00     0.035 A 
HETATM   24  C18 UNL     1     -12.730  20.953  13.747  1.00  0.00     0.031 A 
HETATM   25  C19 UNL     1     -11.584  21.640  13.409  1.00  0.00     0.028 A 
HETATM   26  C20 UNL     1     -11.597  23.017  13.272  1.00  0.00     0.055 A 
HETATM   27 CL2  UNL     1     -10.146  23.908  12.841  1.00  0.00    -0.083 Cl
HETATM   28  C21 UNL     1     -12.796  23.663  13.486  1.00  0.00     0.058 A 
HETATM   29 CL3  UNL     1     -12.807  25.411  13.309  1.00  0.00    -0.082 Cl
HETATM   30  C22 UNL     1     -13.938  22.977  13.821  1.00  0.00     0.055 A 
ENDBRANCH  21  23
ENDBRANCH   9  21
BRANCH   1  31
HETATM   31  O2  UNL     1     -18.405  17.316  14.375  1.00  0.00    -0.333 OA
BRANCH  31  32
HETATM   32  C10 UNL     1     -19.810  17.274  14.204  1.00  0.00     0.214 C 
BRANCH  32  33
HETATM   33  C9  UNL     1     -20.400  16.048  14.867  1.00  0.00     0.180 C 
BRANCH  33  34
HETATM   34  C8  UNL     1     -21.900  15.988  14.670  1.00  0.00     0.096 C 
BRANCH  34  35
HETATM   35  N1  UNL     1     -22.635  15.835  15.855  1.00  0.00    -0.376 N 
HETATM   36  C7  UNL     1     -24.035  15.817  15.708  1.00  0.00     0.154 C 
BRANCH  35  37
HETATM   37  C6  UNL     1     -22.037  15.416  17.037  1.00  0.00     0.062 C 
BRANCH  37  38
HETATM   38  C5  UNL     1     -22.392  16.192  18.281  1.00  0.00     0.044 C 
BRANCH  38  39
HETATM   39  C4  UNL     1     -21.079  16.721  18.822  1.00  0.00     0.005 C 
BRANCH  39  40
HETATM   40  C3  UNL     1     -21.203  18.006  19.571  1.00  0.00     0.000 C 
BRANCH  40  41
HETATM   41  C2  UNL     1     -20.716  17.866  20.974  1.00  0.00    -0.005 C 
HETATM   42  C1  UNL     1     -21.722  17.097  21.798  1.00  0.00     0.005 C 
ENDBRANCH  40  41
ENDBRANCH  39  40
ENDBRANCH  38  39
ENDBRANCH  37  38
ENDBRANCH  35  37
ENDBRANCH  34  35
ENDBRANCH  33  34
BRANCH  33  43
HETATM   43  O1  UNL     1     -19.769  14.929  14.354  1.00  0.00    -0.388 OA
ATOM     44  H1  UNL     1     -19.202  14.518  14.995  1.00  0.00     0.210 HD
ENDBRANCH  33  43
ENDBRANCH  32  33
ENDBRANCH  31  32
ENDBRANCH   1  31
TORSDOF 13
ENDMDL
MODEL 4
REMARK VINA RESULT: -8.550874347      0.989      1.292
REMARK  13 active torsions:
REMARK  status: ('A' for Active; 'I' for Inactive)
REMARK    1  A    between atoms: C2_2  and  C3_3 
REMARK    2  A    between atoms: C3_3  and  C4_4 
REMARK    3  A    between atoms: C4_4  and  C5_5 
REMARK    4  A    between atoms: C5_5  and  C6_6 
REMARK    5  A    between atoms: C6_6  and  N1_7 
REMARK    6  A    between atoms: N1_7  and  C8_9 
REMARK    7  A    between atoms: C8_9  and  C9_10 
REMARK    8  A    between atoms: C9_10  and  O1_11 
REMARK    9  A    between atoms: C9_10  and  C10_13 
REMARK   10  A    between atoms: C10_13  and  O2_14 
REMARK   11  A    between atoms: O2_14  and  C11_15 
REMARK   12  A    between atoms: C16_23  and  N3_24 
REMARK   13  A    between atoms: N3_24  and  C17_26 
ROOT
HETATM    1  C11 UNL     1     -15.148  21.468  19.648  1.00  0.00     0.144 A 
HETATM    2  C12 UNL     1     -16.501  21.181  19.977  1.00  0.00     0.080 A 
HETATM    3  C13 UNL     1     -17.193  20.374  19.121  1.00  0.00     0.051 A 
HETATM    4 CL1  UNL     1     -18.960  20.820  19.061  1.00  0.00    -0.083 Cl
HETATM    5  C14 UNL     1     -16.657  19.827  18.010  1.00  0.00     0.029 A 
HETATM    6  C15 UNL     1     -15.310  20.157  17.714  1.00  0.00     0.091 A 
HETATM    7  N2  UNL     1     -14.647  20.939  18.533  1.00  0.00    -0.333 N 
ATOM      8  H2  UNL     1     -13.679  21.157  18.299  1.00  0.00     0.168 HD
HETATM    9  C16 UNL     1     -14.805  19.762  16.495  1.00  0.00     0.134 A 
HETATM   10  N4  UNL     1     -15.568  19.087  15.649  1.00  0.00    -0.340 N 
ATOM     11  H4  UNL     1     -15.155  18.826  14.754  1.00  0.00     0.167 HD
HETATM   12  C23 UNL     1     -16.836  18.717  15.867  1.00  0.00     0.047 A 
HETATM   13  C24 UNL     1     -17.544  17.947  15.025  1.00  0.00     0.053 A 
HETATM   14  C25 UNL     1     -18.796  17.470  15.307  1.00  0.00     0.047 A 
HETATM   15  C26 UNL     1     -19.523  16.669  14.381  1.00  0.00     0.099 C 
HETATM   16  N5  UNL     1     -20.129  16.029  13.633  1.00  0.00    -0.191 NA
HETATM   17  C27 UNL     1     -19.313  17.808  16.537  1.00  0.00     0.030 A 
HETATM   18  C28 UNL     1     -18.623  18.616  17.470  1.00  0.00    -0.047 A 
HETATM   19  C29 UNL     1     -18.996  18.379  18.905  1.00  0.00     0.049 C 
HETATM   20  C30 UNL     1     -17.399  19.098  17.126  1.00  0.00     0.011 A 
ENDROOT
BRANCH   9  21
HETATM   21  N3  UNL     1     -13.571  20.081  16.242  1.00  0.00    -0.341 N 
ATOM     22  H3  UNL     1     -12.803  19.536  16.634  1.00  0.00     0.167 HD
BRANCH  21  23
HETATM   23  C17 UNL     1     -13.312  21.212  15.403  1.00  0.00     0.035 A 
HETATM   24  C18 UNL     1     -14.264  22.138  15.048  1.00  0.00     0.031 A 
HETATM   25  C19 UNL     1     -13.980  23.217  14.239  1.00  0.00     0.028 A 
HETATM   26  C20 UNL     1     -12.704  23.414  13.740  1.00  0.00     0.055 A 
HETATM   27 CL2  UNL     1     -12.325  24.784  12.708  1.00  0.00    -0.083 Cl
HETATM   28  C21 UNL     1     -11.740  22.492  14.087  1.00  0.00     0.058 A 
HETATM   29 CL3  UNL     1     -10.122  22.747  13.453  1.00  0.00    -0.082 Cl
HETATM   30  C22 UNL     1     -12.023  21.418  14.895  1.00  0.00     0.055 A 
ENDBRANCH  21  23
ENDBRANCH   9  21
BRANCH   1  31
HETATM   31  O2  UNL     1     -14.409  22.272  20.486  1.00  0.00    -0.333 OA
BRANCH  31  32
HETATM   32  C10 UNL     1     -14.920  23.548  20.827  1.00  0.00     0.214 C 
BRANCH  32  33
HETATM   33  C9  UNL     1     -14.137  24.646  20.141  1.00  0.00     0.180 C 
BRANCH  33  34
HETATM   34  C8  UNL     1     -12.660  24.315  20.090  1.00  0.00     0.096 C 
BRANCH  34  35
HETATM   35  N1  UNL     1     -11.983  24.854  18.988  1.00  0.00    -0.376 N 
HETATM   36  C7  UNL     1     -11.753  23.968  17.918  1.00  0.00     0.154 C 
BRANCH  35  37
HETATM   37  C6  UNL     1     -11.830  26.225  18.822  1.00  0.00     0.062 C 
BRANCH  37  38
HETATM   38  C5  UNL     1     -10.496  26.694  18.295  1.00  0.00     0.044 C 
BRANCH  38  39
HETATM   39  C4  UNL     1     -10.807  27.501  17.051  1.00  0.00     0.005 C 
BRANCH  39  40
HETATM   40  C3  UNL     1     -10.190  28.860  17.038  1.00  0.00     0.000 C 
BRANCH  40  41
HETATM   41  C2  UNL     1      -9.212  29.023  18.152  1.00  0.00    -0.005 C 
HETATM   42  C1  UNL     1      -8.142  30.015  17.763  1.00  0.00     0.005 C 
ENDBRANCH  40  41
ENDBRANCH  39  40
ENDBRANCH  38  39
ENDBRANCH  37  38
ENDBRANCH  35  37
ENDBRANCH  34  35
ENDBRANCH  33  34
BRANCH  33  43
HETATM   43  O1  UNL     1     -14.665  24.833  18.876  1.00  0.00    -0.388 OA
ATOM     44  H1  UNL     1     -15.607  24.960  18.902  1.00  0.00     0.210 HD
ENDBRANCH  33  43
ENDBRANCH  32  33
ENDBRANCH  31  32
ENDBRANCH   1  31
TORSDOF 13
ENDMDL
MODEL 5
REMARK VINA RESULT: -8.407608477      1.569      2.244
REMARK  13 active torsions:
REMARK  status: ('A' for Active; 'I' for Inactive)
REMARK    1  A    between atoms: C2_2  and  C3_3 
REMARK    2  A    between atoms: C3_3  and  C4_4 
REMARK    3  A    between atoms: C4_4  and  C5_5 
REMARK    4  A    between atoms: C5_5  and  C6_6 
REMARK    5  A    between atoms: C6_6  and  N1_7 
REMARK    6  A    between atoms: N1_7  and  C8_9 
REMARK    7  A    between atoms: C8_9  and  C9_10 
REMARK    8  A    between atoms: C9_10  and  O1_11 
REMARK    9  A    between atoms: C9_10  and  C10_13 
REMARK   10  A    between atoms: C10_13  and  O2_14 
REMARK   11  A    between atoms: O2_14  and  C11_15 
REMARK   12  A    between atoms: C16_23  and  N3_24 
REMARK   13  A    between atoms: N3_24  and  C17_26 
ROOT
HETATM    1  C11 UNL     1     -14.839  22.653  19.620  1.00  0.00     0.144 A 
HETATM    2  C12 UNL     1     -15.683  21.666  20.199  1.00  0.00     0.080 A 
HETATM    3  C13 UNL     1     -16.238  20.749  19.353  1.00  0.00     0.051 A 
HETATM    4 CL1  UNL     1     -17.886  20.221  19.926  1.00  0.00    -0.083 Cl
HETATM    5  C14 UNL     1     -16.009  20.722  18.023  1.00  0.00     0.029 A 
HETATM    6  C15 UNL     1     -15.176  21.739  17.491  1.00  0.00     0.091 A 
HETATM    7  N2  UNL     1     -14.648  22.624  18.303  1.00  0.00    -0.333 N 
ATOM      8  H2  UNL     1     -14.049  23.342  17.895  1.00  0.00     0.168 HD
HETATM    9  C16 UNL     1     -15.081  21.840  16.121  1.00  0.00     0.134 A 
HETATM   10  N4  UNL     1     -15.746  20.996  15.347  1.00  0.00    -0.340 N 
ATOM     11  H4  UNL     1     -15.654  21.117  14.339  1.00  0.00     0.167 HD
HETATM   12  C23 UNL     1     -16.529  19.998  15.773  1.00  0.00     0.047 A 
HETATM   13  C24 UNL     1     -17.108  19.102  14.958  1.00  0.00     0.053 A 
HETATM   14  C25 UNL     1     -17.806  18.012  15.403  1.00  0.00     0.047 A 
HETATM   15  C26 UNL     1     -18.420  17.093  14.506  1.00  0.00     0.099 C 
HETATM   16  N5  UNL     1     -18.935  16.347  13.788  1.00  0.00    -0.191 NA
HETATM   17  C27 UNL     1     -17.883  17.856  16.768  1.00  0.00     0.030 A 
HETATM   18  C28 UNL     1     -17.299  18.761  17.684  1.00  0.00    -0.047 A 
HETATM   19  C29 UNL     1     -16.930  18.163  19.012  1.00  0.00     0.049 C 
HETATM   20  C30 UNL     1     -16.650  19.849  17.191  1.00  0.00     0.011 A 
ENDROOT
BRANCH   9  21
HETATM   21  N3  UNL     1     -14.317  22.782  15.656  1.00  0.00    -0.341 N 
ATOM     22  H3  UNL     1     -14.582  23.762  15.753  1.00  0.00     0.167 HD
BRANCH  21  23
HETATM   23  C17 UNL     1     -13.095  22.416  15.004  1.00  0.00     0.035 A 
HETATM   24  C18 UNL     1     -13.010  22.050  13.682  1.00  0.00     0.031 A 
HETATM   25  C19 UNL     1     -11.817  21.704  13.086  1.00  0.00     0.028 A 
HETATM   26  C20 UNL     1     -10.635  21.711  13.806  1.00  0.00     0.055 A 
HETATM   27 CL2  UNL     1      -9.105  21.274  13.062  1.00  0.00    -0.083 Cl
HETATM   28  C21 UNL     1     -10.706  22.076  15.134  1.00  0.00     0.058 A 
HETATM   29 CL3  UNL     1      -9.203  22.084  16.044  1.00  0.00    -0.082 Cl
HETATM   30  C22 UNL     1     -11.896  22.421  15.727  1.00  0.00     0.055 A 
ENDBRANCH  21  23
ENDBRANCH   9  21
BRANCH   1  31
HETATM   31  O2  UNL     1     -14.251  23.595  20.435  1.00  0.00    -0.333 OA
BRANCH  31  32
HETATM   32  C10 UNL     1     -13.826  24.818  19.861  1.00  0.00     0.214 C 
BRANCH  32  33
HETATM   33  C9  UNL     1     -12.318  24.935  19.893  1.00  0.00     0.180 C 
BRANCH  33  34
HETATM   34  C8  UNL     1     -11.864  26.292  19.396  1.00  0.00     0.096 C 
BRANCH  34  35
HETATM   35  N1  UNL     1     -11.053  26.250  18.253  1.00  0.00    -0.376 N 
HETATM   36  C7  UNL     1     -10.666  24.966  17.825  1.00  0.00     0.154 C 
BRANCH  35  37
HETATM   37  C6  UNL     1     -10.903  27.352  17.422  1.00  0.00     0.062 C 
BRANCH  37  38
HETATM   38  C5  UNL     1     -10.040  27.159  16.198  1.00  0.00     0.044 C 
BRANCH  38  39
HETATM   39  C4  UNL     1     -10.693  27.978  15.103  1.00  0.00     0.005 C 
BRANCH  39  40
HETATM   40  C3  UNL     1     -11.291  27.160  14.007  1.00  0.00     0.000 C 
BRANCH  40  41
HETATM   41  C2  UNL     1     -10.929  25.720  14.145  1.00  0.00    -0.005 C 
HETATM   42  C1  UNL     1     -10.379  25.196  12.840  1.00  0.00     0.005 C 
ENDBRANCH  40  41
ENDBRANCH  39  40
ENDBRANCH  38  39
ENDBRANCH  37  38
ENDBRANCH  35  37
ENDBRANCH  34  35
ENDBRANCH  33  34
BRANCH  33  43
HETATM   43  O1  UNL     1     -11.888  24.691  21.184  1.00  0.00    -0.388 OA
ATOM     44  H1  UNL     1     -12.598  24.397  21.743  1.00  0.00     0.210 HD
ENDBRANCH  33  43
ENDBRANCH  32  33
ENDBRANCH  31  32
ENDBRANCH   1  31
TORSDOF 13
ENDMDL
