MODEL 1
REMARK VINA RESULT: -9.630553218      0.000      0.000
REMARK  12 active torsions:
REMARK  status: ('A' for Active; 'I' for Inactive)
REMARK    1  A    between atoms: O1_2  and  C2_3 
REMARK    2  A    between atoms: C4_5  and  C5_6 
REMARK    3  A    between atoms: C5_6  and  N1_7 
REMARK    4  A    between atoms: N1_7  and  C7_9 
REMARK    5  A    between atoms: C7_9  and  C8_10 
REMARK    6  A    between atoms: C8_10  and  O2_11 
REMARK    7  A    between atoms: C8_10  and  C9_13 
REMARK    8  A    between atoms: C9_13  and  S1_14 
REMARK    9  A    between atoms: S1_14  and  C10_15 
REMARK   10  A    between atoms: C15_21  and  N2_22 
REMARK       I    between atoms: N2_22  and  C16_24 
REMARK   11  A    between atoms: C16_24  and  C17_26 
REMARK   12  A    between atoms: C27_38  and  O4_39 
ROOT
HETATM    1  C10 UNL     1     -18.939  18.208  16.058  1.00  0.00     0.027 A 
HETATM    2  C11 UNL     1     -18.086  17.870  15.028  1.00  0.00     0.022 A 
HETATM    3  C12 UNL     1     -18.460  16.948  14.083  1.00  0.00     0.025 A 
HETATM    4  C13 UNL     1     -19.703  16.356  14.166  1.00  0.00     0.036 A 
HETATM    5 CL1  UNL     1     -20.220  15.178  12.985  1.00  0.00    -0.084 Cl
HETATM    6  C14 UNL     1     -20.590  16.679  15.197  1.00  0.00     0.054 A 
HETATM    7  C15 UNL     1     -20.199  17.594  16.123  1.00  0.00     0.053 A 
ENDROOT
BRANCH   1   8
HETATM    8  S1  UNL     1     -18.464  19.404  17.289  1.00  0.00    -0.125 SA
BRANCH   8   9
HETATM    9  C9  UNL     1     -17.036  18.844  18.228  1.00  0.00     0.113 C 
BRANCH   9  10
HETATM   10  C8  UNL     1     -15.711  19.150  17.599  1.00  0.00     0.145 C 
BRANCH  10  11
HETATM   11  C7  UNL     1     -15.847  20.312  16.598  1.00  0.00     0.154 C 
BRANCH  11  12
HETATM   12  N1  UNL     1     -14.544  20.820  16.350  1.00  0.00    -0.391 N 
HETATM   13  C6  UNL     1     -13.746  20.085  15.440  1.00  0.00     0.148 C 
BRANCH  12  14
HETATM   14  C5  UNL     1     -14.402  22.222  16.342  1.00  0.00     0.096 C 
BRANCH  14  15
HETATM   15  C4  UNL     1     -13.847  22.864  17.522  1.00  0.00    -0.017 A 
HETATM   16  C3  UNL     1     -12.581  23.441  17.375  1.00  0.00     0.052 A 
HETATM   17  C2  UNL     1     -11.935  24.081  18.392  1.00  0.00     0.104 A 
HETATM   18  C27 UNL     1     -12.550  24.172  19.638  1.00  0.00     0.123 A 
HETATM   19  C26 UNL     1     -13.788  23.609  19.785  1.00  0.00     0.071 A 
HETATM   20  C25 UNL     1     -14.437  22.966  18.761  1.00  0.00     0.039 A 
HETATM   21 CL3  UNL     1     -14.592  23.707  21.346  1.00  0.00    -0.081 Cl
BRANCH  17  22
HETATM   22  O1  UNL     1     -10.682  24.667  18.295  1.00  0.00    -0.353 OA
HETATM   23  C1  UNL     1     -10.399  25.876  17.653  1.00  0.00     0.210 C 
ENDBRANCH  17  22
BRANCH  18  24
HETATM   24  O4  UNL     1     -11.966  24.801  20.717  1.00  0.00    -0.351 OA
HETATM   25  C28 UNL     1     -12.184  26.171  20.939  1.00  0.00     0.210 C 
ENDBRANCH  18  24
ENDBRANCH  14  15
ENDBRANCH  12  14
ENDBRANCH  11  12
ENDBRANCH  10  11
BRANCH  10  26
HETATM   26  O2  UNL     1     -14.800  19.512  18.591  1.00  0.00    -0.393 OA
ATOM     27  H2  UNL     1     -15.126  19.215  19.433  1.00  0.00     0.210 HD
ENDBRANCH  10  26
ENDBRANCH   9  10
ENDBRANCH   8   9
ENDBRANCH   1   8
BRANCH   7  28
HETATM   28  N2  UNL     1     -21.029  17.978  17.195  1.00  0.00    -0.322 N 
HETATM   29  C16 UNL     1     -21.292  17.329  18.404  1.00  0.00     0.258 C 
HETATM   30  O3  UNL     1     -20.717  16.226  18.659  1.00  0.00    -0.267 OA
ATOM     31  H2  UNL     1     -21.512  18.868  17.069  1.00  0.00     0.169 HD
BRANCH  29  32
HETATM   32  C17 UNL     1     -22.186  17.779  19.473  1.00  0.00     0.059 A 
HETATM   33  C18 UNL     1     -21.860  18.602  20.497  1.00  0.00    -0.044 A 
HETATM   34  C19 UNL     1     -20.542  19.290  20.582  1.00  0.00     0.049 C 
HETATM   35  C20 UNL     1     -22.804  18.886  21.505  1.00  0.00     0.014 A 
HETATM   36  C21 UNL     1     -24.064  18.364  21.501  1.00  0.00    -0.060 A 
HETATM   37  C22 UNL     1     -25.037  18.693  22.596  1.00  0.00     0.048 C 
HETATM   38  C23 UNL     1     -24.411  17.529  20.466  1.00  0.00     0.031 A 
HETATM   39  C24 UNL     1     -23.499  17.253  19.494  1.00  0.00     0.050 A 
HETATM   40 CL2  UNL     1     -23.978  16.184  18.192  1.00  0.00    -0.083 Cl
ENDBRANCH  29  32
ENDBRANCH   7  28
TORSDOF 12
ENDMDL
MODEL 2
REMARK VINA RESULT: -9.569910438      3.402      6.021
REMARK  12 active torsions:
REMARK  status: ('A' for Active; 'I' for Inactive)
REMARK    1  A    between atoms: O1_2  and  C2_3 
REMARK    2  A    between atoms: C4_5  and  C5_6 
REMARK    3  A    between atoms: C5_6  and  N1_7 
REMARK    4  A    between atoms: N1_7  and  C7_9 
REMARK    5  A    between atoms: C7_9  and  C8_10 
REMARK    6  A    between atoms: C8_10  and  O2_11 
REMARK    7  A    between atoms: C8_10  and  C9_13 
REMARK    8  A    between atoms: C9_13  and  S1_14 
REMARK    9  A    between atoms: S1_14  and  C10_15 
REMARK   10  A    between atoms: C15_21  and  N2_22 
REMARK       I    between atoms: N2_22  and  C16_24 
REMARK   11  A    between atoms: C16_24  and  C17_26 
REMARK   12  A    between atoms: C27_38  and  O4_39 
ROOT
HETATM    1  C10 UNL     1     -14.518  21.645  17.423  1.00  0.00     0.027 A 
HETATM    2  C11 UNL     1     -13.635  22.683  17.633  1.00  0.00     0.022 A 
HETATM    3  C12 UNL     1     -13.709  23.447  18.771  1.00  0.00     0.025 A 
HETATM    4  C13 UNL     1     -14.677  23.170  19.713  1.00  0.00     0.036 A 
HETATM    5 CL1  UNL     1     -14.808  24.115  21.175  1.00  0.00    -0.084 Cl
HETATM    6  C14 UNL     1     -15.587  22.124  19.528  1.00  0.00     0.054 A 
HETATM    7  C15 UNL     1     -15.496  21.381  18.394  1.00  0.00     0.053 A 
ENDROOT
BRANCH   1   8
HETATM    8  S1  UNL     1     -14.430  20.648  15.951  1.00  0.00    -0.125 SA
BRANCH   8   9
HETATM    9  C9  UNL     1     -14.609  21.652  14.469  1.00  0.00     0.113 C 
BRANCH   9  10
HETATM   10  C8  UNL     1     -13.328  21.932  13.742  1.00  0.00     0.145 C 
BRANCH  10  11
HETATM   11  C7  UNL     1     -12.124  21.440  14.565  1.00  0.00     0.154 C 
BRANCH  11  12
HETATM   12  N1  UNL     1     -11.069  22.375  14.384  1.00  0.00    -0.391 N 
HETATM   13  C6  UNL     1      -9.872  21.868  13.826  1.00  0.00     0.148 C 
BRANCH  12  14
HETATM   14  C5  UNL     1     -11.440  23.686  14.029  1.00  0.00     0.096 C 
BRANCH  14  15
HETATM   15  C4  UNL     1     -11.230  24.748  14.999  1.00  0.00    -0.017 A 
HETATM   16  C3  UNL     1     -11.214  26.053  14.495  1.00  0.00     0.052 A 
HETATM   17  C2  UNL     1     -11.030  27.151  15.285  1.00  0.00     0.104 A 
HETATM   18  C27 UNL     1     -10.850  26.981  16.654  1.00  0.00     0.123 A 
HETATM   19  C26 UNL     1     -10.865  25.706  17.151  1.00  0.00     0.071 A 
HETATM   20  C25 UNL     1     -11.050  24.603  16.355  1.00  0.00     0.039 A 
HETATM   21 CL3  UNL     1     -10.640  25.458  18.876  1.00  0.00    -0.081 Cl
BRANCH  17  22
HETATM   22  O1  UNL     1     -11.005  28.461  14.832  1.00  0.00    -0.353 OA
HETATM   23  C1  UNL     1      -9.963  29.051  14.111  1.00  0.00     0.210 C 
ENDBRANCH  17  22
BRANCH  18  24
HETATM   24  O4  UNL     1     -10.657  28.036  17.521  1.00  0.00    -0.351 OA
HETATM   25  C28 UNL     1      -9.358  28.492  17.801  1.00  0.00     0.210 C 
ENDBRANCH  18  24
ENDBRANCH  14  15
ENDBRANCH  12  14
ENDBRANCH  11  12
ENDBRANCH  10  11
BRANCH  10  26
HETATM   26  O2  UNL     1     -13.338  21.269  12.514  1.00  0.00    -0.393 OA
ATOM     27  H2  UNL     1     -13.947  21.708  11.932  1.00  0.00     0.210 HD
ENDBRANCH  10  26
ENDBRANCH   9  10
ENDBRANCH   8   9
ENDBRANCH   1   8
BRANCH   7  28
HETATM   28  N2  UNL     1     -16.371  20.308  18.127  1.00  0.00    -0.322 N 
HETATM   29  C16 UNL     1     -17.618  20.303  17.497  1.00  0.00     0.258 C 
HETATM   30  O3  UNL     1     -18.096  21.391  17.050  1.00  0.00    -0.267 OA
ATOM     31  H2  UNL     1     -16.043  19.396  18.443  1.00  0.00     0.169 HD
BRANCH  29  32
HETATM   32  C17 UNL     1     -18.487  19.147  17.268  1.00  0.00     0.059 A 
HETATM   33  C18 UNL     1     -18.450  18.315  16.201  1.00  0.00    -0.044 A 
HETATM   34  C19 UNL     1     -17.385  18.392  15.163  1.00  0.00     0.049 C 
HETATM   35  C20 UNL     1     -19.407  17.288  16.071  1.00  0.00     0.014 A 
HETATM   36  C21 UNL     1     -20.393  17.080  16.990  1.00  0.00    -0.060 A 
HETATM   37  C22 UNL     1     -21.391  15.973  16.811  1.00  0.00     0.048 C 
HETATM   38  C23 UNL     1     -20.442  17.914  18.081  1.00  0.00     0.031 A 
HETATM   39  C24 UNL     1     -19.519  18.908  18.206  1.00  0.00     0.050 A 
HETATM   40 CL2  UNL     1     -19.615  19.952  19.608  1.00  0.00    -0.083 Cl
ENDBRANCH  29  32
ENDBRANCH   7  28
TORSDOF 12
ENDMDL
MODEL 3
REMARK VINA RESULT: -9.467081444      1.179      1.639
REMARK  12 active torsions:
REMARK  status: ('A' for Active; 'I' for Inactive)
REMARK    1  A    between atoms: O1_2  and  C2_3 
REMARK    2  A    between atoms: C4_5  and  C5_6 
REMARK    3  A    between atoms: C5_6  and  N1_7 
REMARK    4  A    between atoms: N1_7  and  C7_9 
REMARK    5  A    between atoms: C7_9  and  C8_10 
REMARK    6  A    between atoms: C8_10  and  O2_11 
REMARK    7  A    between atoms: C8_10  and  C9_13 
REMARK    8  A    between atoms: C9_13  and  S1_14 
REMARK    9  A    between atoms: S1_14  and  C10_15 
REMARK   10  A    between atoms: C15_21  and  N2_22 
REMARK       I    between atoms: N2_22  and  C16_24 
REMARK   11  A    between atoms: C16_24  and  C17_26 
REMARK   12  A    between atoms: C27_38  and  O4_39 
ROOT
HETATM    1  C10 UNL     1     -19.095  18.046  16.323  1.00  0.00     0.027 A 
HETATM    2  C11 UNL     1     -18.167  17.853  15.321  1.00  0.00     0.022 A 
HETATM    3  C12 UNL     1     -18.438  17.018  14.267  1.00  0.00     0.025 A 
HETATM    4  C13 UNL     1     -19.651  16.367  14.210  1.00  0.00     0.036 A 
HETATM    5 CL1  UNL     1     -20.038  15.296  12.887  1.00  0.00    -0.084 Cl
HETATM    6  C14 UNL     1     -20.613  16.542  15.210  1.00  0.00     0.054 A 
HETATM    7  C15 UNL     1     -20.324  17.373  16.245  1.00  0.00     0.053 A 
ENDROOT
BRANCH   1   8
HETATM    8  S1  UNL     1     -18.754  19.128  17.695  1.00  0.00    -0.125 SA
BRANCH   8   9
HETATM    9  C9  UNL     1     -17.006  19.539  17.787  1.00  0.00     0.113 C 
BRANCH   9  10
HETATM   10  C8  UNL     1     -16.644  20.877  17.218  1.00  0.00     0.145 C 
BRANCH  10  11
HETATM   11  C7  UNL     1     -15.921  20.711  15.870  1.00  0.00     0.154 C 
BRANCH  11  12
HETATM   12  N1  UNL     1     -14.538  20.951  16.091  1.00  0.00    -0.391 N 
HETATM   13  C6  UNL     1     -13.644  19.979  15.585  1.00  0.00     0.148 C 
BRANCH  12  14
HETATM   14  C5  UNL     1     -14.116  22.295  16.054  1.00  0.00     0.096 C 
BRANCH  14  15
HETATM   15  C4  UNL     1     -13.647  22.903  17.289  1.00  0.00    -0.017 A 
HETATM   16  C3  UNL     1     -12.399  23.532  17.233  1.00  0.00     0.052 A 
HETATM   17  C2  UNL     1     -11.831  24.149  18.310  1.00  0.00     0.104 A 
HETATM   18  C27 UNL     1     -12.512  24.161  19.524  1.00  0.00     0.123 A 
HETATM   19  C26 UNL     1     -13.733  23.547  19.582  1.00  0.00     0.071 A 
HETATM   20  C25 UNL     1     -14.302  22.928  18.498  1.00  0.00     0.039 A 
HETATM   21 CL3  UNL     1     -14.618  23.545  21.101  1.00  0.00    -0.081 Cl
BRANCH  17  22
HETATM   22  O1  UNL     1     -10.598  24.784  18.305  1.00  0.00    -0.353 OA
HETATM   23  C1  UNL     1     -10.331  26.033  17.736  1.00  0.00     0.210 C 
ENDBRANCH  17  22
BRANCH  18  24
HETATM   24  O4  UNL     1     -12.009  24.761  20.660  1.00  0.00    -0.351 OA
HETATM   25  C28 UNL     1     -12.261  26.120  20.911  1.00  0.00     0.210 C 
ENDBRANCH  18  24
ENDBRANCH  14  15
ENDBRANCH  12  14
ENDBRANCH  11  12
ENDBRANCH  10  11
BRANCH  10  26
HETATM   26  O2  UNL     1     -17.805  21.625  17.020  1.00  0.00    -0.393 OA
ATOM     27  H2  UNL     1     -17.658  22.511  17.327  1.00  0.00     0.210 HD
ENDBRANCH  10  26
ENDBRANCH   9  10
ENDBRANCH   8   9
ENDBRANCH   1   8
BRANCH   7  28
HETATM   28  N2  UNL     1     -21.235  17.609  17.296  1.00  0.00    -0.322 N 
HETATM   29  C16 UNL     1     -21.636  16.771  18.340  1.00  0.00     0.258 C 
HETATM   30  O3  UNL     1     -21.133  15.610  18.438  1.00  0.00    -0.267 OA
ATOM     31  H2  UNL     1     -21.666  18.532  17.293  1.00  0.00     0.169 HD
BRANCH  29  32
HETATM   32  C17 UNL     1     -22.607  17.075  19.393  1.00  0.00     0.059 A 
HETATM   33  C18 UNL     1     -23.952  16.947  19.305  1.00  0.00    -0.044 A 
HETATM   34  C19 UNL     1     -24.621  16.320  18.131  1.00  0.00     0.049 C 
HETATM   35  C20 UNL     1     -24.773  17.358  20.374  1.00  0.00     0.014 A 
HETATM   36  C21 UNL     1     -24.271  17.888  21.526  1.00  0.00    -0.060 A 
HETATM   37  C22 UNL     1     -25.184  18.313  22.640  1.00  0.00     0.048 C 
HETATM   38  C23 UNL     1     -22.907  18.022  21.632  1.00  0.00     0.031 A 
HETATM   39  C24 UNL     1     -22.114  17.627  20.599  1.00  0.00     0.050 A 
HETATM   40 CL2  UNL     1     -20.381  17.814  20.770  1.00  0.00    -0.083 Cl
ENDBRANCH  29  32
ENDBRANCH   7  28
TORSDOF 12
ENDMDL
MODEL 4
REMARK VINA RESULT: -9.398798031      3.202      5.984
REMARK  12 active torsions:
REMARK  status: ('A' for Active; 'I' for Inactive)
REMARK    1  A    between atoms: O1_2  and  C2_3 
REMARK    2  A    between atoms: C4_5  and  C5_6 
REMARK    3  A    between atoms: C5_6  and  N1_7 
REMARK    4  A    between atoms: N1_7  and  C7_9 
REMARK    5  A    between atoms: C7_9  and  C8_10 
REMARK    6  A    between atoms: C8_10  and  O2_11 
REMARK    7  A    between atoms: C8_10  and  C9_13 
REMARK    8  A    between atoms: C9_13  and  S1_14 
REMARK    9  A    between atoms: S1_14  and  C10_15 
REMARK   10  A    between atoms: C15_21  and  N2_22 
REMARK       I    between atoms: N2_22  and  C16_24 
REMARK   11  A    between atoms: C16_24  and  C17_26 
REMARK   12  A    between atoms: C27_38  and  O4_39 
ROOT
HETATM    1  C10 UNL     1     -14.647  21.563  17.397  1.00  0.00     0.027 A 
HETATM    2  C11 UNL     1     -13.768  22.606  17.604  1.00  0.00     0.022 A 
HETATM    3  C12 UNL     1     -13.843  23.369  18.741  1.00  0.00     0.025 A 
HETATM    4  C13 UNL     1     -14.807  23.089  19.686  1.00  0.00     0.036 A 
HETATM    5 CL1  UNL     1     -14.938  24.035  21.148  1.00  0.00    -0.084 Cl
HETATM    6  C14 UNL     1     -15.712  22.038  19.505  1.00  0.00     0.054 A 
HETATM    7  C15 UNL     1     -15.620  21.295  18.372  1.00  0.00     0.053 A 
ENDROOT
BRANCH   1   8
HETATM    8  S1  UNL     1     -14.559  20.565  15.925  1.00  0.00    -0.125 SA
BRANCH   8   9
HETATM    9  C9  UNL     1     -14.670  21.576  14.441  1.00  0.00     0.113 C 
BRANCH   9  10
HETATM   10  C8  UNL     1     -13.357  21.879  13.787  1.00  0.00     0.145 C 
BRANCH  10  11
HETATM   11  C7  UNL     1     -12.192  21.441  14.693  1.00  0.00     0.154 C 
BRANCH  11  12
HETATM   12  N1  UNL     1     -11.188  22.443  14.617  1.00  0.00    -0.391 N 
HETATM   13  C6  UNL     1      -9.908  22.018  14.186  1.00  0.00     0.148 C 
BRANCH  12  14
HETATM   14  C5  UNL     1     -11.606  23.728  14.221  1.00  0.00     0.096 C 
BRANCH  14  15
HETATM   15  C4  UNL     1     -11.264  24.856  15.072  1.00  0.00    -0.017 A 
HETATM   16  C3  UNL     1     -11.034  24.565  16.421  1.00  0.00     0.052 A 
HETATM   17  C2  UNL     1     -10.702  25.519  17.339  1.00  0.00     0.104 A 
HETATM   18  C27 UNL     1     -10.582  26.844  16.929  1.00  0.00     0.123 A 
HETATM   19  C26 UNL     1     -10.806  27.132  15.611  1.00  0.00     0.071 A 
HETATM   20  C25 UNL     1     -11.140  26.172  14.689  1.00  0.00     0.039 A 
HETATM   21 CL3  UNL     1     -10.662  28.796  15.062  1.00  0.00    -0.081 Cl
BRANCH  17  22
HETATM   22  O1  UNL     1     -10.466  25.281  18.684  1.00  0.00    -0.353 OA
HETATM   23  C1  UNL     1     -11.391  25.466  19.716  1.00  0.00     0.210 C 
ENDBRANCH  17  22
BRANCH  18  24
HETATM   24  O4  UNL     1     -10.250  27.868  17.792  1.00  0.00    -0.351 OA
HETATM   25  C28 UNL     1      -8.908  28.252  17.950  1.00  0.00     0.210 C 
ENDBRANCH  18  24
ENDBRANCH  14  15
ENDBRANCH  12  14
ENDBRANCH  11  12
ENDBRANCH  10  11
BRANCH  10  26
HETATM   26  O2  UNL     1     -13.273  21.191  12.577  1.00  0.00    -0.393 OA
ATOM     27  H2  UNL     1     -13.233  21.820  11.866  1.00  0.00     0.210 HD
ENDBRANCH  10  26
ENDBRANCH   9  10
ENDBRANCH   8   9
ENDBRANCH   1   8
BRANCH   7  28
HETATM   28  N2  UNL     1     -16.491  20.217  18.108  1.00  0.00    -0.322 N 
HETATM   29  C16 UNL     1     -17.741  20.205  17.484  1.00  0.00     0.258 C 
HETATM   30  O3  UNL     1     -18.226  21.290  17.039  1.00  0.00    -0.267 OA
ATOM     31  H2  UNL     1     -16.156  19.306  18.422  1.00  0.00     0.169 HD
BRANCH  29  32
HETATM   32  C17 UNL     1     -18.604  19.045  17.258  1.00  0.00     0.059 A 
HETATM   33  C18 UNL     1     -18.574  18.218  16.187  1.00  0.00    -0.044 A 
HETATM   34  C19 UNL     1     -17.520  18.307  15.138  1.00  0.00     0.049 C 
HETATM   35  C20 UNL     1     -19.525  17.185  16.062  1.00  0.00     0.014 A 
HETATM   36  C21 UNL     1     -20.499  16.966  16.991  1.00  0.00    -0.060 A 
HETATM   37  C22 UNL     1     -21.492  15.854  16.817  1.00  0.00     0.048 C 
HETATM   38  C23 UNL     1     -20.542  17.795  18.086  1.00  0.00     0.031 A 
HETATM   39  C24 UNL     1     -19.625  18.794  18.206  1.00  0.00     0.050 A 
HETATM   40 CL2  UNL     1     -19.712  19.830  19.614  1.00  0.00    -0.083 Cl
ENDBRANCH  29  32
ENDBRANCH   7  28
TORSDOF 12
ENDMDL
MODEL 5
REMARK VINA RESULT: -9.273470192      1.235      1.722
REMARK  12 active torsions:
REMARK  status: ('A' for Active; 'I' for Inactive)
REMARK    1  A    between atoms: O1_2  and  C2_3 
REMARK    2  A    between atoms: C4_5  and  C5_6 
REMARK    3  A    between atoms: C5_6  and  N1_7 
REMARK    4  A    between atoms: N1_7  and  C7_9 
REMARK    5  A    between atoms: C7_9  and  C8_10 
REMARK    6  A    between atoms: C8_10  and  O2_11 
REMARK    7  A    between atoms: C8_10  and  C9_13 
REMARK    8  A    between atoms: C9_13  and  S1_14 
REMARK    9  A    between atoms: S1_14  and  C10_15 
REMARK   10  A    between atoms: C15_21  and  N2_22 
REMARK       I    between atoms: N2_22  and  C16_24 
REMARK   11  A    between atoms: C16_24  and  C17_26 
REMARK   12  A    between atoms: C27_38  and  O4_39 
ROOT
HETATM    1  C10 UNL     1     -18.880  17.880  15.778  1.00  0.00     0.027 A 
HETATM    2  C11 UNL     1     -18.088  17.496  14.717  1.00  0.00     0.022 A 
HETATM    3  C12 UNL     1     -18.563  16.631  13.764  1.00  0.00     0.025 A 
HETATM    4  C13 UNL     1     -19.848  16.143  13.870  1.00  0.00     0.036 A 
HETATM    5 CL1  UNL     1     -20.495  15.041  12.680  1.00  0.00    -0.084 Cl
HETATM    6  C14 UNL     1     -20.677  16.514  14.934  1.00  0.00     0.054 A 
HETATM    7  C15 UNL     1     -20.186  17.371  15.867  1.00  0.00     0.053 A 
ENDROOT
BRANCH   1   8
HETATM    8  S1  UNL     1     -18.274  19.002  17.020  1.00  0.00    -0.125 SA
BRANCH   8   9
HETATM    9  C9  UNL     1     -16.637  19.619  16.601  1.00  0.00     0.113 C 
BRANCH   9  10
HETATM   10  C8  UNL     1     -15.817  20.071  17.771  1.00  0.00     0.145 C 
BRANCH  10  11
HETATM   11  C7  UNL     1     -16.717  20.706  18.846  1.00  0.00     0.154 C 
BRANCH  11  12
HETATM   12  N1  UNL     1     -16.017  21.814  19.393  1.00  0.00    -0.391 N 
HETATM   13  C6  UNL     1     -15.122  21.530  20.452  1.00  0.00     0.148 C 
BRANCH  12  14
HETATM   14  C5  UNL     1     -15.648  22.835  18.495  1.00  0.00     0.096 C 
BRANCH  14  15
HETATM   15  C4  UNL     1     -14.360  23.483  18.682  1.00  0.00    -0.017 A 
HETATM   16  C3  UNL     1     -13.363  23.155  17.757  1.00  0.00     0.052 A 
HETATM   17  C2  UNL     1     -12.106  23.686  17.803  1.00  0.00     0.104 A 
HETATM   18  C27 UNL     1     -11.788  24.595  18.807  1.00  0.00     0.123 A 
HETATM   19  C26 UNL     1     -12.761  24.918  19.713  1.00  0.00     0.071 A 
HETATM   20  C25 UNL     1     -14.024  24.384  19.665  1.00  0.00     0.039 A 
HETATM   21 CL3  UNL     1     -12.391  26.064  20.994  1.00  0.00    -0.081 Cl
BRANCH  17  22
HETATM   22  O1  UNL     1     -11.085  23.391  16.911  1.00  0.00    -0.353 OA
HETATM   23  C1  UNL     1     -11.157  23.528  15.522  1.00  0.00     0.210 C 
ENDBRANCH  17  22
BRANCH  18  24
HETATM   24  O4  UNL     1     -10.543  25.177  18.924  1.00  0.00    -0.351 OA
HETATM   25  C28 UNL     1     -10.285  26.420  18.324  1.00  0.00     0.210 C 
ENDBRANCH  18  24
ENDBRANCH  14  15
ENDBRANCH  12  14
ENDBRANCH  11  12
ENDBRANCH  10  11
BRANCH  10  26
HETATM   26  O2  UNL     1     -15.157  18.973  18.325  1.00  0.00    -0.393 OA
ATOM     27  H2  UNL     1     -14.476  18.689  17.727  1.00  0.00     0.210 HD
ENDBRANCH  10  26
ENDBRANCH   9  10
ENDBRANCH   8   9
ENDBRANCH   1   8
BRANCH   7  28
HETATM   28  N2  UNL     1     -20.951  17.798  16.971  1.00  0.00    -0.322 N 
HETATM   29  C16 UNL     1     -21.234  17.145  18.173  1.00  0.00     0.258 C 
HETATM   30  O3  UNL     1     -20.746  15.992  18.387  1.00  0.00    -0.267 OA
ATOM     31  H2  UNL     1     -21.361  18.727  16.878  1.00  0.00     0.169 HD
BRANCH  29  32
HETATM   32  C17 UNL     1     -22.057  17.642  19.277  1.00  0.00     0.059 A 
HETATM   33  C18 UNL     1     -21.643  18.438  20.291  1.00  0.00    -0.044 A 
HETATM   34  C19 UNL     1     -20.283  19.043  20.328  1.00  0.00     0.049 C 
HETATM   35  C20 UNL     1     -22.528  18.773  21.336  1.00  0.00     0.014 A 
HETATM   36  C21 UNL     1     -23.818  18.329  21.378  1.00  0.00    -0.060 A 
HETATM   37  C22 UNL     1     -24.726  18.711  22.510  1.00  0.00     0.048 C 
HETATM   38  C23 UNL     1     -24.255  17.524  20.353  1.00  0.00     0.031 A 
HETATM   39  C24 UNL     1     -23.399  17.198  19.346  1.00  0.00     0.050 A 
HETATM   40 CL2  UNL     1     -23.991  16.168  18.060  1.00  0.00    -0.083 Cl
ENDBRANCH  29  32
ENDBRANCH   7  28
TORSDOF 12
ENDMDL
