MODEL 1
REMARK VINA RESULT: -7.332880554      0.000      0.000
REMARK  12 active torsions:
REMARK  status: ('A' for Active; 'I' for Inactive)
REMARK    1  A    between atoms: C2_2  and  C3_3 
REMARK    2  A    between atoms: C3_3  and  C4_4 
REMARK    3  A    between atoms: C4_4  and  C5_5 
REMARK    4  A    between atoms: C5_5  and  C6_6 
REMARK    5  A    between atoms: C6_6  and  C7_7 
REMARK    6  A    between atoms: C7_7  and  O1_8 
REMARK    7  A    between atoms: O1_8  and  C8_9 
REMARK    8  A    between atoms: C9_10  and  C10_11 
REMARK    9  A    between atoms: N1_13  and  N2_15 
REMARK       I    between atoms: N2_15  and  C12_17 
REMARK   10  A    between atoms: C12_17  and  C13_19 
REMARK   11  A    between atoms: C18_26  and  O3_27 
REMARK   12  A    between atoms: C23_34  and  O4_35 
ROOT
HETATM    1  C8  UNL     1     -13.772  22.978  17.288  1.00  0.00     0.114 A 
HETATM    2  C9  UNL     1     -14.339  23.350  18.460  1.00  0.00     0.025 A 
HETATM    3  C19 UNL     1     -15.556  22.744  18.790  1.00  0.00     0.041 A 
HETATM    4  C20 UNL     1     -16.145  21.802  17.948  1.00  0.00     0.043 A 
HETATM    5 CL1  UNL     1     -17.675  21.091  18.443  1.00  0.00    -0.084 Cl
HETATM    6  C21 UNL     1     -15.538  21.451  16.777  1.00  0.00    -0.004 A 
HETATM    7  C22 UNL     1     -16.174  20.450  15.894  1.00  0.00     0.053 C 
HETATM    8  C23 UNL     1     -14.341  22.036  16.432  1.00  0.00     0.110 A 
ENDROOT
BRANCH   2   9
HETATM    9  C10 UNL     1     -13.738  24.195  19.459  1.00  0.00     0.035 C 
HETATM   10  C11 UNL     1     -14.024  23.964  20.943  1.00  0.00     0.070 C 
HETATM   11  N1  UNL     1     -13.024  25.195  19.265  1.00  0.00    -0.301 N 
ATOM     12  H1  UNL     1     -12.776  25.543  20.191  1.00  0.00     0.186 HD
BRANCH  11  13
HETATM   13  N2  UNL     1     -12.443  26.010  18.410  1.00  0.00    -0.266 N 
HETATM   14  C12 UNL     1     -11.019  26.209  18.255  1.00  0.00     0.272 C 
HETATM   15  O2  UNL     1     -10.334  25.521  19.041  1.00  0.00    -0.266 OA
ATOM     16  H2  UNL     1     -13.054  26.550  17.798  1.00  0.00     0.190 HD
BRANCH  14  17
HETATM   17  C13 UNL     1     -10.409  27.095  17.311  1.00  0.00     0.069 A 
HETATM   18  C14 UNL     1     -10.935  27.180  16.014  1.00  0.00     0.039 A 
HETATM   19  C15 UNL     1     -10.392  27.994  15.033  1.00  0.00     0.013 A 
HETATM   20 BR1  UNL     1     -11.157  28.061  13.275  1.00  0.00    -0.051 Br
HETATM   21  C16 UNL     1      -9.297  28.740  15.368  1.00  0.00     0.041 A 
HETATM   22  C17 UNL     1      -8.747  28.697  16.611  1.00  0.00     0.046 A 
HETATM   23 BR2  UNL     1      -7.220  29.749  17.039  1.00  0.00    -0.048 Br
HETATM   24  C18 UNL     1      -9.320  27.855  17.597  1.00  0.00     0.099 A 
BRANCH  24  25
HETATM   25  O3  UNL     1      -8.708  27.877  18.801  1.00  0.00    -0.358 OA
ATOM     26  H3  UNL     1      -7.791  28.094  18.928  1.00  0.00     0.217 HD
ENDBRANCH  24  25
ENDBRANCH  14  17
ENDBRANCH  11  13
ENDBRANCH   2   9
BRANCH   1  27
HETATM   27  O1  UNL     1     -12.588  23.526  16.859  1.00  0.00    -0.347 OA
BRANCH  27  28
HETATM   28  C7  UNL     1     -11.356  22.877  17.087  1.00  0.00     0.176 C 
BRANCH  28  29
HETATM   29  C6  UNL     1     -10.309  23.340  16.062  1.00  0.00     0.027 C 
BRANCH  29  30
HETATM   30  C5  UNL     1      -9.872  22.152  15.239  1.00  0.00     0.002 C 
BRANCH  30  31
HETATM   31  C4  UNL     1     -10.097  22.378  13.764  1.00  0.00     0.000 C 
BRANCH  31  32
HETATM   32  C3  UNL     1     -10.458  23.788  13.424  1.00  0.00    -0.000 C 
BRANCH  32  33
HETATM   33  C2  UNL     1     -11.851  23.752  12.803  1.00  0.00    -0.005 C 
HETATM   34  C1  UNL     1     -12.828  24.607  13.548  1.00  0.00     0.005 C 
ENDBRANCH  32  33
ENDBRANCH  31  32
ENDBRANCH  30  31
ENDBRANCH  29  30
ENDBRANCH  28  29
ENDBRANCH  27  28
ENDBRANCH   1  27
BRANCH   8  35
HETATM   35  O4  UNL     1     -13.789  21.638  15.255  1.00  0.00    -0.352 OA
HETATM   36  C24 UNL     1     -13.071  20.533  14.881  1.00  0.00     0.210 C 
ENDBRANCH   8  35
TORSDOF 12
ENDMDL
MODEL 2
REMARK VINA RESULT: -7.293213521      6.286      9.928
REMARK  12 active torsions:
REMARK  status: ('A' for Active; 'I' for Inactive)
REMARK    1  A    between atoms: C2_2  and  C3_3 
REMARK    2  A    between atoms: C3_3  and  C4_4 
REMARK    3  A    between atoms: C4_4  and  C5_5 
REMARK    4  A    between atoms: C5_5  and  C6_6 
REMARK    5  A    between atoms: C6_6  and  C7_7 
REMARK    6  A    between atoms: C7_7  and  O1_8 
REMARK    7  A    between atoms: O1_8  and  C8_9 
REMARK    8  A    between atoms: C9_10  and  C10_11 
REMARK    9  A    between atoms: N1_13  and  N2_15 
REMARK       I    between atoms: N2_15  and  C12_17 
REMARK   10  A    between atoms: C12_17  and  C13_19 
REMARK   11  A    between atoms: C18_26  and  O3_27 
REMARK   12  A    between atoms: C23_34  and  O4_35 
ROOT
HETATM    1  C8  UNL     1     -20.526  17.707  18.461  1.00  0.00     0.114 A 
HETATM    2  C9  UNL     1     -19.536  18.625  18.361  1.00  0.00     0.025 A 
HETATM    3  C19 UNL     1     -18.747  18.575  17.206  1.00  0.00     0.041 A 
HETATM    4  C20 UNL     1     -18.982  17.626  16.213  1.00  0.00     0.043 A 
HETATM    5 CL1  UNL     1     -17.942  17.636  14.795  1.00  0.00    -0.084 Cl
HETATM    6  C21 UNL     1     -19.995  16.721  16.351  1.00  0.00    -0.004 A 
HETATM    7  C22 UNL     1     -20.233  15.720  15.288  1.00  0.00     0.053 C 
HETATM    8  C23 UNL     1     -20.782  16.751  17.480  1.00  0.00     0.110 A 
ENDROOT
BRANCH   2   9
HETATM    9  C10 UNL     1     -19.313  19.731  19.256  1.00  0.00     0.035 C 
HETATM   10  C11 UNL     1     -20.406  20.174  20.228  1.00  0.00     0.070 C 
HETATM   11  N1  UNL     1     -18.311  20.467  19.304  1.00  0.00    -0.301 N 
ATOM     12  H1  UNL     1     -18.494  21.136  20.051  1.00  0.00     0.186 HD
BRANCH  11  13
HETATM   13  N2  UNL     1     -17.123  20.776  18.829  1.00  0.00    -0.266 N 
HETATM   14  C12 UNL     1     -16.856  21.576  17.655  1.00  0.00     0.272 C 
HETATM   15  O2  UNL     1     -17.892  21.973  17.080  1.00  0.00    -0.266 OA
ATOM     16  H2  UNL     1     -16.314  20.419  19.338  1.00  0.00     0.190 HD
BRANCH  14  17
HETATM   17  C13 UNL     1     -15.553  21.907  17.162  1.00  0.00     0.069 A 
HETATM   18  C14 UNL     1     -14.684  22.652  17.972  1.00  0.00     0.039 A 
HETATM   19  C15 UNL     1     -13.417  23.034  17.564  1.00  0.00     0.013 A 
HETATM   20 BR1  UNL     1     -12.277  24.057  18.720  1.00  0.00    -0.051 Br
HETATM   21  C16 UNL     1     -13.016  22.654  16.314  1.00  0.00     0.041 A 
HETATM   22  C17 UNL     1     -13.817  21.932  15.487  1.00  0.00     0.046 A 
HETATM   23 BR2  UNL     1     -13.225  21.424  13.751  1.00  0.00    -0.048 Br
HETATM   24  C18 UNL     1     -15.111  21.553  15.928  1.00  0.00     0.099 A 
BRANCH  24  25
HETATM   25  O3  UNL     1     -15.836  20.837  15.040  1.00  0.00    -0.358 OA
ATOM     26  H3  UNL     1     -15.897  19.889  15.044  1.00  0.00     0.217 HD
ENDBRANCH  24  25
ENDBRANCH  14  17
ENDBRANCH  11  13
ENDBRANCH   2   9
BRANCH   1  27
HETATM   27  O1  UNL     1     -21.345  17.656  19.563  1.00  0.00    -0.347 OA
BRANCH  27  28
HETATM   28  C7  UNL     1     -21.075  16.783  20.637  1.00  0.00     0.176 C 
BRANCH  28  29
HETATM   29  C6  UNL     1     -21.901  17.180  21.871  1.00  0.00     0.027 C 
BRANCH  29  30
HETATM   30  C5  UNL     1     -23.328  17.431  21.444  1.00  0.00     0.002 C 
BRANCH  30  31
HETATM   31  C4  UNL     1     -23.670  18.900  21.466  1.00  0.00     0.000 C 
BRANCH  31  32
HETATM   32  C3  UNL     1     -24.253  19.397  20.183  1.00  0.00    -0.000 C 
BRANCH  32  33
HETATM   33  C2  UNL     1     -25.054  18.245  19.583  1.00  0.00    -0.005 C 
HETATM   34  C1  UNL     1     -26.240  18.722  18.806  1.00  0.00     0.005 C 
ENDBRANCH  32  33
ENDBRANCH  31  32
ENDBRANCH  30  31
ENDBRANCH  29  30
ENDBRANCH  28  29
ENDBRANCH  27  28
ENDBRANCH   1  27
BRANCH   8  35
HETATM   35  O4  UNL     1     -21.774  15.826  17.551  1.00  0.00    -0.352 OA
HETATM   36  C24 UNL     1     -23.140  15.908  17.492  1.00  0.00     0.210 C 
ENDBRANCH   8  35
TORSDOF 12
ENDMDL
MODEL 3
REMARK VINA RESULT: -7.289502793      3.180      5.821
REMARK  12 active torsions:
REMARK  status: ('A' for Active; 'I' for Inactive)
REMARK    1  A    between atoms: C2_2  and  C3_3 
REMARK    2  A    between atoms: C3_3  and  C4_4 
REMARK    3  A    between atoms: C4_4  and  C5_5 
REMARK    4  A    between atoms: C5_5  and  C6_6 
REMARK    5  A    between atoms: C6_6  and  C7_7 
REMARK    6  A    between atoms: C7_7  and  O1_8 
REMARK    7  A    between atoms: O1_8  and  C8_9 
REMARK    8  A    between atoms: C9_10  and  C10_11 
REMARK    9  A    between atoms: N1_13  and  N2_15 
REMARK       I    between atoms: N2_15  and  C12_17 
REMARK   10  A    between atoms: C12_17  and  C13_19 
REMARK   11  A    between atoms: C18_26  and  O3_27 
REMARK   12  A    between atoms: C23_34  and  O4_35 
ROOT
HETATM    1  C8  UNL     1     -14.952  22.033  16.876  1.00  0.00     0.114 A 
HETATM    2  C9  UNL     1     -13.756  22.443  16.391  1.00  0.00     0.025 A 
HETATM    3  C19 UNL     1     -12.930  23.152  17.269  1.00  0.00     0.041 A 
HETATM    4  C20 UNL     1     -13.327  23.414  18.579  1.00  0.00     0.043 A 
HETATM    5 CL1  UNL     1     -12.225  24.312  19.615  1.00  0.00    -0.084 Cl
HETATM    6  C21 UNL     1     -14.539  22.977  19.032  1.00  0.00    -0.004 A 
HETATM    7  C22 UNL     1     -14.946  23.262  20.425  1.00  0.00     0.053 C 
HETATM    8  C23 UNL     1     -15.368  22.279  18.183  1.00  0.00     0.110 A 
ENDROOT
BRANCH   2   9
HETATM    9  C10 UNL     1     -13.199  22.094  15.109  1.00  0.00     0.035 C 
HETATM   10  C11 UNL     1     -12.933  20.632  14.752  1.00  0.00     0.070 C 
HETATM   11  N1  UNL     1     -12.816  22.875  14.220  1.00  0.00    -0.301 N 
ATOM     12  H1  UNL     1     -12.483  22.285  13.457  1.00  0.00     0.186 HD
BRANCH  11  13
HETATM   13  N2  UNL     1     -12.643  24.116  13.815  1.00  0.00    -0.266 N 
HETATM   14  C12 UNL     1     -11.500  24.954  14.098  1.00  0.00     0.272 C 
HETATM   15  O2  UNL     1     -10.635  24.391  14.804  1.00  0.00    -0.266 OA
ATOM     16  H2  UNL     1     -13.386  24.524  13.247  1.00  0.00     0.190 HD
BRANCH  14  17
HETATM   17  C13 UNL     1     -11.330  26.299  13.639  1.00  0.00     0.069 A 
HETATM   18  C14 UNL     1     -11.357  26.560  12.262  1.00  0.00     0.039 A 
HETATM   19  C15 UNL     1     -11.179  27.828  11.733  1.00  0.00     0.013 A 
HETATM   20 BR1  UNL     1     -11.224  28.118   9.836  1.00  0.00    -0.051 Br
HETATM   21  C16 UNL     1     -10.971  28.854  12.611  1.00  0.00     0.041 A 
HETATM   22  C17 UNL     1     -10.935  28.658  13.956  1.00  0.00     0.046 A 
HETATM   23 BR2  UNL     1     -10.640  30.112  15.148  1.00  0.00    -0.048 Br
HETATM   24  C18 UNL     1     -11.120  27.350  14.473  1.00  0.00     0.099 A 
BRANCH  24  25
HETATM   25  O3  UNL     1     -11.069  27.251  15.820  1.00  0.00    -0.358 OA
ATOM     26  H3  UNL     1     -11.628  26.680  16.333  1.00  0.00     0.217 HD
ENDBRANCH  24  25
ENDBRANCH  14  17
ENDBRANCH  11  13
ENDBRANCH   2   9
BRANCH   1  27
HETATM   27  O1  UNL     1     -15.846  21.346  16.091  1.00  0.00    -0.347 OA
BRANCH  27  28
HETATM   28  C7  UNL     1     -15.871  19.935  16.072  1.00  0.00     0.176 C 
BRANCH  28  29
HETATM   29  C6  UNL     1     -17.316  19.428  15.940  1.00  0.00     0.027 C 
BRANCH  29  30
HETATM   30  C5  UNL     1     -17.288  17.963  15.574  1.00  0.00     0.002 C 
BRANCH  30  31
HETATM   31  C4  UNL     1     -18.423  17.593  14.652  1.00  0.00     0.000 C 
BRANCH  31  32
HETATM   32  C3  UNL     1     -19.761  17.605  15.317  1.00  0.00    -0.000 C 
BRANCH  32  33
HETATM   33  C2  UNL     1     -20.712  16.824  14.413  1.00  0.00    -0.005 C 
HETATM   34  C1  UNL     1     -20.020  15.718  13.680  1.00  0.00     0.005 C 
ENDBRANCH  32  33
ENDBRANCH  31  32
ENDBRANCH  30  31
ENDBRANCH  29  30
ENDBRANCH  28  29
ENDBRANCH  27  28
ENDBRANCH   1  27
BRANCH   8  35
HETATM   35  O4  UNL     1     -16.557  21.871  18.699  1.00  0.00    -0.352 OA
HETATM   36  C24 UNL     1     -16.953  20.740  19.363  1.00  0.00     0.210 C 
ENDBRANCH   8  35
TORSDOF 12
ENDMDL
MODEL 4
REMARK VINA RESULT: -7.282006758      3.955      7.946
REMARK  12 active torsions:
REMARK  status: ('A' for Active; 'I' for Inactive)
REMARK    1  A    between atoms: C2_2  and  C3_3 
REMARK    2  A    between atoms: C3_3  and  C4_4 
REMARK    3  A    between atoms: C4_4  and  C5_5 
REMARK    4  A    between atoms: C5_5  and  C6_6 
REMARK    5  A    between atoms: C6_6  and  C7_7 
REMARK    6  A    between atoms: C7_7  and  O1_8 
REMARK    7  A    between atoms: O1_8  and  C8_9 
REMARK    8  A    between atoms: C9_10  and  C10_11 
REMARK    9  A    between atoms: N1_13  and  N2_15 
REMARK       I    between atoms: N2_15  and  C12_17 
REMARK   10  A    between atoms: C12_17  and  C13_19 
REMARK   11  A    between atoms: C18_26  and  O3_27 
REMARK   12  A    between atoms: C23_34  and  O4_35 
ROOT
HETATM    1  C8  UNL     1     -10.843  24.943  15.002  1.00  0.00     0.114 A 
HETATM    2  C9  UNL     1     -10.967  24.046  13.996  1.00  0.00     0.025 A 
HETATM    3  C19 UNL     1     -11.312  24.554  12.739  1.00  0.00     0.041 A 
HETATM    4  C20 UNL     1     -11.510  25.920  12.543  1.00  0.00     0.043 A 
HETATM    5 CL1  UNL     1     -11.940  26.472  10.929  1.00  0.00    -0.084 Cl
HETATM    6  C21 UNL     1     -11.369  26.792  13.584  1.00  0.00    -0.004 A 
HETATM    7  C22 UNL     1     -11.582  28.239  13.361  1.00  0.00     0.053 C 
HETATM    8  C23 UNL     1     -11.033  26.313  14.829  1.00  0.00     0.110 A 
ENDROOT
BRANCH   2   9
HETATM    9  C10 UNL     1     -10.638  22.645  14.065  1.00  0.00     0.035 C 
HETATM   10  C11 UNL     1      -9.513  22.070  13.204  1.00  0.00     0.070 C 
HETATM   11  N1  UNL     1     -11.226  21.768  14.723  1.00  0.00    -0.301 N 
ATOM     12  H1  UNL     1     -10.724  20.899  14.537  1.00  0.00     0.186 HD
BRANCH  11  13
HETATM   13  N2  UNL     1     -12.200  21.450  15.548  1.00  0.00    -0.266 N 
HETATM   14  C12 UNL     1     -13.537  21.046  15.174  1.00  0.00     0.272 C 
HETATM   15  O2  UNL     1     -13.720  21.025  13.938  1.00  0.00    -0.266 OA
ATOM     16  H2  UNL     1     -11.993  21.491  16.546  1.00  0.00     0.190 HD
BRANCH  14  17
HETATM   17  C13 UNL     1     -14.579  20.695  16.090  1.00  0.00     0.069 A 
HETATM   18  C14 UNL     1     -15.629  19.877  15.652  1.00  0.00     0.039 A 
HETATM   19  C15 UNL     1     -16.688  19.509  16.467  1.00  0.00     0.013 A 
HETATM   20 BR1  UNL     1     -18.097  18.388  15.804  1.00  0.00    -0.051 Br
HETATM   21  C16 UNL     1     -16.686  19.975  17.752  1.00  0.00     0.041 A 
HETATM   22  C17 UNL     1     -15.693  20.771  18.229  1.00  0.00     0.046 A 
HETATM   23 BR2  UNL     1     -15.726  21.403  20.024  1.00  0.00    -0.048 Br
HETATM   24  C18 UNL     1     -14.621  21.134  17.375  1.00  0.00     0.099 A 
BRANCH  24  25
HETATM   25  O3  UNL     1     -13.681  21.927  17.935  1.00  0.00    -0.358 OA
ATOM     26  H3  UNL     1     -13.136  21.670  18.669  1.00  0.00     0.217 HD
ENDBRANCH  24  25
ENDBRANCH  14  17
ENDBRANCH  11  13
ENDBRANCH   2   9
BRANCH   1  27
HETATM   27  O1  UNL     1     -10.527  24.547  16.279  1.00  0.00    -0.347 OA
BRANCH  27  28
HETATM   28  C7  UNL     1     -11.518  24.435  17.277  1.00  0.00     0.176 C 
BRANCH  28  29
HETATM   29  C6  UNL     1     -10.933  24.790  18.654  1.00  0.00     0.027 C 
BRANCH  29  30
HETATM   30  C5  UNL     1     -11.434  26.156  19.059  1.00  0.00     0.002 C 
BRANCH  30  31
HETATM   31  C4  UNL     1     -12.246  26.101  20.330  1.00  0.00     0.000 C 
BRANCH  31  32
HETATM   32  C3  UNL     1     -12.443  24.715  20.854  1.00  0.00    -0.000 C 
BRANCH  32  33
HETATM   33  C2  UNL     1     -13.949  24.474  20.915  1.00  0.00    -0.005 C 
HETATM   34  C1  UNL     1     -14.658  24.997  19.705  1.00  0.00     0.005 C 
ENDBRANCH  32  33
ENDBRANCH  31  32
ENDBRANCH  30  31
ENDBRANCH  29  30
ENDBRANCH  28  29
ENDBRANCH  27  28
ENDBRANCH   1  27
BRANCH   8  35
HETATM   35  O4  UNL     1     -10.905  27.235  15.818  1.00  0.00    -0.352 OA
HETATM   36  C24 UNL     1      -9.833  27.911  16.339  1.00  0.00     0.210 C 
ENDBRANCH   8  35
TORSDOF 12
ENDMDL
MODEL 5
REMARK VINA RESULT: -7.252027568      9.752     14.734
REMARK  12 active torsions:
REMARK  status: ('A' for Active; 'I' for Inactive)
REMARK    1  A    between atoms: C2_2  and  C3_3 
REMARK    2  A    between atoms: C3_3  and  C4_4 
REMARK    3  A    between atoms: C4_4  and  C5_5 
REMARK    4  A    between atoms: C5_5  and  C6_6 
REMARK    5  A    between atoms: C6_6  and  C7_7 
REMARK    6  A    between atoms: C7_7  and  O1_8 
REMARK    7  A    between atoms: O1_8  and  C8_9 
REMARK    8  A    between atoms: C9_10  and  C10_11 
REMARK    9  A    between atoms: N1_13  and  N2_15 
REMARK       I    between atoms: N2_15  and  C12_17 
REMARK   10  A    between atoms: C12_17  and  C13_19 
REMARK   11  A    between atoms: C18_26  and  O3_27 
REMARK   12  A    between atoms: C23_34  and  O4_35 
ROOT
HETATM    1  C8  UNL     1     -19.751  18.060  17.466  1.00  0.00     0.114 A 
HETATM    2  C9  UNL     1     -19.349  17.918  16.181  1.00  0.00     0.025 A 
HETATM    3  C19 UNL     1     -18.230  18.658  15.786  1.00  0.00     0.041 A 
HETATM    4  C20 UNL     1     -17.566  19.494  16.682  1.00  0.00     0.043 A 
HETATM    5 CL1  UNL     1     -16.166  20.386  16.100  1.00  0.00    -0.084 Cl
HETATM    6  C21 UNL     1     -17.999  19.605  17.971  1.00  0.00    -0.004 A 
HETATM    7  C22 UNL     1     -17.284  20.496  18.910  1.00  0.00     0.053 C 
HETATM    8  C23 UNL     1     -19.100  18.887  18.380  1.00  0.00     0.110 A 
ENDROOT
BRANCH   2   9
HETATM    9  C10 UNL     1     -19.875  16.972  15.230  1.00  0.00     0.035 C 
HETATM   10  C11 UNL     1     -18.991  16.428  14.108  1.00  0.00     0.070 C 
HETATM   11  N1  UNL     1     -21.046  16.560  15.151  1.00  0.00    -0.301 N 
ATOM     12  H1  UNL     1     -21.058  15.905  14.369  1.00  0.00     0.186 HD
BRANCH  11  13
HETATM   13  N2  UNL     1     -22.278  16.585  15.616  1.00  0.00    -0.266 N 
HETATM   14  C12 UNL     1     -23.004  15.462  16.165  1.00  0.00     0.272 C 
HETATM   15  O2  UNL     1     -22.348  14.398  16.163  1.00  0.00    -0.266 OA
ATOM     16  H2  UNL     1     -22.766  17.480  15.586  1.00  0.00     0.190 HD
BRANCH  14  17
HETATM   17  C13 UNL     1     -24.341  15.515  16.673  1.00  0.00     0.069 A 
HETATM   18  C14 UNL     1     -24.822  16.716  17.213  1.00  0.00     0.039 A 
HETATM   19  C15 UNL     1     -26.093  16.847  17.745  1.00  0.00     0.013 A 
HETATM   20 BR1  UNL     1     -26.689  18.520  18.473  1.00  0.00    -0.051 Br
HETATM   21  C16 UNL     1     -26.899  15.743  17.731  1.00  0.00     0.041 A 
HETATM   22  C17 UNL     1     -26.485  14.553  17.221  1.00  0.00     0.046 A 
HETATM   23 BR2  UNL     1     -27.636  13.037  17.221  1.00  0.00    -0.048 Br
HETATM   24  C18 UNL     1     -25.178  14.444  16.681  1.00  0.00     0.099 A 
BRANCH  24  25
HETATM   25  O3  UNL     1     -24.854  13.226  16.197  1.00  0.00    -0.358 OA
ATOM     26  H3  UNL     1     -24.625  12.480  16.739  1.00  0.00     0.217 HD
ENDBRANCH  24  25
ENDBRANCH  14  17
ENDBRANCH  11  13
ENDBRANCH   2   9
BRANCH   1  27
HETATM   27  O1  UNL     1     -20.850  17.394  17.951  1.00  0.00    -0.347 OA
BRANCH  27  28
HETATM   28  C7  UNL     1     -20.713  16.241  18.752  1.00  0.00     0.176 C 
BRANCH  28  29
HETATM   29  C6  UNL     1     -21.933  16.081  19.673  1.00  0.00     0.027 C 
BRANCH  29  30
HETATM   30  C5  UNL     1     -21.518  16.393  21.091  1.00  0.00     0.002 C 
BRANCH  30  31
HETATM   31  C4  UNL     1     -22.485  17.336  21.764  1.00  0.00     0.000 C 
BRANCH  31  32
HETATM   32  C3  UNL     1     -23.459  17.966  20.821  1.00  0.00    -0.000 C 
BRANCH  32  33
HETATM   33  C2  UNL     1     -24.461  18.742  21.671  1.00  0.00    -0.005 C 
HETATM   34  C1  UNL     1     -25.596  17.884  22.137  1.00  0.00     0.005 C 
ENDBRANCH  32  33
ENDBRANCH  31  32
ENDBRANCH  30  31
ENDBRANCH  29  30
ENDBRANCH  28  29
ENDBRANCH  27  28
ENDBRANCH   1  27
BRANCH   8  35
HETATM   35  O4  UNL     1     -19.475  19.041  19.677  1.00  0.00    -0.352 OA
HETATM   36  C24 UNL     1     -20.324  19.908  20.312  1.00  0.00     0.210 C 
ENDBRANCH   8  35
TORSDOF 12
ENDMDL
