MODEL 1
REMARK VINA RESULT: -9.762035199      0.000      0.000
REMARK  11 active torsions:
REMARK  status: ('A' for Active; 'I' for Inactive)
REMARK    1  A    between atoms: C4_4  and  N1_5 
REMARK       I    between atoms: N1_5  and  C5_7 
REMARK    2  A    between atoms: C5_7  and  C6_9 
REMARK    3  A    between atoms: C6_9  and  N2_12 
REMARK       I    between atoms: N2_12  and  C9_14 
REMARK    4  A    between atoms: C9_14  and  C10_16 
REMARK    5  A    between atoms: C10_16  and  C11_17 
REMARK    6  A    between atoms: C10_16  and  S1_24 
REMARK    7  A    between atoms: C11_17  and  C12_18 
REMARK    8  A    between atoms: C12_18  and  C14_20 
REMARK    9  A    between atoms: C14_20  and  C15_21 
REMARK   10  A    between atoms: S1_24  and  C18_25 
REMARK   11  A    between atoms: C26_36  and  N3_37 
ROOT
HETATM    1  C6  UNL     1      10.578  19.072  19.506  1.00  0.00     0.106 C 
HETATM    2  C7  UNL     1      11.298  18.432  20.750  1.00  0.00     0.048 C 
HETATM    3  C8  UNL     1       9.574  20.064  20.386  1.00  0.00     0.048 C 
ENDROOT
BRANCH   1   4
HETATM    4  C5  UNL     1      11.470  20.079  19.010  1.00  0.00     0.249 C 
HETATM    5  N1  UNL     1      12.849  20.210  19.366  1.00  0.00    -0.323 N 
ATOM      6  H1  UNL     1      13.286  19.466  19.910  1.00  0.00     0.169 HD
HETATM    7  O1  UNL     1      11.071  20.981  18.197  1.00  0.00    -0.270 OA
BRANCH   5   8
HETATM    8  C4  UNL     1      13.631  21.328  18.996  1.00  0.00     0.057 A 
HETATM    9  C3  UNL     1      13.850  22.244  20.072  1.00  0.00     0.040 A 
HETATM   10  C2  UNL     1      14.784  23.230  19.983  1.00  0.00    -0.031 A 
HETATM   11  C1  UNL     1      15.038  24.150  21.139  1.00  0.00     0.050 C 
HETATM   12  C26 UNL     1      15.565  23.371  18.813  1.00  0.00     0.066 A 
HETATM   13  C25 UNL     1      15.346  22.486  17.775  1.00  0.00     0.058 A 
HETATM   14  C24 UNL     1      14.362  21.480  17.917  1.00  0.00     0.063 A 
HETATM   15 CL3  UNL     1      14.170  20.404  16.501  1.00  0.00    -0.082 Cl
BRANCH  12  16
HETATM   16  N3  UNL     1      16.518  24.407  18.834  1.00  0.00    -0.235 N 
HETATM   17  C27 UNL     1      17.851  24.234  18.643  1.00  0.00     0.226 A 
HETATM   18  N4  UNL     1      18.425  25.432  18.720  1.00  0.00    -0.279 N 
HETATM   19  N5  UNL     1      17.499  26.312  18.947  1.00  0.00    -0.227 N 
ATOM     20  H4  UNL     1      19.421  25.626  18.619  1.00  0.00     0.189 HD
HETATM   21  N6  UNL     1      16.360  25.680  19.013  1.00  0.00    -0.220 N 
ATOM     22  H5  UNL     1      17.637  27.316  19.053  1.00  0.00     0.210 HD
ATOM     23  H6  UNL     1      15.461  26.131  19.184  1.00  0.00     0.210 HD
ENDBRANCH  12  16
ENDBRANCH   5   8
ENDBRANCH   1   4
BRANCH   1  24
HETATM   24  N2  UNL     1       9.696  18.232  18.894  1.00  0.00    -0.343 N 
HETATM   25  C9  UNL     1       9.565  17.418  17.725  1.00  0.00     0.232 C 
HETATM   26  O2  UNL     1      10.529  17.424  16.958  1.00  0.00    -0.272 OA
ATOM     27  H2  UNL     1       8.848  18.160  19.457  1.00  0.00     0.163 HD
BRANCH  25  28
HETATM   28  C10 UNL     1       8.350  16.637  17.479  1.00  0.00     0.145 C 
BRANCH  28  29
HETATM   29  C11 UNL     1       8.458  15.486  16.469  1.00  0.00     0.029 C 
BRANCH  29  30
HETATM   30  C12 UNL     1       7.978  15.676  15.113  1.00  0.00    -0.017 C 
HETATM   31  C13 UNL     1       7.962  17.034  14.534  1.00  0.00     0.010 C 
BRANCH  30  32
HETATM   32  C14 UNL     1       6.690  14.953  14.776  1.00  0.00     0.008 C 
BRANCH  32  33
HETATM   33  C15 UNL     1       5.710  14.764  15.858  1.00  0.00    -0.023 C 
HETATM   34  C16 UNL     1       4.682  13.750  15.290  1.00  0.00     0.009 C 
HETATM   35  C17 UNL     1       4.817  15.987  16.119  1.00  0.00     0.009 C 
ENDBRANCH  32  33
ENDBRANCH  30  32
ENDBRANCH  29  30
ENDBRANCH  28  29
BRANCH  28  36
HETATM   36  S1  UNL     1       7.613  15.980  18.945  1.00  0.00    -0.114 SA
BRANCH  36  37
HETATM   37  C18 UNL     1       6.689  16.912  20.068  1.00  0.00     0.023 A 
HETATM   38  C19 UNL     1       5.456  17.452  19.630  1.00  0.00     0.022 A 
HETATM   39  C20 UNL     1       4.546  18.071  20.447  1.00  0.00     0.025 A 
HETATM   40  C21 UNL     1       4.795  18.204  21.797  1.00  0.00     0.035 A 
HETATM   41 CL1  UNL     1       3.611  18.963  22.836  1.00  0.00    -0.084 Cl
HETATM   42  C22 UNL     1       5.995  17.689  22.261  1.00  0.00     0.049 A 
HETATM   43  C23 UNL     1       6.910  17.068  21.426  1.00  0.00     0.052 A 
HETATM   44 CL2  UNL     1       8.389  16.398  22.144  1.00  0.00    -0.083 Cl
ENDBRANCH  36  37
ENDBRANCH  28  36
ENDBRANCH  25  28
ENDBRANCH   1  24
TORSDOF 11
ENDMDL
MODEL 2
REMARK VINA RESULT: -9.575351803      2.143      4.351
REMARK  11 active torsions:
REMARK  status: ('A' for Active; 'I' for Inactive)
REMARK    1  A    between atoms: C4_4  and  N1_5 
REMARK       I    between atoms: N1_5  and  C5_7 
REMARK    2  A    between atoms: C5_7  and  C6_9 
REMARK    3  A    between atoms: C6_9  and  N2_12 
REMARK       I    between atoms: N2_12  and  C9_14 
REMARK    4  A    between atoms: C9_14  and  C10_16 
REMARK    5  A    between atoms: C10_16  and  C11_17 
REMARK    6  A    between atoms: C10_16  and  S1_24 
REMARK    7  A    between atoms: C11_17  and  C12_18 
REMARK    8  A    between atoms: C12_18  and  C14_20 
REMARK    9  A    between atoms: C14_20  and  C15_21 
REMARK   10  A    between atoms: S1_24  and  C18_25 
REMARK   11  A    between atoms: C26_36  and  N3_37 
ROOT
HETATM    1  C6  UNL     1      11.211  18.841  17.852  1.00  0.00     0.106 C 
HETATM    2  C7  UNL     1      11.226  18.221  16.405  1.00  0.00     0.048 C 
HETATM    3  C8  UNL     1      12.387  17.842  18.472  1.00  0.00     0.048 C 
ENDROOT
BRANCH   1   4
HETATM    4  C5  UNL     1      11.988  20.042  17.774  1.00  0.00     0.249 C 
HETATM    5  N1  UNL     1      13.369  20.158  18.130  1.00  0.00    -0.323 N 
ATOM      6  H1  UNL     1      13.894  19.307  18.333  1.00  0.00     0.169 HD
HETATM    7  O1  UNL     1      11.474  21.146  17.384  1.00  0.00    -0.270 OA
BRANCH   5   8
HETATM    8  C4  UNL     1      14.035  21.402  18.213  1.00  0.00     0.057 A 
HETATM    9  C3  UNL     1      13.881  22.040  19.483  1.00  0.00     0.040 A 
HETATM   10  C2  UNL     1      14.655  23.102  19.840  1.00  0.00    -0.031 A 
HETATM   11  C1  UNL     1      14.517  23.728  21.194  1.00  0.00     0.050 C 
HETATM   12  C26 UNL     1      15.636  23.601  18.953  1.00  0.00     0.066 A 
HETATM   13  C25 UNL     1      15.777  22.984  17.725  1.00  0.00     0.058 A 
HETATM   14  C24 UNL     1      14.947  21.884  17.402  1.00  0.00     0.063 A 
HETATM   15 CL3  UNL     1      15.223  21.178  15.783  1.00  0.00    -0.082 Cl
BRANCH  12  16
HETATM   16  N3  UNL     1      16.396  24.686  19.428  1.00  0.00    -0.235 N 
HETATM   17  C27 UNL     1      17.321  24.605  20.419  1.00  0.00     0.226 A 
HETATM   18  N4  UNL     1      17.838  25.821  20.584  1.00  0.00    -0.279 N 
HETATM   19  N5  UNL     1      17.268  26.622  19.739  1.00  0.00    -0.227 N 
ATOM     20  H4  UNL     1      18.559  26.078  21.258  1.00  0.00     0.189 HD
HETATM   21  N6  UNL     1      16.403  25.926  19.053  1.00  0.00    -0.220 N 
ATOM     22  H5  UNL     1      17.460  27.617  19.630  1.00  0.00     0.210 HD
ATOM     23  H6  UNL     1      15.810  26.309  18.317  1.00  0.00     0.210 HD
ENDBRANCH  12  16
ENDBRANCH   5   8
ENDBRANCH   1   4
BRANCH   1  24
HETATM   24  N2  UNL     1      10.115  18.490  18.583  1.00  0.00    -0.343 N 
HETATM   25  C9  UNL     1       9.251  18.999  19.603  1.00  0.00     0.232 C 
HETATM   26  O2  UNL     1       9.518  20.129  20.016  1.00  0.00    -0.272 OA
ATOM     27  H2  UNL     1       9.811  17.554  18.315  1.00  0.00     0.163 HD
BRANCH  25  28
HETATM   28  C10 UNL     1       8.125  18.207  20.106  1.00  0.00     0.145 C 
BRANCH  28  29
HETATM   29  C11 UNL     1       6.721  18.798  19.914  1.00  0.00     0.029 C 
BRANCH  29  30
HETATM   30  C12 UNL     1       5.785  18.795  21.021  1.00  0.00    -0.017 C 
HETATM   31  C13 UNL     1       6.015  17.887  22.162  1.00  0.00     0.010 C 
BRANCH  30  32
HETATM   32  C14 UNL     1       4.321  18.775  20.631  1.00  0.00     0.008 C 
BRANCH  32  33
HETATM   33  C15 UNL     1       3.962  19.301  19.303  1.00  0.00    -0.023 C 
HETATM   34  C16 UNL     1       3.487  20.755  19.568  1.00  0.00     0.009 C 
HETATM   35  C17 UNL     1       2.696  18.674  18.700  1.00  0.00     0.009 C 
ENDBRANCH  32  33
ENDBRANCH  30  32
ENDBRANCH  29  30
ENDBRANCH  28  29
BRANCH  28  36
HETATM   36  S1  UNL     1       8.085  16.551  19.493  1.00  0.00    -0.114 SA
BRANCH  36  37
HETATM   37  C18 UNL     1       7.623  16.121  17.885  1.00  0.00     0.023 A 
HETATM   38  C19 UNL     1       8.645  15.934  16.925  1.00  0.00     0.022 A 
HETATM   39  C20 UNL     1       8.444  15.439  15.663  1.00  0.00     0.025 A 
HETATM   40  C21 UNL     1       7.178  15.082  15.246  1.00  0.00     0.035 A 
HETATM   41 CL1  UNL     1       6.938  14.419  13.646  1.00  0.00    -0.084 Cl
HETATM   42  C22 UNL     1       6.152  15.255  16.159  1.00  0.00     0.049 A 
HETATM   43  C23 UNL     1       6.365  15.759  17.432  1.00  0.00     0.052 A 
HETATM   44 CL2  UNL     1       4.980  15.884  18.535  1.00  0.00    -0.083 Cl
ENDBRANCH  36  37
ENDBRANCH  28  36
ENDBRANCH  25  28
ENDBRANCH   1  24
TORSDOF 11
ENDMDL
MODEL 3
REMARK VINA RESULT: -9.552887339      1.703      2.247
REMARK  11 active torsions:
REMARK  status: ('A' for Active; 'I' for Inactive)
REMARK    1  A    between atoms: C4_4  and  N1_5 
REMARK       I    between atoms: N1_5  and  C5_7 
REMARK    2  A    between atoms: C5_7  and  C6_9 
REMARK    3  A    between atoms: C6_9  and  N2_12 
REMARK       I    between atoms: N2_12  and  C9_14 
REMARK    4  A    between atoms: C9_14  and  C10_16 
REMARK    5  A    between atoms: C10_16  and  C11_17 
REMARK    6  A    between atoms: C10_16  and  S1_24 
REMARK    7  A    between atoms: C11_17  and  C12_18 
REMARK    8  A    between atoms: C12_18  and  C14_20 
REMARK    9  A    between atoms: C14_20  and  C15_21 
REMARK   10  A    between atoms: S1_24  and  C18_25 
REMARK   11  A    between atoms: C26_36  and  N3_37 
ROOT
HETATM    1  C6  UNL     1      10.699  18.836  19.194  1.00  0.00     0.106 C 
HETATM    2  C7  UNL     1      11.262  18.350  20.580  1.00  0.00     0.048 C 
HETATM    3  C8  UNL     1       9.776  20.073  19.814  1.00  0.00     0.048 C 
ENDROOT
BRANCH   1   4
HETATM    4  C5  UNL     1      11.734  19.634  18.606  1.00  0.00     0.249 C 
HETATM    5  N1  UNL     1      13.134  19.346  18.665  1.00  0.00    -0.323 N 
ATOM      6  H1  UNL     1      13.432  18.444  19.035  1.00  0.00     0.169 HD
HETATM    7  O1  UNL     1      11.468  20.716  17.979  1.00  0.00    -0.270 OA
BRANCH   5   8
HETATM    8  C4  UNL     1      14.122  20.260  18.232  1.00  0.00     0.057 A 
HETATM    9  C3  UNL     1      14.532  20.047  16.879  1.00  0.00     0.040 A 
HETATM   10  C2  UNL     1      15.268  20.975  16.208  1.00  0.00    -0.031 A 
HETATM   11  C1  UNL     1      15.647  20.760  14.774  1.00  0.00     0.050 C 
HETATM   12  C26 UNL     1      15.646  22.181  16.841  1.00  0.00     0.066 A 
HETATM   13  C25 UNL     1      15.251  22.379  18.150  1.00  0.00     0.058 A 
HETATM   14  C24 UNL     1      14.488  21.383  18.803  1.00  0.00     0.063 A 
HETATM   15 CL3  UNL     1      14.046  21.756  20.495  1.00  0.00    -0.082 Cl
BRANCH  12  16
HETATM   16  N3  UNL     1      16.386  23.082  16.052  1.00  0.00    -0.235 N 
HETATM   17  C27 UNL     1      17.694  23.388  16.250  1.00  0.00     0.226 A 
HETATM   18  N4  UNL     1      18.049  24.258  15.308  1.00  0.00    -0.279 N 
HETATM   19  N5  UNL     1      17.017  24.485  14.556  1.00  0.00    -0.227 N 
ATOM     20  H4  UNL     1      18.973  24.674  15.196  1.00  0.00     0.189 HD
HETATM   21  N6  UNL     1      16.026  23.772  15.017  1.00  0.00    -0.220 N 
ATOM     22  H5  UNL     1      16.985  25.108  13.750  1.00  0.00     0.210 HD
ATOM     23  H6  UNL     1      15.089  23.759  14.613  1.00  0.00     0.210 HD
ENDBRANCH  12  16
ENDBRANCH   5   8
ENDBRANCH   1   4
BRANCH   1  24
HETATM   24  N2  UNL     1       9.755  18.005  18.666  1.00  0.00    -0.343 N 
HETATM   25  C9  UNL     1       9.387  17.385  17.431  1.00  0.00     0.232 C 
HETATM   26  O2  UNL     1      10.114  17.637  16.468  1.00  0.00    -0.272 OA
ATOM     27  H2  UNL     1       9.093  17.737  19.393  1.00  0.00     0.163 HD
BRANCH  25  28
HETATM   28  C10 UNL     1       8.215  16.510  17.343  1.00  0.00     0.145 C 
BRANCH  28  29
HETATM   29  C11 UNL     1       8.339  15.273  16.442  1.00  0.00     0.029 C 
BRANCH  29  30
HETATM   30  C12 UNL     1       7.432  15.110  15.322  1.00  0.00    -0.017 C 
HETATM   31  C13 UNL     1       7.955  15.209  13.945  1.00  0.00     0.010 C 
BRANCH  30  32
HETATM   32  C14 UNL     1       6.123  15.865  15.434  1.00  0.00     0.008 C 
BRANCH  32  33
HETATM   33  C15 UNL     1       5.026  15.223  16.177  1.00  0.00    -0.023 C 
HETATM   34  C16 UNL     1       4.687  13.948  15.359  1.00  0.00     0.009 C 
HETATM   35  C17 UNL     1       3.694  15.985  16.115  1.00  0.00     0.009 C 
ENDBRANCH  32  33
ENDBRANCH  30  32
ENDBRANCH  29  30
ENDBRANCH  28  29
BRANCH  28  36
HETATM   36  S1  UNL     1       7.616  15.958  18.912  1.00  0.00    -0.114 SA
BRANCH  36  37
HETATM   37  C18 UNL     1       6.644  16.916  19.971  1.00  0.00     0.023 A 
HETATM   38  C19 UNL     1       5.382  17.353  19.504  1.00  0.00     0.022 A 
HETATM   39  C20 UNL     1       4.441  17.977  20.281  1.00  0.00     0.025 A 
HETATM   40  C21 UNL     1       4.687  18.222  21.616  1.00  0.00     0.035 A 
HETATM   41 CL1  UNL     1       3.466  18.988  22.607  1.00  0.00    -0.084 Cl
HETATM   42  C22 UNL     1       5.916  17.811  22.107  1.00  0.00     0.049 A 
HETATM   43  C23 UNL     1       6.861  17.183  21.312  1.00  0.00     0.052 A 
HETATM   44 CL2  UNL     1       8.379  16.651  22.065  1.00  0.00    -0.083 Cl
ENDBRANCH  36  37
ENDBRANCH  28  36
ENDBRANCH  25  28
ENDBRANCH   1  24
TORSDOF 11
ENDMDL
MODEL 4
REMARK VINA RESULT: -9.449262100      2.206      4.046
REMARK  11 active torsions:
REMARK  status: ('A' for Active; 'I' for Inactive)
REMARK    1  A    between atoms: C4_4  and  N1_5 
REMARK       I    between atoms: N1_5  and  C5_7 
REMARK    2  A    between atoms: C5_7  and  C6_9 
REMARK    3  A    between atoms: C6_9  and  N2_12 
REMARK       I    between atoms: N2_12  and  C9_14 
REMARK    4  A    between atoms: C9_14  and  C10_16 
REMARK    5  A    between atoms: C10_16  and  C11_17 
REMARK    6  A    between atoms: C10_16  and  S1_24 
REMARK    7  A    between atoms: C11_17  and  C12_18 
REMARK    8  A    between atoms: C12_18  and  C14_20 
REMARK    9  A    between atoms: C14_20  and  C15_21 
REMARK   10  A    between atoms: S1_24  and  C18_25 
REMARK   11  A    between atoms: C26_36  and  N3_37 
ROOT
HETATM    1  C6  UNL     1      11.215  18.837  17.739  1.00  0.00     0.106 C 
HETATM    2  C7  UNL     1      11.222  18.235  16.285  1.00  0.00     0.048 C 
HETATM    3  C8  UNL     1      12.393  17.830  18.342  1.00  0.00     0.048 C 
ENDROOT
BRANCH   1   4
HETATM    4  C5  UNL     1      11.993  20.038  17.672  1.00  0.00     0.249 C 
HETATM    5  N1  UNL     1      13.366  20.157  18.057  1.00  0.00    -0.323 N 
ATOM      6  H1  UNL     1      13.887  19.307  18.276  1.00  0.00     0.169 HD
HETATM    7  O1  UNL     1      11.487  21.139  17.265  1.00  0.00    -0.270 OA
BRANCH   5   8
HETATM    8  C4  UNL     1      14.030  21.402  18.147  1.00  0.00     0.057 A 
HETATM    9  C3  UNL     1      13.886  22.025  19.426  1.00  0.00     0.040 A 
HETATM   10  C2  UNL     1      14.660  23.085  19.788  1.00  0.00    -0.031 A 
HETATM   11  C1  UNL     1      14.534  23.695  21.151  1.00  0.00     0.050 C 
HETATM   12  C26 UNL     1      15.632  23.597  18.897  1.00  0.00     0.066 A 
HETATM   13  C25 UNL     1      15.763  22.993  17.661  1.00  0.00     0.058 A 
HETATM   14  C24 UNL     1      14.933  21.895  17.334  1.00  0.00     0.063 A 
HETATM   15 CL3  UNL     1      15.195  21.208  15.704  1.00  0.00    -0.082 Cl
BRANCH  12  16
HETATM   16  N3  UNL     1      16.394  24.678  19.378  1.00  0.00    -0.235 N 
HETATM   17  C27 UNL     1      17.343  24.585  20.344  1.00  0.00     0.226 A 
HETATM   18  N4  UNL     1      17.854  25.801  20.523  1.00  0.00    -0.279 N 
HETATM   19  N5  UNL     1      17.256  26.615  19.709  1.00  0.00    -0.227 N 
ATOM     20  H4  UNL     1      18.588  26.050  21.185  1.00  0.00     0.189 HD
HETATM   21  N6  UNL     1      16.381  25.926  19.030  1.00  0.00    -0.220 N 
ATOM     22  H5  UNL     1      17.437  27.614  19.617  1.00  0.00     0.210 HD
ATOM     23  H6  UNL     1      15.767  26.318  18.316  1.00  0.00     0.210 HD
ENDBRANCH  12  16
ENDBRANCH   5   8
ENDBRANCH   1   4
BRANCH   1  24
HETATM   24  N2  UNL     1      10.122  18.478  18.472  1.00  0.00    -0.343 N 
HETATM   25  C9  UNL     1       9.260  18.979  19.499  1.00  0.00     0.232 C 
HETATM   26  O2  UNL     1       9.527  20.107  19.919  1.00  0.00    -0.272 OA
ATOM     27  H2  UNL     1       9.819  17.544  18.198  1.00  0.00     0.163 HD
BRANCH  25  28
HETATM   28  C10 UNL     1       8.138  18.181  19.999  1.00  0.00     0.145 C 
BRANCH  28  29
HETATM   29  C11 UNL     1       6.735  18.787  19.848  1.00  0.00     0.029 C 
BRANCH  29  30
HETATM   30  C12 UNL     1       5.823  18.771  20.976  1.00  0.00    -0.017 C 
HETATM   31  C13 UNL     1       6.064  17.834  22.090  1.00  0.00     0.010 C 
BRANCH  30  32
HETATM   32  C14 UNL     1       4.351  18.781  20.617  1.00  0.00     0.008 C 
BRANCH  32  33
HETATM   33  C15 UNL     1       3.944  19.546  19.426  1.00  0.00    -0.023 C 
HETATM   34  C16 UNL     1       3.051  20.690  19.976  1.00  0.00     0.009 C 
HETATM   35  C17 UNL     1       2.958  18.805  18.510  1.00  0.00     0.009 C 
ENDBRANCH  32  33
ENDBRANCH  30  32
ENDBRANCH  29  30
ENDBRANCH  28  29
BRANCH  28  36
HETATM   36  S1  UNL     1       8.076  16.542  19.342  1.00  0.00    -0.114 SA
BRANCH  36  37
HETATM   37  C18 UNL     1       6.889  15.992  18.214  1.00  0.00     0.023 A 
HETATM   38  C19 UNL     1       5.536  15.971  18.628  1.00  0.00     0.022 A 
HETATM   39  C20 UNL     1       4.475  15.716  17.799  1.00  0.00     0.025 A 
HETATM   40  C21 UNL     1       4.680  15.456  16.460  1.00  0.00     0.035 A 
HETATM   41 CL1  UNL     1       3.317  15.166  15.404  1.00  0.00    -0.084 Cl
HETATM   42  C22 UNL     1       5.994  15.465  16.021  1.00  0.00     0.049 A 
HETATM   43  C23 UNL     1       7.060  15.721  16.867  1.00  0.00     0.052 A 
HETATM   44 CL2  UNL     1       8.696  15.760  16.179  1.00  0.00    -0.083 Cl
ENDBRANCH  36  37
ENDBRANCH  28  36
ENDBRANCH  25  28
ENDBRANCH   1  24
TORSDOF 11
ENDMDL
MODEL 5
REMARK VINA RESULT: -9.431778294      4.222     12.234
REMARK  11 active torsions:
REMARK  status: ('A' for Active; 'I' for Inactive)
REMARK    1  A    between atoms: C4_4  and  N1_5 
REMARK       I    between atoms: N1_5  and  C5_7 
REMARK    2  A    between atoms: C5_7  and  C6_9 
REMARK    3  A    between atoms: C6_9  and  N2_12 
REMARK       I    between atoms: N2_12  and  C9_14 
REMARK    4  A    between atoms: C9_14  and  C10_16 
REMARK    5  A    between atoms: C10_16  and  C11_17 
REMARK    6  A    between atoms: C10_16  and  S1_24 
REMARK    7  A    between atoms: C11_17  and  C12_18 
REMARK    8  A    between atoms: C12_18  and  C14_20 
REMARK    9  A    between atoms: C14_20  and  C15_21 
REMARK   10  A    between atoms: S1_24  and  C18_25 
REMARK   11  A    between atoms: C26_36  and  N3_37 
ROOT
HETATM    1  C6  UNL     1      15.108  21.122  16.093  1.00  0.00     0.106 C 
HETATM    2  C7  UNL     1      15.865  19.796  15.710  1.00  0.00     0.048 C 
HETATM    3  C8  UNL     1      14.746  21.564  14.531  1.00  0.00     0.048 C 
ENDROOT
BRANCH   1   4
HETATM    4  C5  UNL     1      13.792  20.722  16.497  1.00  0.00     0.249 C 
HETATM    5  N1  UNL     1      13.404  19.391  16.849  1.00  0.00    -0.323 N 
ATOM      6  H1  UNL     1      14.130  18.682  16.952  1.00  0.00     0.169 HD
HETATM    7  O1  UNL     1      12.829  21.560  16.555  1.00  0.00    -0.270 OA
BRANCH   5   8
HETATM    8  C4  UNL     1      12.057  19.018  17.058  1.00  0.00     0.057 A 
HETATM    9  C3  UNL     1      11.538  18.177  16.024  1.00  0.00     0.040 A 
HETATM   10  C2  UNL     1      10.362  17.508  16.180  1.00  0.00    -0.031 A 
HETATM   11  C1  UNL     1       9.857  16.591  15.108  1.00  0.00     0.050 C 
HETATM   12  C26 UNL     1       9.622  17.632  17.378  1.00  0.00     0.066 A 
HETATM   13  C25 UNL     1      10.126  18.450  18.371  1.00  0.00     0.058 A 
HETATM   14  C24 UNL     1      11.352  19.124  18.159  1.00  0.00     0.063 A 
HETATM   15 CL3  UNL     1      11.891  20.156  19.517  1.00  0.00    -0.082 Cl
BRANCH  12  16
HETATM   16  N3  UNL     1       8.434  16.881  17.444  1.00  0.00    -0.235 N 
HETATM   17  C27 UNL     1       8.103  16.048  18.464  1.00  0.00     0.226 A 
HETATM   18  N4  UNL     1       6.911  15.527  18.184  1.00  0.00    -0.279 N 
HETATM   19  N5  UNL     1       6.514  16.010  17.048  1.00  0.00    -0.227 N 
ATOM     20  H4  UNL     1       6.398  14.862  18.763  1.00  0.00     0.189 HD
HETATM   21  N6  UNL     1       7.439  16.821  16.616  1.00  0.00    -0.220 N 
ATOM     22  H5  UNL     1       5.635  15.795  16.578  1.00  0.00     0.210 HD
ATOM     23  H6  UNL     1       7.387  17.340  15.740  1.00  0.00     0.210 HD
ENDBRANCH  12  16
ENDBRANCH   5   8
ENDBRANCH   1   4
BRANCH   1  24
HETATM   24  N2  UNL     1      15.937  22.126  16.495  1.00  0.00    -0.343 N 
HETATM   25  C9  UNL     1      16.397  22.779  17.683  1.00  0.00     0.232 C 
HETATM   26  O2  UNL     1      15.934  22.351  18.742  1.00  0.00    -0.272 OA
ATOM     27  H2  UNL     1      16.375  22.554  15.680  1.00  0.00     0.163 HD
BRANCH  25  28
HETATM   28  C10 UNL     1      17.359  23.883  17.615  1.00  0.00     0.145 C 
BRANCH  28  29
HETATM   29  C11 UNL     1      17.962  24.359  18.944  1.00  0.00     0.029 C 
BRANCH  29  30
HETATM   30  C12 UNL     1      17.275  25.374  19.719  1.00  0.00    -0.017 C 
HETATM   31  C13 UNL     1      17.897  26.703  19.885  1.00  0.00     0.010 C 
BRANCH  30  32
HETATM   32  C14 UNL     1      16.702  24.902  21.040  1.00  0.00     0.008 C 
BRANCH  32  33
HETATM   33  C15 UNL     1      15.243  24.992  21.222  1.00  0.00    -0.023 C 
HETATM   34  C16 UNL     1      14.823  23.594  21.750  1.00  0.00     0.009 C 
HETATM   35  C17 UNL     1      14.450  25.070  19.908  1.00  0.00     0.009 C 
ENDBRANCH  32  33
ENDBRANCH  30  32
ENDBRANCH  29  30
ENDBRANCH  28  29
BRANCH  28  36
HETATM   36  S1  UNL     1      18.701  23.595  16.503  1.00  0.00    -0.114 SA
BRANCH  36  37
HETATM   37  C18 UNL     1      18.852  24.338  14.951  1.00  0.00     0.023 A 
HETATM   38  C19 UNL     1      18.999  23.498  13.822  1.00  0.00     0.022 A 
HETATM   39  C20 UNL     1      18.969  23.931  12.522  1.00  0.00     0.025 A 
HETATM   40  C21 UNL     1      18.783  25.268  12.235  1.00  0.00     0.035 A 
HETATM   41 CL1  UNL     1      18.711  25.806  10.573  1.00  0.00    -0.084 Cl
HETATM   42  C22 UNL     1      18.638  26.121  13.317  1.00  0.00     0.049 A 
HETATM   43  C23 UNL     1      18.674  25.673  14.628  1.00  0.00     0.052 A 
HETATM   44 CL2  UNL     1      18.421  26.851  15.932  1.00  0.00    -0.083 Cl
ENDBRANCH  36  37
ENDBRANCH  28  36
ENDBRANCH  25  28
ENDBRANCH   1  24
TORSDOF 11
ENDMDL
