MODEL 1
REMARK VINA RESULT: -6.494120948      0.000      0.000
REMARK  15 active torsions:
REMARK  status: ('A' for Active; 'I' for Inactive)
REMARK    1  A    between atoms: C2_2  and  C3_3 
REMARK    2  A    between atoms: C3_3  and  N1_4 
REMARK    3  A    between atoms: C3_3  and  C4_8 
REMARK    4  A    between atoms: C4_8  and  O2_10 
REMARK    5  A    between atoms: O2_10  and  C5_11 
REMARK    6  A    between atoms: C6_12  and  C8_14 
REMARK    7  A    between atoms: C12_19  and  O3_20 
REMARK    8  A    between atoms: O3_20  and  C13_21 
REMARK    9  A    between atoms: C13_21  and  C14_23 
REMARK   10  A    between atoms: C23_33  and  C24_34 
REMARK   11  A    between atoms: C24_34  and  C25_35 
REMARK   12  A    between atoms: C25_35  and  O6_36 
REMARK   13  A    between atoms: C26_38  and  C27_39 
REMARK   14  A    between atoms: C27_39  and  C28_40 
REMARK   15  A    between atoms: C28_40  and  C29_41 
ROOT
HETATM    1  C5  UNL     1       8.418  17.618  19.267  1.00  0.00     0.155 C 
HETATM    2  C6  UNL     1       8.745  18.742  20.174  1.00  0.00     0.016 C 
HETATM    3  C7  UNL     1      10.002  18.299  21.024  1.00  0.00     0.023 C 
HETATM    4  C9  UNL     1       7.545  18.733  21.063  1.00  0.00     0.015 C 
HETATM    5  C10 UNL     1       6.503  19.534  20.319  1.00  0.00     0.015 C 
HETATM    6  C11 UNL     1       6.030  18.510  19.284  1.00  0.00     0.032 C 
HETATM    7  C12 UNL     1       4.749  18.081  19.984  1.00  0.00     0.167 C 
HETATM    8  C18 UNL     1       5.355  17.450  21.174  1.00  0.00    -0.028 C 
HETATM    9  C19 UNL     1       4.806  17.740  22.463  1.00  0.00    -0.006 A 
HETATM   10  C20 UNL     1       5.212  18.374  23.616  1.00  0.00     0.038 A 
HETATM   11  C21 UNL     1       4.193  18.343  24.538  1.00  0.00     0.142 A 
HETATM   12  O5  UNL     1       3.217  17.726  23.984  1.00  0.00    -0.334 OA
HETATM   13  C22 UNL     1       3.492  17.341  22.771  1.00  0.00     0.153 A 
HETATM   14  C23 UNL     1       6.890  17.381  21.013  1.00  0.00     0.004 C 
HETATM   15  C26 UNL     1       6.906  17.318  19.481  1.00  0.00     0.006 C 
ENDROOT
BRANCH   1  16
HETATM   16  O2  UNL     1       8.775  17.750  17.942  1.00  0.00    -0.312 OA
BRANCH  16  17
HETATM   17  C4  UNL     1       9.909  17.232  17.330  1.00  0.00     0.290 C 
HETATM   18  O1  UNL     1      10.940  17.121  18.048  1.00  0.00    -0.263 OA
BRANCH  17  19
HETATM   19  C3  UNL     1       9.949  16.817  15.909  1.00  0.00     0.282 C 
BRANCH  19  20
HETATM   20  C2  UNL     1       8.675  17.371  15.258  1.00  0.00     0.039 C 
HETATM   21  C1  UNL     1       8.068  16.202  14.490  1.00  0.00     0.007 C 
ENDBRANCH  19  20
BRANCH  19  22
HETATM   22  N1  UNL     1      11.055  17.441  15.255  1.00  0.00    -0.066 N 
ATOM     23  H13 UNL     1      11.561  16.810  14.634  1.00  0.00     0.275 HD
ATOM     24  H12 UNL     1      10.772  18.121  14.549  1.00  0.00     0.275 HD
ATOM     25  H11 UNL     1      11.644  17.843  15.985  1.00  0.00     0.275 HD
ENDBRANCH  19  22
ENDBRANCH  17  19
ENDBRANCH  16  17
ENDBRANCH   1  16
BRANCH   2  26
HETATM   26  C8  UNL     1       9.272  19.952  19.526  1.00  0.00     0.070 C 
HETATM   27 CL1  UNL     1      10.961  20.165  19.162  1.00  0.00    -0.100 Cl
ENDBRANCH   2  26
BRANCH  15  28
HETATM   28  C27 UNL     1       6.726  16.121  18.756  1.00  0.00     0.017 C 
BRANCH  28  29
HETATM   29  C28 UNL     1       6.205  15.897  17.418  1.00  0.00     0.029 C 
BRANCH  29  30
HETATM   30  C29 UNL     1       4.786  15.347  17.612  1.00  0.00    -0.008 C 
HETATM   31  C30 UNL     1       4.243  14.502  16.767  1.00  0.00     0.004 C 
HETATM   32  C31 UNL     1       5.007  14.050  15.585  1.00  0.00     0.061 C 
HETATM   33 CL2  UNL     1       2.629  13.913  17.039  1.00  0.00    -0.090 Cl
ENDBRANCH  29  30
ENDBRANCH  28  29
ENDBRANCH  15  28
BRANCH  14  34
HETATM   34  C24 UNL     1       7.218  16.247  21.785  1.00  0.00     0.041 C 
BRANCH  34  35
HETATM   35  C25 UNL     1       8.374  15.780  22.499  1.00  0.00     0.165 C 
BRANCH  35  36
HETATM   36  O6  UNL     1       8.798  14.574  21.822  1.00  0.00    -0.401 OA
ATOM     37  H6  UNL     1       8.403  13.855  22.300  1.00  0.00     0.209 HD
ENDBRANCH  35  36
ENDBRANCH  34  35
ENDBRANCH  14  34
BRANCH   7  38
HETATM   38  O3  UNL     1       3.972  19.199  20.393  1.00  0.00    -0.310 OA
BRANCH  38  39
HETATM   39  C13 UNL     1       2.683  19.445  20.002  1.00  0.00     0.267 C 
HETATM   40  O4  UNL     1       2.203  18.728  19.077  1.00  0.00    -0.264 OA
BRANCH  39  41
HETATM   41  C14 UNL     1       1.840  20.488  20.597  1.00  0.00     0.037 C 
HETATM   42  C15 UNL     1       2.251  21.861  20.113  1.00  0.00     0.025 C 
HETATM   43  C16 UNL     1       1.992  20.500  22.123  1.00  0.00     0.025 C 
HETATM   44  C17 UNL     1       0.365  20.320  20.328  1.00  0.00     0.025 C 
ENDBRANCH  39  41
ENDBRANCH  38  39
ENDBRANCH   7  38
TORSDOF 15
ENDMDL
MODEL 2
REMARK VINA RESULT: -6.374151298      1.619      2.027
REMARK  15 active torsions:
REMARK  status: ('A' for Active; 'I' for Inactive)
REMARK    1  A    between atoms: C2_2  and  C3_3 
REMARK    2  A    between atoms: C3_3  and  N1_4 
REMARK    3  A    between atoms: C3_3  and  C4_8 
REMARK    4  A    between atoms: C4_8  and  O2_10 
REMARK    5  A    between atoms: O2_10  and  C5_11 
REMARK    6  A    between atoms: C6_12  and  C8_14 
REMARK    7  A    between atoms: C12_19  and  O3_20 
REMARK    8  A    between atoms: O3_20  and  C13_21 
REMARK    9  A    between atoms: C13_21  and  C14_23 
REMARK   10  A    between atoms: C23_33  and  C24_34 
REMARK   11  A    between atoms: C24_34  and  C25_35 
REMARK   12  A    between atoms: C25_35  and  O6_36 
REMARK   13  A    between atoms: C26_38  and  C27_39 
REMARK   14  A    between atoms: C27_39  and  C28_40 
REMARK   15  A    between atoms: C28_40  and  C29_41 
ROOT
HETATM    1  C5  UNL     1       9.175  17.665  19.439  1.00  0.00     0.155 C 
HETATM    2  C6  UNL     1       9.380  18.687  20.490  1.00  0.00     0.016 C 
HETATM    3  C7  UNL     1      10.510  18.141  21.451  1.00  0.00     0.023 C 
HETATM    4  C9  UNL     1       8.072  18.608  21.206  1.00  0.00     0.015 C 
HETATM    5  C10 UNL     1       7.140  19.495  20.415  1.00  0.00     0.015 C 
HETATM    6  C11 UNL     1       6.809  18.587  19.227  1.00  0.00     0.032 C 
HETATM    7  C12 UNL     1       5.444  18.110  19.704  1.00  0.00     0.167 C 
HETATM    8  C18 UNL     1       5.884  17.354  20.893  1.00  0.00    -0.028 C 
HETATM    9  C19 UNL     1       5.168  17.522  22.121  1.00  0.00    -0.006 A 
HETATM   10  C20 UNL     1       5.416  18.032  23.375  1.00  0.00     0.038 A 
HETATM   11  C21 UNL     1       4.282  17.924  24.145  1.00  0.00     0.142 A 
HETATM   12  O5  UNL     1       3.388  17.381  23.406  1.00  0.00    -0.334 OA
HETATM   13  C22 UNL     1       3.823  17.114  22.209  1.00  0.00     0.153 A 
HETATM   14  C23 UNL     1       7.427  17.277  20.932  1.00  0.00     0.004 C 
HETATM   15  C26 UNL     1       7.648  17.367  19.418  1.00  0.00     0.006 C 
ENDROOT
BRANCH   1  16
HETATM   16  O2  UNL     1       9.707  17.922  18.194  1.00  0.00    -0.312 OA
BRANCH  16  17
HETATM   17  C4  UNL     1      11.053  17.960  17.854  1.00  0.00     0.290 C 
HETATM   18  O1  UNL     1      11.852  17.377  18.638  1.00  0.00    -0.263 OA
BRANCH  17  19
HETATM   19  C3  UNL     1      11.569  18.639  16.643  1.00  0.00     0.282 C 
BRANCH  19  20
HETATM   20  C2  UNL     1      12.616  19.651  17.126  1.00  0.00     0.039 C 
HETATM   21  C1  UNL     1      11.913  21.004  17.112  1.00  0.00     0.007 C 
ENDBRANCH  19  20
BRANCH  19  22
HETATM   22  N1  UNL     1      12.252  17.696  15.816  1.00  0.00    -0.066 N 
ATOM     23  H13 UNL     1      12.072  17.832  14.822  1.00  0.00     0.275 HD
ATOM     24  H12 UNL     1      13.261  17.844  15.788  1.00  0.00     0.275 HD
ATOM     25  H11 UNL     1      11.992  16.766  16.148  1.00  0.00     0.275 HD
ENDBRANCH  19  22
ENDBRANCH  17  19
ENDBRANCH  16  17
ENDBRANCH   1  16
BRANCH   2  26
HETATM   26  C8  UNL     1       9.992  19.947  20.044  1.00  0.00     0.070 C 
HETATM   27 CL1  UNL     1      11.618  20.404  20.462  1.00  0.00    -0.100 Cl
ENDBRANCH   2  26
BRANCH  15  28
HETATM   28  C27 UNL     1       7.565  16.252  18.558  1.00  0.00     0.017 C 
BRANCH  28  29
HETATM   29  C28 UNL     1       6.665  15.979  17.450  1.00  0.00     0.029 C 
BRANCH  29  30
HETATM   30  C29 UNL     1       7.554  15.905  16.202  1.00  0.00    -0.008 C 
HETATM   31  C30 UNL     1       7.264  15.129  15.183  1.00  0.00     0.004 C 
HETATM   32  C31 UNL     1       6.044  14.295  15.218  1.00  0.00     0.061 C 
HETATM   33 CL2  UNL     1       8.310  15.086  13.794  1.00  0.00    -0.090 Cl
ENDBRANCH  29  30
ENDBRANCH  28  29
ENDBRANCH  15  28
BRANCH  14  34
HETATM   34  C24 UNL     1       7.645  16.067  21.623  1.00  0.00     0.041 C 
BRANCH  34  35
HETATM   35  C25 UNL     1       8.548  15.606  22.641  1.00  0.00     0.165 C 
BRANCH  35  36
HETATM   36  O6  UNL     1       9.112  14.372  22.142  1.00  0.00    -0.401 OA
ATOM     37  H6  UNL     1       9.849  14.623  21.597  1.00  0.00     0.209 HD
ENDBRANCH  35  36
ENDBRANCH  34  35
ENDBRANCH  14  34
BRANCH   7  38
HETATM   38  O3  UNL     1       4.621  19.193  20.115  1.00  0.00    -0.310 OA
BRANCH  38  39
HETATM   39  C13 UNL     1       3.399  19.500  19.580  1.00  0.00     0.267 C 
HETATM   40  O4  UNL     1       3.114  19.009  18.450  1.00  0.00    -0.264 OA
BRANCH  39  41
HETATM   41  C14 UNL     1       2.416  20.362  20.244  1.00  0.00     0.037 C 
HETATM   42  C15 UNL     1       2.597  21.808  19.837  1.00  0.00     0.025 C 
HETATM   43  C16 UNL     1       2.594  20.313  21.766  1.00  0.00     0.025 C 
HETATM   44  C17 UNL     1       0.980  19.979  19.982  1.00  0.00     0.025 C 
ENDBRANCH  39  41
ENDBRANCH  38  39
ENDBRANCH   7  38
TORSDOF 15
ENDMDL
MODEL 3
REMARK VINA RESULT: -6.325742593      1.107      1.349
REMARK  15 active torsions:
REMARK  status: ('A' for Active; 'I' for Inactive)
REMARK    1  A    between atoms: C2_2  and  C3_3 
REMARK    2  A    between atoms: C3_3  and  N1_4 
REMARK    3  A    between atoms: C3_3  and  C4_8 
REMARK    4  A    between atoms: C4_8  and  O2_10 
REMARK    5  A    between atoms: O2_10  and  C5_11 
REMARK    6  A    between atoms: C6_12  and  C8_14 
REMARK    7  A    between atoms: C12_19  and  O3_20 
REMARK    8  A    between atoms: O3_20  and  C13_21 
REMARK    9  A    between atoms: C13_21  and  C14_23 
REMARK   10  A    between atoms: C23_33  and  C24_34 
REMARK   11  A    between atoms: C24_34  and  C25_35 
REMARK   12  A    between atoms: C25_35  and  O6_36 
REMARK   13  A    between atoms: C26_38  and  C27_39 
REMARK   14  A    between atoms: C27_39  and  C28_40 
REMARK   15  A    between atoms: C28_40  and  C29_41 
ROOT
HETATM    1  C5  UNL     1       8.402  17.722  19.319  1.00  0.00     0.155 C 
HETATM    2  C6  UNL     1       8.720  18.843  20.233  1.00  0.00     0.016 C 
HETATM    3  C7  UNL     1       9.974  18.402  21.086  1.00  0.00     0.023 C 
HETATM    4  C9  UNL     1       7.516  18.825  21.116  1.00  0.00     0.015 C 
HETATM    5  C10 UNL     1       6.473  19.624  20.371  1.00  0.00     0.015 C 
HETATM    6  C11 UNL     1       6.010  18.602  19.328  1.00  0.00     0.032 C 
HETATM    7  C12 UNL     1       4.727  18.164  20.021  1.00  0.00     0.167 C 
HETATM    8  C18 UNL     1       5.332  17.530  21.211  1.00  0.00    -0.028 C 
HETATM    9  C19 UNL     1       4.775  17.812  22.499  1.00  0.00    -0.006 A 
HETATM   10  C20 UNL     1       5.173  18.443  23.657  1.00  0.00     0.038 A 
HETATM   11  C21 UNL     1       4.149  18.402  24.574  1.00  0.00     0.142 A 
HETATM   12  O5  UNL     1       3.179  17.783  24.012  1.00  0.00    -0.334 OA
HETATM   13  C22 UNL     1       3.461  17.405  22.799  1.00  0.00     0.153 A 
HETATM   14  C23 UNL     1       6.868  17.469  21.056  1.00  0.00     0.004 C 
HETATM   15  C26 UNL     1       6.891  17.413  19.525  1.00  0.00     0.006 C 
ENDROOT
BRANCH   1  16
HETATM   16  O2  UNL     1       8.765  17.861  17.997  1.00  0.00    -0.312 OA
BRANCH  16  17
HETATM   17  C4  UNL     1       9.975  17.496  17.422  1.00  0.00     0.290 C 
HETATM   18  O1  UNL     1      10.867  17.065  18.204  1.00  0.00    -0.263 OA
BRANCH  17  19
HETATM   19  C3  UNL     1      10.248  17.590  15.969  1.00  0.00     0.282 C 
BRANCH  19  20
HETATM   20  C2  UNL     1      11.758  17.826  15.826  1.00  0.00     0.039 C 
HETATM   21  C1  UNL     1      12.173  17.061  14.575  1.00  0.00     0.007 C 
ENDBRANCH  19  20
BRANCH  19  22
HETATM   22  N1  UNL     1       9.961  16.340  15.343  1.00  0.00    -0.066 N 
ATOM     23  H13 UNL     1      10.660  15.624  15.538  1.00  0.00     0.275 HD
ATOM     24  H12 UNL     1       9.162  15.859  15.756  1.00  0.00     0.275 HD
ATOM     25  H11 UNL     1       9.845  16.526  14.346  1.00  0.00     0.275 HD
ENDBRANCH  19  22
ENDBRANCH  17  19
ENDBRANCH  16  17
ENDBRANCH   1  16
BRANCH   2  26
HETATM   26  C8  UNL     1       9.244  20.058  19.593  1.00  0.00     0.070 C 
HETATM   27 CL1  UNL     1      10.921  20.251  19.169  1.00  0.00    -0.100 Cl
ENDBRANCH   2  26
BRANCH  15  28
HETATM   28  C27 UNL     1       6.720  16.219  18.793  1.00  0.00     0.017 C 
BRANCH  28  29
HETATM   29  C28 UNL     1       5.765  15.877  17.753  1.00  0.00     0.029 C 
BRANCH  29  30
HETATM   30  C29 UNL     1       6.585  15.745  16.463  1.00  0.00    -0.008 C 
HETATM   31  C30 UNL     1       6.250  14.913  15.505  1.00  0.00     0.004 C 
HETATM   32  C31 UNL     1       5.047  14.067  15.653  1.00  0.00     0.061 C 
HETATM   33 CL2  UNL     1       7.219  14.806  14.064  1.00  0.00    -0.090 Cl
ENDBRANCH  29  30
ENDBRANCH  28  29
ENDBRANCH  15  28
BRANCH  14  34
HETATM   34  C24 UNL     1       7.197  16.333  21.826  1.00  0.00     0.041 C 
BRANCH  34  35
HETATM   35  C25 UNL     1       8.380  15.821  22.459  1.00  0.00     0.165 C 
BRANCH  35  36
HETATM   36  O6  UNL     1       8.756  14.645  21.707  1.00  0.00    -0.401 OA
ATOM     37  H6  UNL     1       9.643  14.801  21.404  1.00  0.00     0.209 HD
ENDBRANCH  35  36
ENDBRANCH  34  35
ENDBRANCH  14  34
BRANCH   7  38
HETATM   38  O3  UNL     1       3.943  19.276  20.431  1.00  0.00    -0.310 OA
BRANCH  38  39
HETATM   39  C13 UNL     1       2.661  19.528  20.022  1.00  0.00     0.267 C 
HETATM   40  O4  UNL     1       2.189  18.806  19.097  1.00  0.00    -0.264 OA
BRANCH  39  41
HETATM   41  C14 UNL     1       1.818  20.581  20.597  1.00  0.00     0.037 C 
HETATM   42  C15 UNL     1       2.319  21.953  20.203  1.00  0.00     0.025 C 
HETATM   43  C16 UNL     1       1.854  20.527  22.129  1.00  0.00     0.025 C 
HETATM   44  C17 UNL     1       0.362  20.487  20.212  1.00  0.00     0.025 C 
ENDBRANCH  39  41
ENDBRANCH  38  39
ENDBRANCH   7  38
TORSDOF 15
ENDMDL
MODEL 4
REMARK VINA RESULT: -6.006224888      2.459      6.032
REMARK  15 active torsions:
REMARK  status: ('A' for Active; 'I' for Inactive)
REMARK    1  A    between atoms: C2_2  and  C3_3 
REMARK    2  A    between atoms: C3_3  and  N1_4 
REMARK    3  A    between atoms: C3_3  and  C4_8 
REMARK    4  A    between atoms: C4_8  and  O2_10 
REMARK    5  A    between atoms: O2_10  and  C5_11 
REMARK    6  A    between atoms: C6_12  and  C8_14 
REMARK    7  A    between atoms: C12_19  and  O3_20 
REMARK    8  A    between atoms: O3_20  and  C13_21 
REMARK    9  A    between atoms: C13_21  and  C14_23 
REMARK   10  A    between atoms: C23_33  and  C24_34 
REMARK   11  A    between atoms: C24_34  and  C25_35 
REMARK   12  A    between atoms: C25_35  and  O6_36 
REMARK   13  A    between atoms: C26_38  and  C27_39 
REMARK   14  A    between atoms: C27_39  and  C28_40 
REMARK   15  A    between atoms: C28_40  and  C29_41 
ROOT
HETATM    1  C5  UNL     1       4.075  17.553  19.098  1.00  0.00     0.155 C 
HETATM    2  C6  UNL     1       2.653  17.391  18.721  1.00  0.00     0.016 C 
HETATM    3  C7  UNL     1       2.533  17.777  17.194  1.00  0.00     0.023 C 
HETATM    4  C9  UNL     1       2.030  18.478  19.535  1.00  0.00     0.015 C 
HETATM    5  C10 UNL     1       1.819  17.870  20.901  1.00  0.00     0.015 C 
HETATM    6  C11 UNL     1       3.237  17.937  21.474  1.00  0.00     0.032 C 
HETATM    7  C12 UNL     1       3.054  19.174  22.341  1.00  0.00     0.167 C 
HETATM    8  C18 UNL     1       2.828  20.160  21.264  1.00  0.00    -0.028 C 
HETATM    9  C19 UNL     1       1.759  21.101  21.405  1.00  0.00    -0.006 A 
HETATM   10  C20 UNL     1       0.565  21.376  20.777  1.00  0.00     0.038 A 
HETATM   11  C21 UNL     1      -0.050  22.431  21.408  1.00  0.00     0.142 A 
HETATM   12  O5  UNL     1       0.721  22.783  22.369  1.00  0.00    -0.334 OA
HETATM   13  C22 UNL     1       1.799  22.057  22.437  1.00  0.00     0.153 A 
HETATM   14  C23 UNL     1       3.072  19.504  19.886  1.00  0.00     0.004 C 
HETATM   15  C26 UNL     1       4.086  18.459  20.363  1.00  0.00     0.006 C 
ENDROOT
BRANCH   1  16
HETATM   16  O2  UNL     1       4.829  16.406  19.231  1.00  0.00    -0.312 OA
BRANCH  16  17
HETATM   17  C4  UNL     1       5.844  15.974  18.387  1.00  0.00     0.290 C 
HETATM   18  O1  UNL     1       7.003  15.910  18.882  1.00  0.00    -0.263 OA
BRANCH  17  19
HETATM   19  C3  UNL     1       5.622  15.596  16.972  1.00  0.00     0.282 C 
BRANCH  19  20
HETATM   20  C2  UNL     1       7.004  15.284  16.385  1.00  0.00     0.039 C 
HETATM   21  C1  UNL     1       6.740  14.761  14.977  1.00  0.00     0.007 C 
ENDBRANCH  19  20
BRANCH  19  22
HETATM   22  N1  UNL     1       4.860  14.391  16.909  1.00  0.00    -0.066 N 
ATOM     23  H13 UNL     1       5.389  13.602  16.538  1.00  0.00     0.275 HD
ATOM     24  H12 UNL     1       4.660  13.994  17.827  1.00  0.00     0.275 HD
ATOM     25  H11 UNL     1       4.018  14.598  16.370  1.00  0.00     0.275 HD
ENDBRANCH  19  22
ENDBRANCH  17  19
ENDBRANCH  16  17
ENDBRANCH   1  16
BRANCH   2  26
HETATM   26  C8  UNL     1       2.154  16.008  18.689  1.00  0.00     0.070 C 
HETATM   27 CL1  UNL     1       0.508  15.610  18.291  1.00  0.00    -0.100 Cl
ENDBRANCH   2  26
BRANCH  15  28
HETATM   28  C27 UNL     1       5.459  18.735  20.530  1.00  0.00     0.017 C 
BRANCH  28  29
HETATM   29  C28 UNL     1       6.369  18.389  21.609  1.00  0.00     0.029 C 
BRANCH  29  30
HETATM   30  C29 UNL     1       7.779  18.655  21.065  1.00  0.00    -0.008 C 
HETATM   31  C30 UNL     1       8.770  17.815  21.255  1.00  0.00     0.004 C 
HETATM   32  C31 UNL     1       8.541  16.567  22.014  1.00  0.00     0.061 C 
HETATM   33 CL2  UNL     1      10.348  18.169  20.614  1.00  0.00    -0.090 Cl
ENDBRANCH  29  30
ENDBRANCH  28  29
ENDBRANCH  15  28
BRANCH  14  34
HETATM   34  C24 UNL     1       3.482  20.604  19.104  1.00  0.00     0.041 C 
BRANCH  34  35
HETATM   35  C25 UNL     1       4.236  21.806  19.325  1.00  0.00     0.165 C 
BRANCH  35  36
HETATM   36  O6  UNL     1       3.937  22.673  18.208  1.00  0.00    -0.401 OA
ATOM     37  H6  UNL     1       3.674  22.102  17.496  1.00  0.00     0.209 HD
ENDBRANCH  35  36
ENDBRANCH  34  35
ENDBRANCH  14  34
BRANCH   7  38
HETATM   38  O3  UNL     1       1.887  19.086  23.147  1.00  0.00    -0.310 OA
BRANCH  38  39
HETATM   39  C13 UNL     1       1.880  18.953  24.509  1.00  0.00     0.267 C 
HETATM   40  O4  UNL     1       1.543  19.961  25.195  1.00  0.00    -0.264 OA
BRANCH  39  41
HETATM   41  C14 UNL     1       2.239  17.713  25.205  1.00  0.00     0.037 C 
HETATM   42  C15 UNL     1       1.646  16.508  24.510  1.00  0.00     0.025 C 
HETATM   43  C16 UNL     1       1.679  17.713  26.633  1.00  0.00     0.025 C 
HETATM   44  C17 UNL     1       3.725  17.489  25.343  1.00  0.00     0.025 C 
ENDBRANCH  39  41
ENDBRANCH  38  39
ENDBRANCH   7  38
TORSDOF 15
ENDMDL
MODEL 5
REMARK VINA RESULT: -5.773887369      2.201      5.680
REMARK  15 active torsions:
REMARK  status: ('A' for Active; 'I' for Inactive)
REMARK    1  A    between atoms: C2_2  and  C3_3 
REMARK    2  A    between atoms: C3_3  and  N1_4 
REMARK    3  A    between atoms: C3_3  and  C4_8 
REMARK    4  A    between atoms: C4_8  and  O2_10 
REMARK    5  A    between atoms: O2_10  and  C5_11 
REMARK    6  A    between atoms: C6_12  and  C8_14 
REMARK    7  A    between atoms: C12_19  and  O3_20 
REMARK    8  A    between atoms: O3_20  and  C13_21 
REMARK    9  A    between atoms: C13_21  and  C14_23 
REMARK   10  A    between atoms: C23_33  and  C24_34 
REMARK   11  A    between atoms: C24_34  and  C25_35 
REMARK   12  A    between atoms: C25_35  and  O6_36 
REMARK   13  A    between atoms: C26_38  and  C27_39 
REMARK   14  A    between atoms: C27_39  and  C28_40 
REMARK   15  A    between atoms: C28_40  and  C29_41 
ROOT
HETATM    1  C5  UNL     1       4.588  17.194  18.832  1.00  0.00     0.155 C 
HETATM    2  C6  UNL     1       3.186  16.735  18.713  1.00  0.00     0.016 C 
HETATM    3  C7  UNL     1       2.704  17.095  17.251  1.00  0.00     0.023 C 
HETATM    4  C9  UNL     1       2.514  17.660  19.674  1.00  0.00     0.015 C 
HETATM    5  C10 UNL     1       2.694  17.014  21.027  1.00  0.00     0.015 C 
HETATM    6  C11 UNL     1       4.149  17.378  21.335  1.00  0.00     0.032 C 
HETATM    7  C12 UNL     1       3.877  18.543  22.276  1.00  0.00     0.167 C 
HETATM    8  C18 UNL     1       3.253  19.464  21.303  1.00  0.00    -0.028 C 
HETATM    9  C19 UNL     1       2.058  20.154  21.678  1.00  0.00    -0.006 A 
HETATM   10  C20 UNL     1       0.736  20.173  21.291  1.00  0.00     0.038 A 
HETATM   11  C21 UNL     1       0.044  21.069  22.070  1.00  0.00     0.142 A 
HETATM   12  O5  UNL     1       0.891  21.572  22.890  1.00  0.00    -0.334 OA
HETATM   13  C22 UNL     1       2.089  21.092  22.728  1.00  0.00     0.153 A 
HETATM   14  C23 UNL     1       3.366  18.882  19.876  1.00  0.00     0.004 C 
HETATM   15  C26 UNL     1       4.647  18.075  20.113  1.00  0.00     0.006 C 
ENDROOT
BRANCH   1  16
HETATM   16  O2  UNL     1       5.576  16.234  18.773  1.00  0.00    -0.312 OA
BRANCH  16  17
HETATM   17  C4  UNL     1       6.340  15.891  17.665  1.00  0.00     0.290 C 
HETATM   18  O1  UNL     1       7.525  15.519  17.888  1.00  0.00    -0.263 OA
BRANCH  17  19
HETATM   19  C3  UNL     1       5.830  15.945  16.276  1.00  0.00     0.282 C 
BRANCH  19  20
HETATM   20  C2  UNL     1       7.042  16.231  15.380  1.00  0.00     0.039 C 
HETATM   21  C1  UNL     1       7.150  15.033  14.443  1.00  0.00     0.007 C 
ENDBRANCH  19  20
BRANCH  19  22
HETATM   22  N1  UNL     1       5.326  14.664  15.898  1.00  0.00    -0.066 N 
ATOM     23  H13 UNL     1       5.465  13.951  16.614  1.00  0.00     0.275 HD
ATOM     24  H12 UNL     1       4.307  14.626  15.872  1.00  0.00     0.275 HD
ATOM     25  H11 UNL     1       5.759  14.425  15.005  1.00  0.00     0.275 HD
ENDBRANCH  19  22
ENDBRANCH  17  19
ENDBRANCH  16  17
ENDBRANCH   1  16
BRANCH   2  26
HETATM   26  C8  UNL     1       2.990  15.278  18.709  1.00  0.00     0.070 C 
HETATM   27 CL1  UNL     1       2.108  14.450  17.458  1.00  0.00    -0.100 Cl
ENDBRANCH   2  26
BRANCH  15  28
HETATM   28  C27 UNL     1       5.939  18.637  20.039  1.00  0.00     0.017 C 
BRANCH  28  29
HETATM   29  C28 UNL     1       7.087  18.486  20.918  1.00  0.00     0.029 C 
BRANCH  29  30
HETATM   30  C29 UNL     1       8.243  18.037  20.015  1.00  0.00    -0.008 C 
HETATM   31  C30 UNL     1       9.441  18.568  20.100  1.00  0.00     0.004 C 
HETATM   32  C31 UNL     1       9.705  19.632  21.092  1.00  0.00     0.061 C 
HETATM   33 CL2  UNL     1      10.715  18.019  19.050  1.00  0.00    -0.090 Cl
ENDBRANCH  29  30
ENDBRANCH  28  29
ENDBRANCH  15  28
BRANCH  14  34
HETATM   34  C24 UNL     1       3.384  20.049  19.083  1.00  0.00     0.041 C 
BRANCH  34  35
HETATM   35  C25 UNL     1       3.384  21.465  19.326  1.00  0.00     0.165 C 
BRANCH  35  36
HETATM   36  O6  UNL     1       4.725  21.917  19.031  1.00  0.00    -0.401 OA
ATOM     37  H6  UNL     1       4.853  21.768  18.101  1.00  0.00     0.209 HD
ENDBRANCH  35  36
ENDBRANCH  34  35
ENDBRANCH  14  34
BRANCH   7  38
HETATM   38  O3  UNL     1       2.926  18.204  23.275  1.00  0.00    -0.310 OA
BRANCH  38  39
HETATM   39  C13 UNL     1       3.232  17.767  24.536  1.00  0.00     0.267 C 
HETATM   40  O4  UNL     1       4.268  17.054  24.675  1.00  0.00    -0.264 OA
BRANCH  39  41
HETATM   41  C14 UNL     1       2.427  18.081  25.721  1.00  0.00     0.037 C 
HETATM   42  C15 UNL     1       3.257  18.783  26.773  1.00  0.00     0.025 C 
HETATM   43  C16 UNL     1       1.897  16.797  26.370  1.00  0.00     0.025 C 
HETATM   44  C17 UNL     1       1.214  18.933  25.437  1.00  0.00     0.025 C 
ENDBRANCH  39  41
ENDBRANCH  38  39
ENDBRANCH   7  38
TORSDOF 15
ENDMDL
