MODEL 1
REMARK VINA RESULT: -7.636673485      0.000      0.000
REMARK  15 active torsions:
REMARK  status: ('A' for Active; 'I' for Inactive)
REMARK    1  A    between atoms: C4_4  and  C5_5 
REMARK    2  A    between atoms: C5_5  and  C6_6 
REMARK    3  A    between atoms: C10_10  and  O1_11 
REMARK    4  A    between atoms: O1_11  and  C11_12 
REMARK    5  A    between atoms: C11_12  and  C12_14 
REMARK    6  A    between atoms: C12_14  and  C13_15 
REMARK    7  A    between atoms: C13_15  and  C14_16 
REMARK    8  A    between atoms: C17_19  and  C19_21 
REMARK    9  A    between atoms: C19_21  and  C20_22 
REMARK   10  A    between atoms: C20_22  and  C21_23 
REMARK   11  A    between atoms: C26_30  and  C28_32 
REMARK   12  A    between atoms: C28_32  and  O5_33 
REMARK   13  A    between atoms: C28_32  and  C29_35 
REMARK   14  A    between atoms: C29_35  and  C30_36 
REMARK   15  A    between atoms: C32_41  and  O6_42 
ROOT
HETATM    1  C19 UNL     1       7.274  19.137  20.468  1.00  0.00     0.015 C 
ENDROOT
BRANCH   1   2
HETATM    2  C17 UNL     1       8.562  18.564  19.977  1.00  0.00    -0.016 C 
HETATM    3  C10 UNL     1       8.566  17.992  18.644  1.00  0.00     0.140 C 
HETATM    4  C9  UNL     1       9.961  17.444  18.249  1.00  0.00     0.034 C 
HETATM    5  C8  UNL     1      11.068  18.145  18.941  1.00  0.00     0.012 C 
HETATM    6  C6  UNL     1      10.832  19.536  19.387  1.00  0.00    -0.040 C 
HETATM    7  C7  UNL     1      11.803  19.796  20.555  1.00  0.00     0.015 C 
HETATM    8  C33 UNL     1       9.465  19.815  19.924  1.00  0.00     0.021 C 
HETATM    9  C18 UNL     1       9.072  17.666  21.081  1.00  0.00     0.018 C 
BRANCH   3  10
HETATM   10  O1  UNL     1       7.565  17.161  18.173  1.00  0.00    -0.315 OA
BRANCH  10  11
HETATM   11  C11 UNL     1       7.692  15.775  17.964  1.00  0.00     0.259 C 
HETATM   12  O2  UNL     1       8.154  15.173  18.954  1.00  0.00    -0.265 OA
BRANCH  11  13
HETATM   13  C12 UNL     1       7.308  15.143  16.686  1.00  0.00     0.111 C 
BRANCH  13  14
HETATM   14  C13 UNL     1       6.783  16.150  15.698  1.00  0.00     0.013 C 
BRANCH  14  15
HETATM   15  C14 UNL     1       7.712  16.405  14.563  1.00  0.00    -0.022 C 
HETATM   16  C15 UNL     1       8.805  17.384  14.889  1.00  0.00     0.009 C 
HETATM   17  C16 UNL     1       8.298  15.105  14.100  1.00  0.00     0.009 C 
ENDBRANCH  14  15
ENDBRANCH  13  14
ENDBRANCH  11  13
ENDBRANCH  10  11
ENDBRANCH   3  10
BRANCH   6  18
HETATM   18  C5  UNL     1      11.084  20.537  18.279  1.00  0.00     0.036 C 
BRANCH  18  19
HETATM   19  C4  UNL     1      12.178  20.210  17.374  1.00  0.00    -0.024 C 
HETATM   20  C2  UNL     1      13.269  20.984  17.301  1.00  0.00    -0.091 C 
HETATM   21  C1  UNL     1      14.393  20.650  16.372  1.00  0.00     0.042 C 
HETATM   22  C3  UNL     1      13.405  22.207  18.136  1.00  0.00     0.042 C 
ENDBRANCH  18  19
ENDBRANCH   6  18
ENDBRANCH   1   2
BRANCH   1  23
HETATM   23  C20 UNL     1       6.552  18.511  21.568  1.00  0.00     0.042 C 
BRANCH  23  24
HETATM   24  C21 UNL     1       5.176  18.098  21.089  1.00  0.00     0.098 C 
HETATM   25  C22 UNL     1       4.575  18.933  20.028  1.00  0.00     0.061 C 
HETATM   26  C23 UNL     1       3.501  17.975  19.476  1.00  0.00     0.057 C 
HETATM   27  C24 UNL     1       3.110  18.339  18.088  1.00  0.00     0.027 C 
HETATM   28  C25 UNL     1       4.257  16.698  19.499  1.00  0.00     0.269 C 
HETATM   29  C26 UNL     1       2.406  17.919  20.480  1.00  0.00     0.001 C 
HETATM   30  O3  UNL     1       4.109  15.652  18.824  1.00  0.00    -0.264 OA
HETATM   31  O4  UNL     1       5.264  16.819  20.467  1.00  0.00    -0.307 OA
HETATM   32  C27 UNL     1       1.732  19.272  20.676  1.00  0.00     0.019 C 
HETATM   33  C31 UNL     1       2.908  17.434  21.799  1.00  0.00     0.048 C 
HETATM   34  C32 UNL     1       4.224  17.957  22.242  1.00  0.00     0.154 C 
BRANCH  29  35
HETATM   35  C28 UNL     1       1.341  16.961  19.980  1.00  0.00     0.136 C 
BRANCH  35  36
HETATM   36  O5  UNL     1       0.116  17.581  19.783  1.00  0.00    -0.394 OA
ATOM     37  H5  UNL     1      -0.184  17.521  18.884  1.00  0.00     0.210 HD
ENDBRANCH  35  36
BRANCH  35  38
HETATM   38  C29 UNL     1       1.157  15.753  20.835  1.00  0.00     0.150 C 
BRANCH  38  39
HETATM   39  C30 UNL     1       0.922  14.564  19.923  1.00  0.00     0.390 C 
HETATM   40  F1  UNL     1      -0.366  14.126  19.984  1.00  0.00    -0.171 F 
HETATM   41  F2  UNL     1       1.799  13.528  20.223  1.00  0.00    -0.171 F 
HETATM   42  F3  UNL     1       1.161  14.998  18.616  1.00  0.00    -0.171 F 
ENDBRANCH  38  39
ENDBRANCH  35  38
ENDBRANCH  29  35
BRANCH  34  43
HETATM   43  O6  UNL     1       4.789  16.985  23.103  1.00  0.00    -0.392 OA
ATOM     44  H6  UNL     1       5.468  16.551  22.601  1.00  0.00     0.210 HD
ENDBRANCH  34  43
ENDBRANCH  23  24
ENDBRANCH   1  23
TORSDOF 15
ENDMDL
MODEL 2
REMARK VINA RESULT: -7.060446020      3.115      6.478
REMARK  15 active torsions:
REMARK  status: ('A' for Active; 'I' for Inactive)
REMARK    1  A    between atoms: C4_4  and  C5_5 
REMARK    2  A    between atoms: C5_5  and  C6_6 
REMARK    3  A    between atoms: C10_10  and  O1_11 
REMARK    4  A    between atoms: O1_11  and  C11_12 
REMARK    5  A    between atoms: C11_12  and  C12_14 
REMARK    6  A    between atoms: C12_14  and  C13_15 
REMARK    7  A    between atoms: C13_15  and  C14_16 
REMARK    8  A    between atoms: C17_19  and  C19_21 
REMARK    9  A    between atoms: C19_21  and  C20_22 
REMARK   10  A    between atoms: C20_22  and  C21_23 
REMARK   11  A    between atoms: C26_30  and  C28_32 
REMARK   12  A    between atoms: C28_32  and  O5_33 
REMARK   13  A    between atoms: C28_32  and  C29_35 
REMARK   14  A    between atoms: C29_35  and  C30_36 
REMARK   15  A    between atoms: C32_41  and  O6_42 
ROOT
HETATM    1  C19 UNL     1       7.139  15.618  18.262  1.00  0.00     0.015 C 
ENDROOT
BRANCH   1   2
HETATM    2  C17 UNL     1       7.367  16.597  19.365  1.00  0.00    -0.016 C 
HETATM    3  C10 UNL     1       8.206  17.743  19.070  1.00  0.00     0.140 C 
HETATM    4  C9  UNL     1       8.354  18.687  20.290  1.00  0.00     0.034 C 
HETATM    5  C8  UNL     1       7.192  18.623  21.208  1.00  0.00     0.012 C 
HETATM    6  C6  UNL     1       5.887  18.218  20.641  1.00  0.00    -0.040 C 
HETATM    7  C7  UNL     1       5.061  17.639  21.805  1.00  0.00     0.015 C 
HETATM    8  C33 UNL     1       5.942  17.141  19.605  1.00  0.00     0.021 C 
HETATM    9  C18 UNL     1       7.766  15.784  20.576  1.00  0.00     0.018 C 
BRANCH   3  10
HETATM   10  O1  UNL     1       9.400  17.650  18.378  1.00  0.00    -0.315 OA
BRANCH  10  11
HETATM   11  C11 UNL     1       9.804  18.505  17.336  1.00  0.00     0.259 C 
HETATM   12  O2  UNL     1       9.296  18.207  16.237  1.00  0.00    -0.265 OA
BRANCH  11  13
HETATM   13  C12 UNL     1      10.735  19.627  17.567  1.00  0.00     0.111 C 
BRANCH  13  14
HETATM   14  C13 UNL     1      12.147  19.272  17.182  1.00  0.00     0.013 C 
BRANCH  14  15
HETATM   15  C14 UNL     1      13.131  20.345  17.489  1.00  0.00    -0.022 C 
HETATM   16  C15 UNL     1      14.236  20.456  16.475  1.00  0.00     0.009 C 
HETATM   17  C16 UNL     1      12.413  21.655  17.621  1.00  0.00     0.009 C 
ENDBRANCH  14  15
ENDBRANCH  13  14
ENDBRANCH  11  13
ENDBRANCH  10  11
ENDBRANCH   3  10
BRANCH   6  18
HETATM   18  C5  UNL     1       5.150  19.388  20.023  1.00  0.00     0.036 C 
BRANCH  18  19
HETATM   19  C4  UNL     1       3.768  19.557  20.452  1.00  0.00    -0.024 C 
HETATM   20  C2  UNL     1       2.749  19.225  19.649  1.00  0.00    -0.091 C 
HETATM   21  C1  UNL     1       1.329  19.398  20.089  1.00  0.00     0.042 C 
HETATM   22  C3  UNL     1       2.986  18.674  18.288  1.00  0.00     0.042 C 
ENDBRANCH  18  19
ENDBRANCH   6  18
ENDBRANCH   1   2
BRANCH   1  23
HETATM   23  C20 UNL     1       6.728  16.069  16.939  1.00  0.00     0.042 C 
BRANCH  23  24
HETATM   24  C21 UNL     1       5.440  15.372  16.554  1.00  0.00     0.098 C 
HETATM   25  C22 UNL     1       4.558  14.967  17.669  1.00  0.00     0.061 C 
HETATM   26  C23 UNL     1       3.218  14.784  16.928  1.00  0.00     0.057 C 
HETATM   27  C24 UNL     1       2.064  14.894  17.859  1.00  0.00     0.027 C 
HETATM   28  C25 UNL     1       3.271  15.947  16.007  1.00  0.00     0.269 C 
HETATM   29  C26 UNL     1       3.319  13.526  16.142  1.00  0.00     0.001 C 
HETATM   30  O3  UNL     1       2.348  16.585  15.447  1.00  0.00    -0.264 OA
HETATM   31  O4  UNL     1       4.620  16.280  15.822  1.00  0.00    -0.307 OA
HETATM   32  C27 UNL     1       3.502  12.303  17.033  1.00  0.00     0.019 C 
HETATM   33  C31 UNL     1       4.448  13.587  15.168  1.00  0.00     0.048 C 
HETATM   34  C32 UNL     1       5.709  14.203  15.651  1.00  0.00     0.154 C 
BRANCH  29  35
HETATM   35  C28 UNL     1       2.024  13.329  15.378  1.00  0.00     0.136 C 
BRANCH  35  36
HETATM   36  O5  UNL     1       1.302  12.232  15.825  1.00  0.00    -0.394 OA
ATOM     37  H5  UNL     1       0.419  12.460  16.092  1.00  0.00     0.210 HD
ENDBRANCH  35  36
BRANCH  35  38
HETATM   38  C29 UNL     1       2.196  13.242  13.898  1.00  0.00     0.150 C 
BRANCH  38  39
HETATM   39  C30 UNL     1       0.918  13.737  13.248  1.00  0.00     0.390 C 
HETATM   40  F1  UNL     1       0.081  12.711  12.932  1.00  0.00    -0.171 F 
HETATM   41  F2  UNL     1       1.199  14.498  12.118  1.00  0.00    -0.171 F 
HETATM   42  F3  UNL     1       0.267  14.543  14.187  1.00  0.00    -0.171 F 
ENDBRANCH  38  39
ENDBRANCH  35  38
ENDBRANCH  29  35
BRANCH  34  43
HETATM   43  O6  UNL     1       6.377  14.725  14.518  1.00  0.00    -0.392 OA
ATOM     44  H6  UNL     1       6.415  14.018  13.884  1.00  0.00     0.210 HD
ENDBRANCH  34  43
ENDBRANCH  23  24
ENDBRANCH   1  23
TORSDOF 15
ENDMDL
MODEL 3
REMARK VINA RESULT: -6.997045574      1.620      2.178
REMARK  15 active torsions:
REMARK  status: ('A' for Active; 'I' for Inactive)
REMARK    1  A    between atoms: C4_4  and  C5_5 
REMARK    2  A    between atoms: C5_5  and  C6_6 
REMARK    3  A    between atoms: C10_10  and  O1_11 
REMARK    4  A    between atoms: O1_11  and  C11_12 
REMARK    5  A    between atoms: C11_12  and  C12_14 
REMARK    6  A    between atoms: C12_14  and  C13_15 
REMARK    7  A    between atoms: C13_15  and  C14_16 
REMARK    8  A    between atoms: C17_19  and  C19_21 
REMARK    9  A    between atoms: C19_21  and  C20_22 
REMARK   10  A    between atoms: C20_22  and  C21_23 
REMARK   11  A    between atoms: C26_30  and  C28_32 
REMARK   12  A    between atoms: C28_32  and  O5_33 
REMARK   13  A    between atoms: C28_32  and  C29_35 
REMARK   14  A    between atoms: C29_35  and  C30_36 
REMARK   15  A    between atoms: C32_41  and  O6_42 
ROOT
HETATM    1  C19 UNL     1       7.654  18.111  18.715  1.00  0.00     0.015 C 
ENDROOT
BRANCH   1   2
HETATM    2  C17 UNL     1       9.008  17.850  18.144  1.00  0.00    -0.016 C 
HETATM    3  C10 UNL     1       9.106  17.728  16.703  1.00  0.00     0.140 C 
HETATM    4  C9  UNL     1      10.562  17.470  16.236  1.00  0.00     0.034 C 
HETATM    5  C8  UNL     1      11.569  18.024  17.172  1.00  0.00     0.012 C 
HETATM    6  C6  UNL     1      11.170  19.174  18.012  1.00  0.00    -0.040 C 
HETATM    7  C7  UNL     1      12.080  19.148  19.256  1.00  0.00     0.015 C 
HETATM    8  C33 UNL     1       9.769  19.136  18.532  1.00  0.00     0.021 C 
HETATM    9  C18 UNL     1       9.590  16.705  18.943  1.00  0.00     0.018 C 
BRANCH   3  10
HETATM   10  O1  UNL     1       8.215  16.993  15.942  1.00  0.00    -0.315 OA
BRANCH  10  11
HETATM   11  C11 UNL     1       7.874  15.646  16.166  1.00  0.00     0.259 C 
HETATM   12  O2  UNL     1       8.757  14.850  15.786  1.00  0.00    -0.265 OA
BRANCH  11  13
HETATM   13  C12 UNL     1       6.592  15.261  16.788  1.00  0.00     0.111 C 
BRANCH  13  14
HETATM   14  C13 UNL     1       5.427  15.985  16.167  1.00  0.00     0.013 C 
BRANCH  14  15
HETATM   15  C14 UNL     1       4.389  15.072  15.615  1.00  0.00    -0.022 C 
HETATM   16  C15 UNL     1       4.368  13.719  16.271  1.00  0.00     0.009 C 
HETATM   17  C16 UNL     1       3.044  15.725  15.726  1.00  0.00     0.009 C 
ENDBRANCH  14  15
ENDBRANCH  13  14
ENDBRANCH  11  13
ENDBRANCH  10  11
ENDBRANCH   3  10
BRANCH   6  18
HETATM   18  C5  UNL     1      11.336  20.492  17.285  1.00  0.00     0.036 C 
BRANCH  18  19
HETATM   19  C4  UNL     1      12.075  21.520  18.007  1.00  0.00    -0.024 C 
HETATM   20  C2  UNL     1      13.317  21.863  17.640  1.00  0.00    -0.091 C 
HETATM   21  C1  UNL     1      14.077  22.919  18.380  1.00  0.00     0.042 C 
HETATM   22  C3  UNL     1      13.991  21.209  16.487  1.00  0.00     0.042 C 
ENDBRANCH  18  19
ENDBRANCH   6  18
ENDBRANCH   1   2
BRANCH   1  23
HETATM   23  C20 UNL     1       7.430  18.059  20.154  1.00  0.00     0.042 C 
BRANCH  23  24
HETATM   24  C21 UNL     1       5.949  17.880  20.420  1.00  0.00     0.098 C 
HETATM   25  C22 UNL     1       5.043  18.815  19.721  1.00  0.00     0.061 C 
HETATM   26  C23 UNL     1       3.707  18.051  19.816  1.00  0.00     0.057 C 
HETATM   27  C24 UNL     1       2.754  18.491  18.762  1.00  0.00     0.027 C 
HETATM   28  C25 UNL     1       4.182  16.668  19.559  1.00  0.00     0.269 C 
HETATM   29  C26 UNL     1       3.238  18.160  21.222  1.00  0.00     0.001 C 
HETATM   30  O3  UNL     1       3.573  15.668  19.110  1.00  0.00    -0.264 OA
HETATM   31  O4  UNL     1       5.536  16.612  19.918  1.00  0.00    -0.307 OA
HETATM   32  C27 UNL     1       2.951  19.602  21.625  1.00  0.00     0.019 C 
HETATM   33  C31 UNL     1       4.236  17.584  22.170  1.00  0.00     0.048 C 
HETATM   34  C32 UNL     1       5.663  17.881  21.894  1.00  0.00     0.154 C 
BRANCH  29  35
HETATM   35  C28 UNL     1       1.936  17.394  21.357  1.00  0.00     0.136 C 
BRANCH  35  36
HETATM   36  O5  UNL     1       0.845  18.227  21.559  1.00  0.00    -0.394 OA
ATOM     37  H5  UNL     1       0.985  19.102  21.219  1.00  0.00     0.210 HD
ENDBRANCH  35  36
BRANCH  35  38
HETATM   38  C29 UNL     1       1.956  16.336  22.409  1.00  0.00     0.150 C 
BRANCH  38  39
HETATM   39  C30 UNL     1       1.051  15.206  21.956  1.00  0.00     0.390 C 
HETATM   40  F1  UNL     1      -0.199  15.316  22.484  1.00  0.00    -0.171 F 
HETATM   41  F2  UNL     1       1.604  13.971  22.274  1.00  0.00    -0.171 F 
HETATM   42  F3  UNL     1       0.936  15.308  20.566  1.00  0.00    -0.171 F 
ENDBRANCH  38  39
ENDBRANCH  35  38
ENDBRANCH  29  35
BRANCH  34  43
HETATM   43  O6  UNL     1       6.422  16.819  22.443  1.00  0.00    -0.392 OA
ATOM     44  H6  UNL     1       7.031  17.219  23.054  1.00  0.00     0.210 HD
ENDBRANCH  34  43
ENDBRANCH  23  24
ENDBRANCH   1  23
TORSDOF 15
ENDMDL
MODEL 4
REMARK VINA RESULT: -6.924717438      1.295      1.770
REMARK  15 active torsions:
REMARK  status: ('A' for Active; 'I' for Inactive)
REMARK    1  A    between atoms: C4_4  and  C5_5 
REMARK    2  A    between atoms: C5_5  and  C6_6 
REMARK    3  A    between atoms: C10_10  and  O1_11 
REMARK    4  A    between atoms: O1_11  and  C11_12 
REMARK    5  A    between atoms: C11_12  and  C12_14 
REMARK    6  A    between atoms: C12_14  and  C13_15 
REMARK    7  A    between atoms: C13_15  and  C14_16 
REMARK    8  A    between atoms: C17_19  and  C19_21 
REMARK    9  A    between atoms: C19_21  and  C20_22 
REMARK   10  A    between atoms: C20_22  and  C21_23 
REMARK   11  A    between atoms: C26_30  and  C28_32 
REMARK   12  A    between atoms: C28_32  and  O5_33 
REMARK   13  A    between atoms: C28_32  and  C29_35 
REMARK   14  A    between atoms: C29_35  and  C30_36 
REMARK   15  A    between atoms: C32_41  and  O6_42 
ROOT
HETATM    1  C19 UNL     1       7.522  18.615  19.819  1.00  0.00     0.015 C 
ENDROOT
BRANCH   1   2
HETATM    2  C17 UNL     1       8.943  18.294  19.496  1.00  0.00    -0.016 C 
HETATM    3  C10 UNL     1       9.214  17.735  18.186  1.00  0.00     0.140 C 
HETATM    4  C9  UNL     1      10.724  17.457  17.971  1.00  0.00     0.034 C 
HETATM    5  C8  UNL     1      11.590  18.351  18.775  1.00  0.00     0.012 C 
HETATM    6  C6  UNL     1      11.048  19.672  19.161  1.00  0.00    -0.040 C 
HETATM    7  C7  UNL     1      11.807  20.106  20.430  1.00  0.00     0.015 C 
HETATM    8  C33 UNL     1       9.599  19.691  19.526  1.00  0.00     0.021 C 
HETATM    9  C18 UNL     1       9.474  17.504  20.672  1.00  0.00     0.018 C 
BRANCH   3  10
HETATM   10  O1  UNL     1       8.449  16.733  17.616  1.00  0.00    -0.315 OA
BRANCH  10  11
HETATM   11  C11 UNL     1       8.072  16.670  16.262  1.00  0.00     0.259 C 
HETATM   12  O2  UNL     1       8.741  17.431  15.534  1.00  0.00    -0.265 OA
BRANCH  11  13
HETATM   13  C12 UNL     1       6.990  15.781  15.796  1.00  0.00     0.111 C 
BRANCH  13  14
HETATM   14  C13 UNL     1       5.765  15.884  16.667  1.00  0.00     0.013 C 
BRANCH  14  15
HETATM   15  C14 UNL     1       4.681  14.942  16.276  1.00  0.00    -0.022 C 
HETATM   16  C15 UNL     1       3.434  15.628  15.793  1.00  0.00     0.009 C 
HETATM   17  C16 UNL     1       5.195  14.000  15.229  1.00  0.00     0.009 C 
ENDBRANCH  14  15
ENDBRANCH  13  14
ENDBRANCH  11  13
ENDBRANCH  10  11
ENDBRANCH   3  10
BRANCH   6  18
HETATM   18  C5  UNL     1      11.243  20.705  18.071  1.00  0.00     0.036 C 
BRANCH  18  19
HETATM   19  C4  UNL     1      12.360  20.462  17.167  1.00  0.00    -0.024 C 
HETATM   20  C2  UNL     1      13.452  21.237  17.195  1.00  0.00    -0.091 C 
HETATM   21  C1  UNL     1      14.601  20.989  16.268  1.00  0.00     0.042 C 
HETATM   22  C3  UNL     1      13.568  22.376  18.145  1.00  0.00     0.042 C 
ENDBRANCH  18  19
ENDBRANCH   6  18
ENDBRANCH   1   2
BRANCH   1  23
HETATM   23  C20 UNL     1       6.926  18.179  21.075  1.00  0.00     0.042 C 
BRANCH  23  24
HETATM   24  C21 UNL     1       5.421  18.120  20.917  1.00  0.00     0.098 C 
HETATM   25  C22 UNL     1       4.841  18.972  19.857  1.00  0.00     0.061 C 
HETATM   26  C23 UNL     1       3.466  18.300  19.664  1.00  0.00     0.057 C 
HETATM   27  C24 UNL     1       2.896  18.608  18.325  1.00  0.00     0.027 C 
HETATM   28  C25 UNL     1       3.862  16.872  19.757  1.00  0.00     0.269 C 
HETATM   29  C26 UNL     1       2.632  18.660  20.840  1.00  0.00     0.001 C 
HETATM   30  O3  UNL     1       3.313  15.844  19.295  1.00  0.00    -0.264 OA
HETATM   31  O4  UNL     1       5.048  16.808  20.502  1.00  0.00    -0.307 OA
HETATM   32  C27 UNL     1       2.381  20.161  20.931  1.00  0.00     0.019 C 
HETATM   33  C31 UNL     1       3.263  18.199  22.111  1.00  0.00     0.048 C 
HETATM   34  C32 UNL     1       4.731  18.376  22.226  1.00  0.00     0.154 C 
BRANCH  29  35
HETATM   35  C28 UNL     1       1.278  17.992  20.694  1.00  0.00     0.136 C 
BRANCH  35  36
HETATM   36  O5  UNL     1       0.277  18.885  20.339  1.00  0.00    -0.394 OA
ATOM     37  H5  UNL     1      -0.513  18.771  20.853  1.00  0.00     0.210 HD
ENDBRANCH  35  36
BRANCH  35  38
HETATM   38  C29 UNL     1       0.850  17.214  21.893  1.00  0.00     0.150 C 
BRANCH  38  39
HETATM   39  C30 UNL     1       0.510  15.806  21.442  1.00  0.00     0.390 C 
HETATM   40  F1  UNL     1       0.336  15.735  20.093  1.00  0.00    -0.171 F 
HETATM   41  F2  UNL     1      -0.620  15.334  22.101  1.00  0.00    -0.171 F 
HETATM   42  F3  UNL     1       1.601  14.997  21.773  1.00  0.00    -0.171 F 
ENDBRANCH  38  39
ENDBRANCH  35  38
ENDBRANCH  29  35
BRANCH  34  43
HETATM   43  O6  UNL     1       5.201  17.382  23.119  1.00  0.00    -0.392 OA
ATOM     44  H6  UNL     1       5.272  17.803  23.968  1.00  0.00     0.210 HD
ENDBRANCH  34  43
ENDBRANCH  23  24
ENDBRANCH   1  23
TORSDOF 15
ENDMDL
MODEL 5
REMARK VINA RESULT: -6.884410960      4.391      8.740
REMARK  15 active torsions:
REMARK  status: ('A' for Active; 'I' for Inactive)
REMARK    1  A    between atoms: C4_4  and  C5_5 
REMARK    2  A    between atoms: C5_5  and  C6_6 
REMARK    3  A    between atoms: C10_10  and  O1_11 
REMARK    4  A    between atoms: O1_11  and  C11_12 
REMARK    5  A    between atoms: C11_12  and  C12_14 
REMARK    6  A    between atoms: C12_14  and  C13_15 
REMARK    7  A    between atoms: C13_15  and  C14_16 
REMARK    8  A    between atoms: C17_19  and  C19_21 
REMARK    9  A    between atoms: C19_21  and  C20_22 
REMARK   10  A    between atoms: C20_22  and  C21_23 
REMARK   11  A    between atoms: C26_30  and  C28_32 
REMARK   12  A    between atoms: C28_32  and  O5_33 
REMARK   13  A    between atoms: C28_32  and  C29_35 
REMARK   14  A    between atoms: C29_35  and  C30_36 
REMARK   15  A    between atoms: C32_41  and  O6_42 
ROOT
HETATM    1  C19 UNL     1       5.701  18.001  20.572  1.00  0.00     0.015 C 
ENDROOT
BRANCH   1   2
HETATM    2  C17 UNL     1       4.367  17.839  19.923  1.00  0.00    -0.016 C 
HETATM    3  C10 UNL     1       3.878  18.951  19.130  1.00  0.00     0.140 C 
HETATM    4  C9  UNL     1       2.493  18.655  18.501  1.00  0.00     0.034 C 
HETATM    5  C8  UNL     1       2.264  17.207  18.277  1.00  0.00     0.012 C 
HETATM    6  C6  UNL     1       3.450  16.343  18.088  1.00  0.00    -0.040 C 
HETATM    7  C7  UNL     1       3.027  14.919  18.497  1.00  0.00     0.015 C 
HETATM    8  C33 UNL     1       4.632  16.678  18.941  1.00  0.00     0.021 C 
HETATM    9  C18 UNL     1       3.432  17.336  20.999  1.00  0.00     0.018 C 
BRANCH   3  10
HETATM   10  O1  UNL     1       3.952  20.268  19.546  1.00  0.00    -0.315 OA
BRANCH  10  11
HETATM   11  C11 UNL     1       2.933  20.964  20.224  1.00  0.00     0.259 C 
HETATM   12  O2  UNL     1       2.414  20.296  21.141  1.00  0.00    -0.265 OA
BRANCH  11  13
HETATM   13  C12 UNL     1       2.552  22.341  19.853  1.00  0.00     0.111 C 
BRANCH  13  14
HETATM   14  C13 UNL     1       3.689  23.082  19.201  1.00  0.00     0.013 C 
BRANCH  14  15
HETATM   15  C14 UNL     1       3.477  24.553  19.137  1.00  0.00    -0.022 C 
HETATM   16  C15 UNL     1       2.036  24.960  19.265  1.00  0.00     0.009 C 
HETATM   17  C16 UNL     1       4.302  25.220  20.198  1.00  0.00     0.009 C 
ENDBRANCH  14  15
ENDBRANCH  13  14
ENDBRANCH  11  13
ENDBRANCH  10  11
ENDBRANCH   3  10
BRANCH   6  18
HETATM   18  C5  UNL     1       3.928  16.343  16.651  1.00  0.00     0.036 C 
BRANCH  18  19
HETATM   19  C4  UNL     1       5.365  16.185  16.467  1.00  0.00    -0.024 C 
HETATM   20  C2  UNL     1       5.868  15.113  15.842  1.00  0.00    -0.091 C 
HETATM   21  C1  UNL     1       7.343  14.949  15.652  1.00  0.00     0.042 C 
HETATM   22  C3  UNL     1       4.983  14.040  15.314  1.00  0.00     0.042 C 
ENDBRANCH  18  19
ENDBRANCH   6  18
ENDBRANCH   1   2
BRANCH   1  23
HETATM   23  C20 UNL     1       6.638  16.887  20.638  1.00  0.00     0.042 C 
BRANCH  23  24
HETATM   24  C21 UNL     1       7.957  17.309  20.025  1.00  0.00     0.098 C 
HETATM   25  C22 UNL     1       8.035  18.704  19.541  1.00  0.00     0.061 C 
HETATM   26  C23 UNL     1       9.563  18.903  19.476  1.00  0.00     0.057 C 
HETATM   27  C24 UNL     1       9.924  20.345  19.531  1.00  0.00     0.027 C 
HETATM   28  C25 UNL     1       9.967  18.206  20.723  1.00  0.00     0.269 C 
HETATM   29  C26 UNL     1      10.057  18.141  18.300  1.00  0.00     0.001 C 
HETATM   30  O3  UNL     1      10.984  18.350  21.443  1.00  0.00    -0.264 OA
HETATM   31  O4  UNL     1       8.969  17.270  21.028  1.00  0.00    -0.307 OA
HETATM   32  C27 UNL     1       9.486  18.669  16.989  1.00  0.00     0.019 C 
HETATM   33  C31 UNL     1       9.726  16.690  18.420  1.00  0.00     0.048 C 
HETATM   34  C32 UNL     1       8.378  16.358  18.943  1.00  0.00     0.154 C 
BRANCH  29  35
HETATM   35  C28 UNL     1      11.563  18.294  18.223  1.00  0.00     0.136 C 
BRANCH  35  36
HETATM   36  O5  UNL     1      12.228  17.513  19.157  1.00  0.00    -0.394 OA
ATOM     37  H5  UNL     1      11.641  17.123  19.792  1.00  0.00     0.210 HD
ENDBRANCH  35  36
BRANCH  35  38
HETATM   38  C29 UNL     1      12.039  19.704  18.324  1.00  0.00     0.150 C 
BRANCH  38  39
HETATM   39  C30 UNL     1      12.969  19.971  17.155  1.00  0.00     0.390 C 
HETATM   40  F1  UNL     1      12.849  19.022  16.187  1.00  0.00    -0.171 F 
HETATM   41  F2  UNL     1      14.288  20.063  17.582  1.00  0.00    -0.171 F 
HETATM   42  F3  UNL     1      12.584  21.195  16.600  1.00  0.00    -0.171 F 
ENDBRANCH  38  39
ENDBRANCH  35  38
ENDBRANCH  29  35
BRANCH  34  43
HETATM   43  O6  UNL     1       8.471  15.084  19.553  1.00  0.00    -0.392 OA
ATOM     44  H6  UNL     1       8.747  15.240  20.449  1.00  0.00     0.210 HD
ENDBRANCH  34  43
ENDBRANCH  23  24
ENDBRANCH   1  23
TORSDOF 15
ENDMDL
