MODEL 1
REMARK VINA RESULT: -10.115001199      0.000      0.000
REMARK  12 active torsions:
REMARK  status: ('A' for Active; 'I' for Inactive)
REMARK    1  A    between atoms: O1_2  and  C2_3 
REMARK    2  A    between atoms: C4_5  and  C5_6 
REMARK    3  A    between atoms: C5_6  and  C6_7 
REMARK    4  A    between atoms: C5_6  and  C23_33 
REMARK    5  A    between atoms: C7_8  and  O2_9 
REMARK    6  A    between atoms: O2_9  and  C8_10 
REMARK    7  A    between atoms: C16_22  and  C17_23 
REMARK    8  A    between atoms: C17_23  and  O3_24 
REMARK    9  A    between atoms: C23_33  and  C24_34 
REMARK   10  A    between atoms: C24_34  and  C25_35 
REMARK   11  A    between atoms: C30_40  and  O4_41 
REMARK   12  A    between atoms: C32_43  and  O5_44 
ROOT
HETATM    1  C8  UNL     1      14.614  22.765  18.142  1.00  0.00     0.104 A 
HETATM    2  C9  UNL     1      15.149  23.432  19.264  1.00  0.00     0.071 A 
HETATM    3 CL1  UNL     1      14.147  23.658  20.681  1.00  0.00    -0.081 Cl
HETATM    4  C10 UNL     1      16.433  23.914  19.291  1.00  0.00     0.070 A 
HETATM    5  C11 UNL     1      17.208  23.721  18.150  1.00  0.00     0.131 A 
HETATM    6  F1  UNL     1      18.479  24.176  18.236  1.00  0.00    -0.205 F 
HETATM    7  C12 UNL     1      16.738  23.078  17.020  1.00  0.00     0.037 A 
HETATM    8  C13 UNL     1      15.413  22.605  17.051  1.00  0.00    -0.006 A 
HETATM    9  C14 UNL     1      14.946  21.974  15.815  1.00  0.00     0.062 C 
HETATM   10  C15 UNL     1      15.956  21.228  15.031  1.00  0.00     0.124 C 
HETATM   11  N1  UNL     1      17.324  21.546  15.230  1.00  0.00    -0.390 N 
ATOM     12  H1  UNL     1      18.085  20.916  14.977  1.00  0.00     0.159 HD
HETATM   13  C16 UNL     1      17.543  22.851  15.829  1.00  0.00     0.054 C 
ENDROOT
BRANCH   1  14
HETATM   14  O2  UNL     1      13.329  22.325  18.221  1.00  0.00    -0.320 OA
BRANCH  14  15
HETATM   15  C7  UNL     1      12.693  21.292  17.551  1.00  0.00     0.143 C 
HETATM   16  C6  UNL     1      11.383  20.854  17.939  1.00  0.00     0.032 C 
BRANCH  16  17
HETATM   17  C5  UNL     1      10.971  19.717  18.353  1.00  0.00    -0.046 C 
BRANCH  17  18
HETATM   18  C4  UNL     1      10.451  18.558  17.647  1.00  0.00    -0.024 A 
HETATM   19  C3  UNL     1       9.522  17.711  18.177  1.00  0.00     0.051 A 
HETATM   20  C2  UNL     1       9.109  16.557  17.501  1.00  0.00     0.105 A 
HETATM   21  C32 UNL     1       9.625  16.226  16.256  1.00  0.00     0.135 A 
HETATM   22  C30 UNL     1      10.551  17.073  15.722  1.00  0.00     0.105 A 
HETATM   23  C29 UNL     1      10.953  18.200  16.387  1.00  0.00     0.051 A 
BRANCH  20  24
HETATM   24  O1  UNL     1       8.172  15.722  18.066  1.00  0.00    -0.353 OA
HETATM   25  C1  UNL     1       6.808  16.075  18.010  1.00  0.00     0.210 C 
ENDBRANCH  20  24
BRANCH  21  26
HETATM   26  O5  UNL     1       9.184  15.072  15.624  1.00  0.00    -0.351 OA
HETATM   27  C33 UNL     1       8.196  15.265  14.604  1.00  0.00     0.210 C 
ENDBRANCH  21  26
BRANCH  22  28
HETATM   28  O4  UNL     1      11.107  16.800  14.478  1.00  0.00    -0.353 OA
HETATM   29  C31 UNL     1      12.454  17.118  14.175  1.00  0.00     0.210 C 
ENDBRANCH  22  28
ENDBRANCH  17  18
BRANCH  17  30
HETATM   30  C23 UNL     1      11.058  19.469  19.864  1.00  0.00     0.043 C 
BRANCH  30  31
HETATM   31  C24 UNL     1       9.784  19.746  20.590  1.00  0.00     0.032 C 
BRANCH  31  32
HETATM   32  C25 UNL     1       9.324  18.492  21.308  1.00  0.00    -0.024 C 
HETATM   33  C26 UNL     1       8.093  18.050  21.273  1.00  0.00    -0.091 C 
HETATM   34  C27 UNL     1       7.782  16.801  22.027  1.00  0.00     0.042 C 
HETATM   35  C28 UNL     1       7.033  18.744  20.523  1.00  0.00     0.042 C 
ENDBRANCH  31  32
ENDBRANCH  30  31
ENDBRANCH  17  30
ENDBRANCH  16  17
ENDBRANCH  14  15
ENDBRANCH   1  14
BRANCH  13  36
HETATM   36  C17 UNL     1      17.676  23.933  14.816  1.00  0.00     0.106 C 
HETATM   37  C18 UNL     1      18.303  23.367  13.523  1.00  0.00     0.045 C 
HETATM   38  C19 UNL     1      18.061  24.356  12.431  1.00  0.00     0.009 C 
HETATM   39  C20 UNL     1      18.741  25.667  12.768  1.00  0.00     0.079 C 
HETATM   40  C21 UNL     1      18.388  26.164  14.128  1.00  0.00     0.246 C 
HETATM   41  F2  UNL     1      19.264  27.225  14.401  1.00  0.00    -0.206 F 
HETATM   42  F3  UNL     1      17.129  26.706  14.155  1.00  0.00    -0.206 F 
HETATM   43  C22 UNL     1      18.575  25.080  15.207  1.00  0.00     0.123 C 
BRANCH  36  44
HETATM   44  O3  UNL     1      16.432  24.437  14.417  1.00  0.00    -0.383 OA
ATOM     45  H3  UNL     1      16.495  25.324  14.084  1.00  0.00     0.211 HD
ENDBRANCH  36  44
ENDBRANCH  13  36
TORSDOF 12
ENDMDL
MODEL 2
REMARK VINA RESULT: -10.031839263      0.085      1.944
REMARK  12 active torsions:
REMARK  status: ('A' for Active; 'I' for Inactive)
REMARK    1  A    between atoms: O1_2  and  C2_3 
REMARK    2  A    between atoms: C4_5  and  C5_6 
REMARK    3  A    between atoms: C5_6  and  C6_7 
REMARK    4  A    between atoms: C5_6  and  C23_33 
REMARK    5  A    between atoms: C7_8  and  O2_9 
REMARK    6  A    between atoms: O2_9  and  C8_10 
REMARK    7  A    between atoms: C16_22  and  C17_23 
REMARK    8  A    between atoms: C17_23  and  O3_24 
REMARK    9  A    between atoms: C23_33  and  C24_34 
REMARK   10  A    between atoms: C24_34  and  C25_35 
REMARK   11  A    between atoms: C30_40  and  O4_41 
REMARK   12  A    between atoms: C32_43  and  O5_44 
ROOT
HETATM    1  C8  UNL     1      14.612  22.783  18.169  1.00  0.00     0.104 A 
HETATM    2  C9  UNL     1      15.139  23.452  19.293  1.00  0.00     0.071 A 
HETATM    3 CL1  UNL     1      14.124  23.688  20.700  1.00  0.00    -0.081 Cl
HETATM    4  C10 UNL     1      16.424  23.928  19.331  1.00  0.00     0.070 A 
HETATM    5  C11 UNL     1      17.210  23.728  18.199  1.00  0.00     0.131 A 
HETATM    6  F1  UNL     1      18.482  24.177  18.296  1.00  0.00    -0.205 F 
HETATM    7  C12 UNL     1      16.748  23.083  17.066  1.00  0.00     0.037 A 
HETATM    8  C13 UNL     1      15.421  22.616  17.087  1.00  0.00    -0.006 A 
HETATM    9  C14 UNL     1      14.962  21.983  15.848  1.00  0.00     0.062 C 
HETATM   10  C15 UNL     1      15.976  21.230  15.077  1.00  0.00     0.124 C 
HETATM   11  N1  UNL     1      17.344  21.542  15.288  1.00  0.00    -0.390 N 
ATOM     12  H1  UNL     1      18.104  20.907  15.044  1.00  0.00     0.159 HD
HETATM   13  C16 UNL     1      17.563  22.847  15.884  1.00  0.00     0.054 C 
ENDROOT
BRANCH   1  14
HETATM   14  O2  UNL     1      13.324  22.350  18.237  1.00  0.00    -0.320 OA
BRANCH  14  15
HETATM   15  C7  UNL     1      12.691  21.314  17.569  1.00  0.00     0.143 C 
HETATM   16  C6  UNL     1      11.400  20.845  17.983  1.00  0.00     0.032 C 
BRANCH  16  17
HETATM   17  C5  UNL     1      11.020  19.695  18.393  1.00  0.00    -0.046 C 
BRANCH  17  18
HETATM   18  C4  UNL     1      10.612  18.498  17.677  1.00  0.00    -0.024 A 
HETATM   19  C3  UNL     1      11.063  18.177  16.430  1.00  0.00     0.051 A 
HETATM   20  C2  UNL     1      10.581  17.060  15.738  1.00  0.00     0.105 A 
HETATM   21  C32 UNL     1       9.622  16.226  16.294  1.00  0.00     0.135 A 
HETATM   22  C30 UNL     1       9.171  16.541  17.542  1.00  0.00     0.105 A 
HETATM   23  C29 UNL     1       9.645  17.635  18.215  1.00  0.00     0.051 A 
BRANCH  20  24
HETATM   24  O1  UNL     1      11.056  16.767  14.480  1.00  0.00    -0.353 OA
HETATM   25  C1  UNL     1      12.393  17.076  14.157  1.00  0.00     0.210 C 
ENDBRANCH  20  24
BRANCH  21  26
HETATM   26  O5  UNL     1       9.175  15.129  15.570  1.00  0.00    -0.351 OA
HETATM   27  C33 UNL     1       8.106  15.389  14.652  1.00  0.00     0.210 C 
ENDBRANCH  21  26
BRANCH  22  28
HETATM   28  O4  UNL     1       8.212  15.745  18.157  1.00  0.00    -0.353 OA
HETATM   29  C31 UNL     1       6.828  16.027  18.051  1.00  0.00     0.210 C 
ENDBRANCH  22  28
ENDBRANCH  17  18
BRANCH  17  30
HETATM   30  C23 UNL     1      11.017  19.478  19.910  1.00  0.00     0.043 C 
BRANCH  30  31
HETATM   31  C24 UNL     1       9.695  19.747  20.550  1.00  0.00     0.032 C 
BRANCH  31  32
HETATM   32  C25 UNL     1       9.215  18.502  21.271  1.00  0.00    -0.024 C 
HETATM   33  C26 UNL     1       7.977  18.078  21.235  1.00  0.00    -0.091 C 
HETATM   34  C27 UNL     1       7.647  16.837  21.992  1.00  0.00     0.042 C 
HETATM   35  C28 UNL     1       6.930  18.786  20.481  1.00  0.00     0.042 C 
ENDBRANCH  31  32
ENDBRANCH  30  31
ENDBRANCH  17  30
ENDBRANCH  16  17
ENDBRANCH  14  15
ENDBRANCH   1  14
BRANCH  13  36
HETATM   36  C17 UNL     1      17.711  23.926  14.869  1.00  0.00     0.106 C 
HETATM   37  C18 UNL     1      18.385  23.361  13.599  1.00  0.00     0.045 C 
HETATM   38  C19 UNL     1      18.163  24.340  12.494  1.00  0.00     0.009 C 
HETATM   39  C20 UNL     1      18.812  25.663  12.843  1.00  0.00     0.079 C 
HETATM   40  C21 UNL     1      18.412  26.163  14.189  1.00  0.00     0.246 C 
HETATM   41  F2  UNL     1      19.264  27.238  14.481  1.00  0.00    -0.206 F 
HETATM   42  F3  UNL     1      17.145  26.687  14.174  1.00  0.00    -0.206 F 
HETATM   43  C22 UNL     1      18.581  25.087  15.280  1.00  0.00     0.123 C 
BRANCH  36  44
HETATM   44  O3  UNL     1      16.473  24.409  14.429  1.00  0.00    -0.383 OA
ATOM     45  H3  UNL     1      16.567  25.105  13.790  1.00  0.00     0.211 HD
ENDBRANCH  36  44
ENDBRANCH  13  36
TORSDOF 12
ENDMDL
MODEL 3
REMARK VINA RESULT: -9.940681888      4.858     10.952
REMARK  12 active torsions:
REMARK  status: ('A' for Active; 'I' for Inactive)
REMARK    1  A    between atoms: O1_2  and  C2_3 
REMARK    2  A    between atoms: C4_5  and  C5_6 
REMARK    3  A    between atoms: C5_6  and  C6_7 
REMARK    4  A    between atoms: C5_6  and  C23_33 
REMARK    5  A    between atoms: C7_8  and  O2_9 
REMARK    6  A    between atoms: O2_9  and  C8_10 
REMARK    7  A    between atoms: C16_22  and  C17_23 
REMARK    8  A    between atoms: C17_23  and  O3_24 
REMARK    9  A    between atoms: C23_33  and  C24_34 
REMARK   10  A    between atoms: C24_34  and  C25_35 
REMARK   11  A    between atoms: C30_40  and  O4_41 
REMARK   12  A    between atoms: C32_43  and  O5_44 
ROOT
HETATM    1  C8  UNL     1      10.863  18.444  17.468  1.00  0.00     0.104 A 
HETATM    2  C9  UNL     1      10.474  17.571  16.431  1.00  0.00     0.071 A 
HETATM    3 CL1  UNL     1      11.240  17.712  14.863  1.00  0.00    -0.081 Cl
HETATM    4  C10 UNL     1       9.513  16.608  16.602  1.00  0.00     0.070 A 
HETATM    5  C11 UNL     1       8.919  16.517  17.858  1.00  0.00     0.131 A 
HETATM    6  F1  UNL     1       8.007  15.528  17.993  1.00  0.00    -0.205 F 
HETATM    7  C12 UNL     1       9.257  17.347  18.912  1.00  0.00     0.037 A 
HETATM    8  C13 UNL     1      10.250  18.316  18.677  1.00  0.00    -0.006 A 
HETATM    9  C14 UNL     1      10.538  19.201  19.807  1.00  0.00     0.062 C 
HETATM   10  C15 UNL     1      10.420  18.608  21.158  1.00  0.00     0.124 C 
HETATM   11  N1  UNL     1       9.617  17.448  21.310  1.00  0.00    -0.390 N 
ATOM     12  H1  UNL     1       9.703  16.811  22.102  1.00  0.00     0.159 HD
HETATM   13  C16 UNL     1       8.661  17.251  20.236  1.00  0.00     0.054 C 
ENDROOT
BRANCH   1  14
HETATM   14  O2  UNL     1      11.828  19.363  17.192  1.00  0.00    -0.320 OA
BRANCH  14  15
HETATM   15  C7  UNL     1      12.200  20.505  17.883  1.00  0.00     0.143 C 
HETATM   16  C6  UNL     1      13.259  21.347  17.405  1.00  0.00     0.032 C 
BRANCH  16  17
HETATM   17  C5  UNL     1      14.373  21.674  17.940  1.00  0.00    -0.046 C 
BRANCH  17  18
HETATM   18  C4  UNL     1      15.541  22.357  17.409  1.00  0.00    -0.024 A 
HETATM   19  C3  UNL     1      16.518  22.896  18.193  1.00  0.00     0.051 A 
HETATM   20  C2  UNL     1      17.584  23.621  17.648  1.00  0.00     0.105 A 
HETATM   21  C32 UNL     1      17.694  23.821  16.279  1.00  0.00     0.135 A 
HETATM   22  C30 UNL     1      16.721  23.280  15.491  1.00  0.00     0.105 A 
HETATM   23  C29 UNL     1      15.680  22.572  16.029  1.00  0.00     0.051 A 
BRANCH  20  24
HETATM   24  O1  UNL     1      18.551  24.154  18.470  1.00  0.00    -0.353 OA
HETATM   25  C1  UNL     1      18.221  25.231  19.317  1.00  0.00     0.210 C 
ENDBRANCH  20  24
BRANCH  21  26
HETATM   26  O5  UNL     1      18.769  24.546  15.785  1.00  0.00    -0.351 OA
HETATM   27  C33 UNL     1      18.573  25.964  15.703  1.00  0.00     0.210 C 
ENDBRANCH  21  26
BRANCH  22  28
HETATM   28  O4  UNL     1      16.774  23.443  14.112  1.00  0.00    -0.353 OA
HETATM   29  C31 UNL     1      16.220  24.579  13.471  1.00  0.00     0.210 C 
ENDBRANCH  22  28
ENDBRANCH  17  18
BRANCH  17  30
HETATM   30  C23 UNL     1      14.541  21.340  19.427  1.00  0.00     0.043 C 
BRANCH  30  31
HETATM   31  C24 UNL     1      13.670  22.154  20.325  1.00  0.00     0.032 C 
BRANCH  31  32
HETATM   32  C25 UNL     1      14.533  22.991  21.250  1.00  0.00    -0.024 C 
HETATM   33  C26 UNL     1      14.846  24.239  21.013  1.00  0.00    -0.091 C 
HETATM   34  C27 UNL     1      15.704  24.941  22.011  1.00  0.00     0.042 C 
HETATM   35  C28 UNL     1      14.381  24.948  19.810  1.00  0.00     0.042 C 
ENDBRANCH  31  32
ENDBRANCH  30  31
ENDBRANCH  17  30
ENDBRANCH  16  17
ENDBRANCH  14  15
ENDBRANCH   1  14
BRANCH  13  36
HETATM   36  C17 UNL     1       7.354  17.911  20.501  1.00  0.00     0.106 C 
HETATM   37  C18 UNL     1       6.869  17.562  21.925  1.00  0.00     0.045 C 
HETATM   38  C19 UNL     1       5.790  18.528  22.287  1.00  0.00     0.009 C 
HETATM   39  C20 UNL     1       4.627  18.381  21.328  1.00  0.00     0.079 C 
HETATM   40  C21 UNL     1       5.049  18.446  19.900  1.00  0.00     0.246 C 
HETATM   41  F2  UNL     1       3.938  18.049  19.140  1.00  0.00    -0.206 F 
HETATM   42  F3  UNL     1       5.321  19.734  19.514  1.00  0.00    -0.206 F 
HETATM   43  C22 UNL     1       6.221  17.491  19.597  1.00  0.00     0.123 C 
BRANCH  36  44
HETATM   44  O3  UNL     1       7.457  19.308  20.493  1.00  0.00    -0.383 OA
ATOM     45  H3  UNL     1       7.206  19.681  19.657  1.00  0.00     0.211 HD
ENDBRANCH  36  44
ENDBRANCH  13  36
TORSDOF 12
ENDMDL
MODEL 4
REMARK VINA RESULT: -9.912421906      4.984     11.577
REMARK  12 active torsions:
REMARK  status: ('A' for Active; 'I' for Inactive)
REMARK    1  A    between atoms: O1_2  and  C2_3 
REMARK    2  A    between atoms: C4_5  and  C5_6 
REMARK    3  A    between atoms: C5_6  and  C6_7 
REMARK    4  A    between atoms: C5_6  and  C23_33 
REMARK    5  A    between atoms: C7_8  and  O2_9 
REMARK    6  A    between atoms: O2_9  and  C8_10 
REMARK    7  A    between atoms: C16_22  and  C17_23 
REMARK    8  A    between atoms: C17_23  and  O3_24 
REMARK    9  A    between atoms: C23_33  and  C24_34 
REMARK   10  A    between atoms: C24_34  and  C25_35 
REMARK   11  A    between atoms: C30_40  and  O4_41 
REMARK   12  A    between atoms: C32_43  and  O5_44 
ROOT
HETATM    1  C8  UNL     1      10.370  18.652  17.466  1.00  0.00     0.104 A 
HETATM    2  C9  UNL     1      10.225  17.609  16.529  1.00  0.00     0.071 A 
HETATM    3 CL1  UNL     1      11.082  17.703  15.005  1.00  0.00    -0.081 Cl
HETATM    4  C10 UNL     1       9.435  16.513  16.764  1.00  0.00     0.070 A 
HETATM    5  C11 UNL     1       8.765  16.463  17.984  1.00  0.00     0.131 A 
HETATM    6  F1  UNL     1       8.029  15.346  18.190  1.00  0.00    -0.205 F 
HETATM    7  C12 UNL     1       8.865  17.457  18.940  1.00  0.00     0.037 A 
HETATM    8  C13 UNL     1       9.691  18.557  18.641  1.00  0.00    -0.006 A 
HETATM    9  C14 UNL     1       9.727  19.605  19.663  1.00  0.00     0.062 C 
HETATM   10  C15 UNL     1       9.603  19.162  21.070  1.00  0.00     0.124 C 
HETATM   11  N1  UNL     1       9.003  17.901  21.322  1.00  0.00    -0.390 N 
ATOM     12  H1  UNL     1       9.133  17.387  22.193  1.00  0.00     0.159 HD
HETATM   13  C16 UNL     1       8.187  17.409  20.227  1.00  0.00     0.054 C 
ENDROOT
BRANCH   1  14
HETATM   14  O2  UNL     1      11.181  19.694  17.132  1.00  0.00    -0.320 OA
BRANCH  14  15
HETATM   15  C7  UNL     1      11.956  20.517  17.932  1.00  0.00     0.143 C 
HETATM   16  C6  UNL     1      12.867  21.465  17.356  1.00  0.00     0.032 C 
BRANCH  16  17
HETATM   17  C5  UNL     1      14.136  21.574  17.461  1.00  0.00    -0.046 C 
BRANCH  17  18
HETATM   18  C4  UNL     1      14.971  22.516  18.187  1.00  0.00    -0.024 A 
HETATM   19  C3  UNL     1      16.269  22.779  17.857  1.00  0.00     0.051 A 
HETATM   20  C2  UNL     1      17.068  23.628  18.631  1.00  0.00     0.105 A 
HETATM   21  C32 UNL     1      16.571  24.244  19.771  1.00  0.00     0.135 A 
HETATM   22  C30 UNL     1      15.274  23.987  20.102  1.00  0.00     0.105 A 
HETATM   23  C29 UNL     1      14.496  23.155  19.343  1.00  0.00     0.051 A 
BRANCH  20  24
HETATM   24  O1  UNL     1      18.374  23.869  18.270  1.00  0.00    -0.353 OA
HETATM   25  C1  UNL     1      18.643  24.698  17.162  1.00  0.00     0.210 C 
ENDBRANCH  20  24
BRANCH  21  26
HETATM   26  O5  UNL     1      17.402  25.079  20.506  1.00  0.00    -0.351 OA
HETATM   27  C33 UNL     1      17.360  26.466  20.146  1.00  0.00     0.210 C 
ENDBRANCH  21  26
BRANCH  22  28
HETATM   28  O4  UNL     1      14.715  24.573  21.232  1.00  0.00    -0.353 OA
HETATM   29  C31 UNL     1      14.473  23.834  22.416  1.00  0.00     0.210 C 
ENDBRANCH  22  28
ENDBRANCH  17  18
BRANCH  17  30
HETATM   30  C23 UNL     1      14.974  20.514  16.737  1.00  0.00     0.043 C 
BRANCH  30  31
HETATM   31  C24 UNL     1      15.102  20.752  15.269  1.00  0.00     0.032 C 
BRANCH  31  32
HETATM   32  C25 UNL     1      16.524  21.167  14.942  1.00  0.00    -0.024 C 
HETATM   33  C26 UNL     1      16.852  22.370  14.546  1.00  0.00    -0.091 C 
HETATM   34  C27 UNL     1      18.291  22.638  14.260  1.00  0.00     0.042 C 
HETATM   35  C28 UNL     1      15.855  23.440  14.381  1.00  0.00     0.042 C 
ENDBRANCH  31  32
ENDBRANCH  30  31
ENDBRANCH  17  30
ENDBRANCH  16  17
ENDBRANCH  14  15
ENDBRANCH   1  14
BRANCH  13  36
HETATM   36  C17 UNL     1       6.768  17.846  20.324  1.00  0.00     0.106 C 
HETATM   37  C18 UNL     1       6.349  17.938  21.808  1.00  0.00     0.045 C 
HETATM   38  C19 UNL     1       5.089  18.735  21.875  1.00  0.00     0.009 C 
HETATM   39  C20 UNL     1       3.994  18.028  21.104  1.00  0.00     0.079 C 
HETATM   40  C21 UNL     1       4.410  17.662  19.720  1.00  0.00     0.246 C 
HETATM   41  F2  UNL     1       3.416  16.809  19.220  1.00  0.00    -0.206 F 
HETATM   42  F3  UNL     1       4.413  18.754  18.891  1.00  0.00    -0.206 F 
HETATM   43  C22 UNL     1       5.759  16.916  19.699  1.00  0.00     0.123 C 
BRANCH  36  44
HETATM   44  O3  UNL     1       6.579  19.139  19.821  1.00  0.00    -0.383 OA
ATOM     45  H3  UNL     1       5.711  19.474  20.011  1.00  0.00     0.211 HD
ENDBRANCH  36  44
ENDBRANCH  13  36
TORSDOF 12
ENDMDL
MODEL 5
REMARK VINA RESULT: -9.904299245      4.967     11.397
REMARK  12 active torsions:
REMARK  status: ('A' for Active; 'I' for Inactive)
REMARK    1  A    between atoms: O1_2  and  C2_3 
REMARK    2  A    between atoms: C4_5  and  C5_6 
REMARK    3  A    between atoms: C5_6  and  C6_7 
REMARK    4  A    between atoms: C5_6  and  C23_33 
REMARK    5  A    between atoms: C7_8  and  O2_9 
REMARK    6  A    between atoms: O2_9  and  C8_10 
REMARK    7  A    between atoms: C16_22  and  C17_23 
REMARK    8  A    between atoms: C17_23  and  O3_24 
REMARK    9  A    between atoms: C23_33  and  C24_34 
REMARK   10  A    between atoms: C24_34  and  C25_35 
REMARK   11  A    between atoms: C30_40  and  O4_41 
REMARK   12  A    between atoms: C32_43  and  O5_44 
ROOT
HETATM    1  C8  UNL     1      10.353  18.731  17.428  1.00  0.00     0.104 A 
HETATM    2  C9  UNL     1      10.239  17.650  16.529  1.00  0.00     0.071 A 
HETATM    3 CL1  UNL     1      11.065  17.731  14.988  1.00  0.00    -0.081 Cl
HETATM    4  C10 UNL     1       9.503  16.530  16.815  1.00  0.00     0.070 A 
HETATM    5  C11 UNL     1       8.855  16.492  18.048  1.00  0.00     0.131 A 
HETATM    6  F1  UNL     1       8.174  15.351  18.304  1.00  0.00    -0.205 F 
HETATM    7  C12 UNL     1       8.927  17.521  18.968  1.00  0.00     0.037 A 
HETATM    8  C13 UNL     1       9.698  18.646  18.618  1.00  0.00    -0.006 A 
HETATM    9  C14 UNL     1       9.705  19.729  19.603  1.00  0.00     0.062 C 
HETATM   10  C15 UNL     1       9.623  19.329  21.026  1.00  0.00     0.124 C 
HETATM   11  N1  UNL     1       9.084  18.052  21.331  1.00  0.00    -0.390 N 
ATOM     12  H1  UNL     1       9.252  17.574  22.216  1.00  0.00     0.159 HD
HETATM   13  C16 UNL     1       8.274  17.488  20.267  1.00  0.00     0.054 C 
ENDROOT
BRANCH   1  14
HETATM   14  O2  UNL     1      11.111  19.795  17.045  1.00  0.00    -0.320 OA
BRANCH  14  15
HETATM   15  C7  UNL     1      11.853  20.685  17.804  1.00  0.00     0.143 C 
HETATM   16  C6  UNL     1      12.878  21.492  17.207  1.00  0.00     0.032 C 
BRANCH  16  17
HETATM   17  C5  UNL     1      14.134  21.551  17.435  1.00  0.00    -0.046 C 
BRANCH  17  18
HETATM   18  C4  UNL     1      14.926  22.429  18.279  1.00  0.00    -0.024 A 
HETATM   19  C3  UNL     1      14.425  23.072  19.374  1.00  0.00     0.051 A 
HETATM   20  C2  UNL     1      15.196  23.976  20.113  1.00  0.00     0.105 A 
HETATM   21  C32 UNL     1      16.509  24.257  19.765  1.00  0.00     0.135 A 
HETATM   22  C30 UNL     1      17.015  23.614  18.674  1.00  0.00     0.105 A 
HETATM   23  C29 UNL     1      16.258  22.730  17.954  1.00  0.00     0.051 A 
BRANCH  20  24
HETATM   24  O1  UNL     1      14.657  24.610  21.210  1.00  0.00    -0.353 OA
HETATM   25  C1  UNL     1      14.438  23.875  22.393  1.00  0.00     0.210 C 
ENDBRANCH  20  24
BRANCH  21  26
HETATM   26  O5  UNL     1      17.234  25.161  20.529  1.00  0.00    -0.351 OA
HETATM   27  C33 UNL     1      17.371  26.473  19.969  1.00  0.00     0.210 C 
ENDBRANCH  21  26
BRANCH  22  28
HETATM   28  O4  UNL     1      18.325  23.850  18.273  1.00  0.00    -0.353 OA
HETATM   29  C31 UNL     1      18.629  24.652  17.146  1.00  0.00     0.210 C 
ENDBRANCH  22  28
ENDBRANCH  17  18
BRANCH  17  30
HETATM   30  C23 UNL     1      15.004  20.495  16.742  1.00  0.00     0.043 C 
BRANCH  30  31
HETATM   31  C24 UNL     1      15.148  20.709  15.272  1.00  0.00     0.032 C 
BRANCH  31  32
HETATM   32  C25 UNL     1      16.568  21.140  14.957  1.00  0.00    -0.024 C 
HETATM   33  C26 UNL     1      16.887  22.349  14.570  1.00  0.00    -0.091 C 
HETATM   34  C27 UNL     1      18.325  22.632  14.295  1.00  0.00     0.042 C 
HETATM   35  C28 UNL     1      15.880  23.409  14.403  1.00  0.00     0.042 C 
ENDBRANCH  31  32
ENDBRANCH  30  31
ENDBRANCH  17  30
ENDBRANCH  16  17
ENDBRANCH  14  15
ENDBRANCH   1  14
BRANCH  13  36
HETATM   36  C17 UNL     1       6.838  17.865  20.376  1.00  0.00     0.106 C 
HETATM   37  C18 UNL     1       6.427  17.938  21.863  1.00  0.00     0.045 C 
HETATM   38  C19 UNL     1       5.134  18.681  21.940  1.00  0.00     0.009 C 
HETATM   39  C20 UNL     1       4.064  17.929  21.176  1.00  0.00     0.079 C 
HETATM   40  C21 UNL     1       4.486  17.583  19.789  1.00  0.00     0.246 C 
HETATM   41  F2  UNL     1       3.524  16.689  19.295  1.00  0.00    -0.206 F 
HETATM   42  F3  UNL     1       4.437  18.675  18.961  1.00  0.00    -0.206 F 
HETATM   43  C22 UNL     1       5.864  16.894  19.757  1.00  0.00     0.123 C 
BRANCH  36  44
HETATM   44  O3  UNL     1       6.592  19.149  19.876  1.00  0.00    -0.383 OA
ATOM     45  H3  UNL     1       6.345  19.759  20.561  1.00  0.00     0.211 HD
ENDBRANCH  36  44
ENDBRANCH  13  36
TORSDOF 12
ENDMDL
