MODEL 1
REMARK VINA RESULT: -11.549911163      0.000      0.000
REMARK  6 active torsions:
REMARK  status: ('A' for Active; 'I' for Inactive)
REMARK    1  A    between atoms: C5_6  and  N2_7 
REMARK    2  A    between atoms: N2_7  and  C6_9 
REMARK    3  A    between atoms: C6_9  and  C7_13 
REMARK    4  A    between atoms: C10_16  and  C11_17 
REMARK       I    between atoms: C11_17  and  N4_19 
REMARK    5  A    between atoms: N4_19  and  C12_21 
REMARK    6  A    between atoms: C16_25  and  C17_26 
ROOT
HETATM    1  N1  UNL     1      61.951   6.802   5.538  1.00  0.00    -0.191 NA
HETATM    2  C1  UNL     1      61.520   6.918   4.476  1.00  0.00     0.099 C 
HETATM    3  C2  UNL     1      60.970   7.061   3.152  1.00  0.00     0.044 A 
HETATM    4  C3  UNL     1      61.207   8.251   2.486  1.00  0.00     0.025 A 
HETATM    5  C4  UNL     1      60.670   8.362   1.219  1.00  0.00     0.031 A 
HETATM    6  C5  UNL     1      59.936   7.384   0.603  1.00  0.00     0.033 A 
HETATM    7  C26 UNL     1      59.711   6.190   1.299  1.00  0.00     0.031 A 
HETATM    8  C27 UNL     1      60.235   6.056   2.562  1.00  0.00     0.025 A 
ENDROOT
BRANCH   6   9
HETATM    9  N2  UNL     1      59.414   7.553  -0.690  1.00  0.00    -0.342 N 
ATOM     10  H2  UNL     1      58.415   7.421  -0.846  1.00  0.00     0.167 HD
BRANCH   9  11
HETATM   11  C6  UNL     1      60.261   7.912  -1.800  1.00  0.00     0.109 C 
HETATM   12  N3  UNL     1      60.462   9.159  -1.965  1.00  0.00    -0.385 N 
ATOM     13  H32 UNL     1      60.065   9.887  -1.371  1.00  0.00     0.157 HD
ATOM     14  H31 UNL     1      61.062   9.412  -2.750  1.00  0.00     0.157 HD
BRANCH  11  15
HETATM   15  C7  UNL     1      60.826   6.876  -2.647  1.00  0.00     0.007 A 
HETATM   16  C8  UNL     1      60.983   5.593  -2.182  1.00  0.00     0.016 A 
HETATM   17  C9  UNL     1      61.525   4.644  -3.025  1.00  0.00     0.018 A 
HETATM   18  C10 UNL     1      61.916   4.922  -4.312  1.00  0.00     0.032 A 
HETATM   19  C24 UNL     1      61.762   6.200  -4.780  1.00  0.00     0.018 A 
HETATM   20  C25 UNL     1      61.211   7.181  -3.935  1.00  0.00     0.016 A 
BRANCH  18  21
HETATM   21  C11 UNL     1      62.496   3.873  -5.164  1.00  0.00     0.256 C 
HETATM   22  O1  UNL     1      63.458   4.251  -5.885  1.00  0.00    -0.267 OA
HETATM   23  N4  UNL     1      61.970   2.565  -5.131  1.00  0.00    -0.323 N 
ATOM     24  H4  UNL     1      61.190   2.407  -4.493  1.00  0.00     0.169 HD
BRANCH  23  25
HETATM   25  C12 UNL     1      62.401   1.446  -5.881  1.00  0.00     0.035 A 
HETATM   26  C13 UNL     1      61.603   1.001  -6.944  1.00  0.00     0.029 A 
HETATM   27  C14 UNL     1      61.934  -0.072  -7.740  1.00  0.00     0.003 A 
HETATM   28  C15 UNL     1      63.113  -0.735  -7.467  1.00  0.00     0.012 A 
HETATM   29  C16 UNL     1      63.938  -0.364  -6.454  1.00  0.00    -0.024 A 
HETATM   30  C23 UNL     1      63.555   0.738  -5.672  1.00  0.00     0.042 A 
BRANCH  29  31
HETATM   31  C17 UNL     1      65.185  -1.064  -6.164  1.00  0.00    -0.026 A 
HETATM   32  C18 UNL     1      66.297  -0.888  -6.963  1.00  0.00     0.012 A 
HETATM   33  C19 UNL     1      67.492  -1.539  -6.711  1.00  0.00     0.001 A 
HETATM   34  C20 UNL     1      67.569  -2.395  -5.617  1.00  0.00     0.000 A 
HETATM   35  C21 UNL     1      66.475  -2.596  -4.792  1.00  0.00     0.001 A 
HETATM   36  C22 UNL     1      65.320  -1.927  -5.090  1.00  0.00     0.012 A 
ENDBRANCH  29  31
ENDBRANCH  23  25
ENDBRANCH  18  21
ENDBRANCH  11  15
ENDBRANCH   9  11
ENDBRANCH   6   9
TORSDOF 6
ENDMDL
MODEL 2
REMARK VINA RESULT: -11.363843489      1.815      2.609
REMARK  6 active torsions:
REMARK  status: ('A' for Active; 'I' for Inactive)
REMARK    1  A    between atoms: C5_6  and  N2_7 
REMARK    2  A    between atoms: N2_7  and  C6_9 
REMARK    3  A    between atoms: C6_9  and  C7_13 
REMARK    4  A    between atoms: C10_16  and  C11_17 
REMARK       I    between atoms: C11_17  and  N4_19 
REMARK    5  A    between atoms: N4_19  and  C12_21 
REMARK    6  A    between atoms: C16_25  and  C17_26 
ROOT
HETATM    1  N1  UNL     1      62.324   6.735   7.992  1.00  0.00    -0.191 NA
HETATM    2  C1  UNL     1      62.132   6.981   6.883  1.00  0.00     0.099 C 
HETATM    3  C2  UNL     1      61.888   7.278   5.495  1.00  0.00     0.044 A 
HETATM    4  C3  UNL     1      61.185   8.434   5.202  1.00  0.00     0.025 A 
HETATM    5  C4  UNL     1      60.964   8.696   3.865  1.00  0.00     0.031 A 
HETATM    6  C5  UNL     1      61.393   7.895   2.841  1.00  0.00     0.033 A 
HETATM    7  C26 UNL     1      62.102   6.732   3.163  1.00  0.00     0.031 A 
HETATM    8  C27 UNL     1      62.333   6.450   4.488  1.00  0.00     0.025 A 
ENDROOT
BRANCH   6   9
HETATM    9  N2  UNL     1      61.138   8.213   1.496  1.00  0.00    -0.342 N 
ATOM     10  H2  UNL     1      61.688   8.942   1.042  1.00  0.00     0.167 HD
BRANCH   9  11
HETATM   11  C6  UNL     1      60.114   7.530   0.744  1.00  0.00     0.109 C 
HETATM   12  N3  UNL     1      58.921   7.689   1.160  1.00  0.00    -0.385 N 
ATOM     13  H32 UNL     1      58.667   8.255   1.970  1.00  0.00     0.157 HD
ATOM     14  H31 UNL     1      58.197   7.206   0.629  1.00  0.00     0.157 HD
BRANCH  11  15
HETATM   15  C7  UNL     1      60.476   6.724  -0.408  1.00  0.00     0.007 A 
HETATM   16  C8  UNL     1      60.893   5.425  -0.258  1.00  0.00     0.016 A 
HETATM   17  C9  UNL     1      61.226   4.700  -1.384  1.00  0.00     0.018 A 
HETATM   18  C10 UNL     1      61.158   5.218  -2.655  1.00  0.00     0.032 A 
HETATM   19  C24 UNL     1      60.743   6.514  -2.810  1.00  0.00     0.018 A 
HETATM   20  C25 UNL     1      60.399   7.268  -1.673  1.00  0.00     0.016 A 
BRANCH  18  21
HETATM   21  C11 UNL     1      61.533   4.403  -3.819  1.00  0.00     0.256 C 
HETATM   22  O1  UNL     1      60.658   3.575  -4.188  1.00  0.00    -0.267 OA
HETATM   23  N4  UNL     1      62.791   4.583  -4.432  1.00  0.00    -0.323 N 
ATOM     24  H4  UNL     1      63.394   5.296  -4.024  1.00  0.00     0.169 HD
BRANCH  23  25
HETATM   25  C12 UNL     1      63.310   3.887  -5.549  1.00  0.00     0.035 A 
HETATM   26  C13 UNL     1      62.980   4.338  -6.835  1.00  0.00     0.029 A 
HETATM   27  C14 UNL     1      63.437   3.736  -7.986  1.00  0.00     0.003 A 
HETATM   28  C15 UNL     1      64.258   2.636  -7.855  1.00  0.00     0.012 A 
HETATM   29  C16 UNL     1      64.621   2.141  -6.643  1.00  0.00    -0.024 A 
HETATM   30  C23 UNL     1      64.129   2.791  -5.499  1.00  0.00     0.042 A 
BRANCH  29  31
HETATM   31  C17 UNL     1      65.490   0.977  -6.502  1.00  0.00    -0.026 A 
HETATM   32  C18 UNL     1      66.830   1.127  -6.209  1.00  0.00     0.012 A 
HETATM   33  C19 UNL     1      67.677   0.041  -6.069  1.00  0.00     0.001 A 
HETATM   34  C20 UNL     1      67.155  -1.238  -6.230  1.00  0.00     0.000 A 
HETATM   35  C21 UNL     1      65.815  -1.429  -6.523  1.00  0.00     0.001 A 
HETATM   36  C22 UNL     1      65.026  -0.319  -6.650  1.00  0.00     0.012 A 
ENDBRANCH  29  31
ENDBRANCH  23  25
ENDBRANCH  18  21
ENDBRANCH  11  15
ENDBRANCH   9  11
ENDBRANCH   6   9
TORSDOF 6
ENDMDL
MODEL 3
REMARK VINA RESULT: -11.349918191      1.832      2.821
REMARK  6 active torsions:
REMARK  status: ('A' for Active; 'I' for Inactive)
REMARK    1  A    between atoms: C5_6  and  N2_7 
REMARK    2  A    between atoms: N2_7  and  C6_9 
REMARK    3  A    between atoms: C6_9  and  C7_13 
REMARK    4  A    between atoms: C10_16  and  C11_17 
REMARK       I    between atoms: C11_17  and  N4_19 
REMARK    5  A    between atoms: N4_19  and  C12_21 
REMARK    6  A    between atoms: C16_25  and  C17_26 
ROOT
HETATM    1  N1  UNL     1      62.325   6.832   8.049  1.00  0.00    -0.191 NA
HETATM    2  C1  UNL     1      62.129   7.061   6.937  1.00  0.00     0.099 C 
HETATM    3  C2  UNL     1      61.879   7.336   5.545  1.00  0.00     0.044 A 
HETATM    4  C3  UNL     1      61.179   8.489   5.237  1.00  0.00     0.025 A 
HETATM    5  C4  UNL     1      60.953   8.730   3.897  1.00  0.00     0.031 A 
HETATM    6  C5  UNL     1      61.374   7.910   2.884  1.00  0.00     0.033 A 
HETATM    7  C26 UNL     1      62.080   6.750   3.223  1.00  0.00     0.031 A 
HETATM    8  C27 UNL     1      62.317   6.489   4.551  1.00  0.00     0.025 A 
ENDROOT
BRANCH   6   9
HETATM    9  N2  UNL     1      61.114   8.207   1.535  1.00  0.00    -0.342 N 
ATOM     10  H2  UNL     1      61.649   8.942   1.073  1.00  0.00     0.167 HD
BRANCH   9  11
HETATM   11  C6  UNL     1      60.106   7.493   0.791  1.00  0.00     0.109 C 
HETATM   12  N3  UNL     1      58.911   7.617   1.214  1.00  0.00    -0.385 N 
ATOM     13  H32 UNL     1      58.646   8.176   2.025  1.00  0.00     0.157 HD
ATOM     14  H31 UNL     1      58.198   7.113   0.688  1.00  0.00     0.157 HD
BRANCH  11  15
HETATM   15  C7  UNL     1      60.483   6.697  -0.364  1.00  0.00     0.007 A 
HETATM   16  C8  UNL     1      60.337   7.188  -1.637  1.00  0.00     0.016 A 
HETATM   17  C9  UNL     1      60.710   6.392  -2.702  1.00  0.00     0.018 A 
HETATM   18  C10 UNL     1      61.223   5.127  -2.548  1.00  0.00     0.032 A 
HETATM   19  C24 UNL     1      61.370   4.633  -1.279  1.00  0.00     0.018 A 
HETATM   20  C25 UNL     1      60.996   5.430  -0.181  1.00  0.00     0.016 A 
BRANCH  18  21
HETATM   21  C11 UNL     1      61.596   4.320  -3.718  1.00  0.00     0.256 C 
HETATM   22  O1  UNL     1      60.754   3.441  -4.043  1.00  0.00    -0.267 OA
HETATM   23  N4  UNL     1      62.818   4.560  -4.382  1.00  0.00    -0.323 N 
ATOM     24  H4  UNL     1      63.397   5.310  -4.005  1.00  0.00     0.169 HD
BRANCH  23  25
HETATM   25  C12 UNL     1      63.330   3.880  -5.511  1.00  0.00     0.035 A 
HETATM   26  C13 UNL     1      62.993   4.349  -6.789  1.00  0.00     0.029 A 
HETATM   27  C14 UNL     1      63.443   3.763  -7.950  1.00  0.00     0.003 A 
HETATM   28  C15 UNL     1      64.265   2.661  -7.839  1.00  0.00     0.012 A 
HETATM   29  C16 UNL     1      64.634   2.149  -6.637  1.00  0.00    -0.024 A 
HETATM   30  C23 UNL     1      64.148   2.782  -5.481  1.00  0.00     0.042 A 
BRANCH  29  31
HETATM   31  C17 UNL     1      65.504   0.983  -6.517  1.00  0.00    -0.026 A 
HETATM   32  C18 UNL     1      64.989  -0.294  -6.589  1.00  0.00     0.012 A 
HETATM   33  C19 UNL     1      65.790  -1.417  -6.479  1.00  0.00     0.001 A 
HETATM   34  C20 UNL     1      67.157  -1.246  -6.290  1.00  0.00     0.000 A 
HETATM   35  C21 UNL     1      67.712   0.021  -6.212  1.00  0.00     0.001 A 
HETATM   36  C22 UNL     1      66.872   1.093  -6.327  1.00  0.00     0.012 A 
ENDBRANCH  29  31
ENDBRANCH  23  25
ENDBRANCH  18  21
ENDBRANCH  11  15
ENDBRANCH   9  11
ENDBRANCH   6   9
TORSDOF 6
ENDMDL
MODEL 4
REMARK VINA RESULT: -11.331860977      1.363      1.634
REMARK  6 active torsions:
REMARK  status: ('A' for Active; 'I' for Inactive)
REMARK    1  A    between atoms: C5_6  and  N2_7 
REMARK    2  A    between atoms: N2_7  and  C6_9 
REMARK    3  A    between atoms: C6_9  and  C7_13 
REMARK    4  A    between atoms: C10_16  and  C11_17 
REMARK       I    between atoms: C11_17  and  N4_19 
REMARK    5  A    between atoms: N4_19  and  C12_21 
REMARK    6  A    between atoms: C16_25  and  C17_26 
ROOT
HETATM    1  N1  UNL     1      61.973   6.738   5.574  1.00  0.00    -0.191 NA
HETATM    2  C1  UNL     1      61.529   6.896   4.522  1.00  0.00     0.099 C 
HETATM    3  C2  UNL     1      60.963   7.089   3.212  1.00  0.00     0.044 A 
HETATM    4  C3  UNL     1      61.165   8.315   2.602  1.00  0.00     0.025 A 
HETATM    5  C4  UNL     1      60.613   8.474   1.347  1.00  0.00     0.031 A 
HETATM    6  C5  UNL     1      59.896   7.510   0.691  1.00  0.00     0.033 A 
HETATM    7  C26 UNL     1      59.706   6.279   1.329  1.00  0.00     0.031 A 
HETATM    8  C27 UNL     1      60.246   6.097   2.580  1.00  0.00     0.025 A 
ENDROOT
BRANCH   6   9
HETATM    9  N2  UNL     1      59.357   7.730  -0.588  1.00  0.00    -0.342 N 
ATOM     10  H2  UNL     1      58.346   7.700  -0.716  1.00  0.00     0.167 HD
BRANCH   9  11
HETATM   11  C6  UNL     1      60.205   7.997  -1.723  1.00  0.00     0.109 C 
HETATM   12  N3  UNL     1      60.447   9.226  -1.958  1.00  0.00    -0.385 N 
ATOM     13  H32 UNL     1      60.081   9.998  -1.401  1.00  0.00     0.157 HD
ATOM     14  H31 UNL     1      61.046   9.415  -2.761  1.00  0.00     0.157 HD
BRANCH  11  15
HETATM   15  C7  UNL     1      60.725   6.898  -2.516  1.00  0.00     0.007 A 
HETATM   16  C8  UNL     1      61.144   7.097  -3.809  1.00  0.00     0.016 A 
HETATM   17  C9  UNL     1      61.631   6.020  -4.522  1.00  0.00     0.018 A 
HETATM   18  C10 UNL     1      61.717   4.753  -3.998  1.00  0.00     0.032 A 
HETATM   19  C24 UNL     1      61.301   4.550  -2.709  1.00  0.00     0.018 A 
HETATM   20  C25 UNL     1      60.802   5.636  -1.967  1.00  0.00     0.016 A 
BRANCH  18  21
HETATM   21  C11 UNL     1      62.236   3.640  -4.806  1.00  0.00     0.256 C 
HETATM   22  O1  UNL     1      61.536   2.593  -4.774  1.00  0.00    -0.267 OA
HETATM   23  N4  UNL     1      63.432   3.796  -5.538  1.00  0.00    -0.323 N 
ATOM     24  H4  UNL     1      63.889   4.705  -5.469  1.00  0.00     0.169 HD
BRANCH  23  25
HETATM   25  C12 UNL     1      64.070   2.834  -6.356  1.00  0.00     0.035 A 
HETATM   26  C13 UNL     1      63.978   2.969  -7.748  1.00  0.00     0.029 A 
HETATM   27  C14 UNL     1      64.567   2.093  -8.632  1.00  0.00     0.003 A 
HETATM   28  C15 UNL     1      65.279   1.034  -8.110  1.00  0.00     0.012 A 
HETATM   29  C16 UNL     1      65.411   0.836  -6.772  1.00  0.00    -0.024 A 
HETATM   30  C23 UNL     1      64.792   1.759  -5.912  1.00  0.00     0.042 A 
BRANCH  29  31
HETATM   31  C17 UNL     1      66.165  -0.284  -6.218  1.00  0.00    -0.026 A 
HETATM   32  C18 UNL     1      67.512  -0.167  -5.950  1.00  0.00     0.012 A 
HETATM   33  C19 UNL     1      68.250  -1.212  -5.423  1.00  0.00     0.001 A 
HETATM   34  C20 UNL     1      67.607  -2.417  -5.158  1.00  0.00     0.000 A 
HETATM   35  C21 UNL     1      66.255  -2.573  -5.413  1.00  0.00     0.001 A 
HETATM   36  C22 UNL     1      65.577  -1.506  -5.934  1.00  0.00     0.012 A 
ENDBRANCH  29  31
ENDBRANCH  23  25
ENDBRANCH  18  21
ENDBRANCH  11  15
ENDBRANCH   9  11
ENDBRANCH   6   9
TORSDOF 6
ENDMDL
MODEL 5
REMARK VINA RESULT: -10.866805581      1.479      2.306
REMARK  6 active torsions:
REMARK  status: ('A' for Active; 'I' for Inactive)
REMARK    1  A    between atoms: C5_6  and  N2_7 
REMARK    2  A    between atoms: N2_7  and  C6_9 
REMARK    3  A    between atoms: C6_9  and  C7_13 
REMARK    4  A    between atoms: C10_16  and  C11_17 
REMARK       I    between atoms: C11_17  and  N4_19 
REMARK    5  A    between atoms: N4_19  and  C12_21 
REMARK    6  A    between atoms: C16_25  and  C17_26 
ROOT
HETATM    1  N1  UNL     1      62.350   6.725   8.033  1.00  0.00    -0.191 NA
HETATM    2  C1  UNL     1      62.141   6.956   6.923  1.00  0.00     0.099 C 
HETATM    3  C2  UNL     1      61.877   7.232   5.535  1.00  0.00     0.044 A 
HETATM    4  C3  UNL     1      61.122   8.354   5.239  1.00  0.00     0.025 A 
HETATM    5  C4  UNL     1      60.883   8.597   3.901  1.00  0.00     0.031 A 
HETATM    6  C5  UNL     1      61.341   7.809   2.880  1.00  0.00     0.033 A 
HETATM    7  C26 UNL     1      62.102   6.680   3.206  1.00  0.00     0.031 A 
HETATM    8  C27 UNL     1      62.353   6.417   4.532  1.00  0.00     0.025 A 
ENDROOT
BRANCH   6   9
HETATM    9  N2  UNL     1      61.066   8.106   1.534  1.00  0.00    -0.342 N 
ATOM     10  H2  UNL     1      61.563   8.872   1.080  1.00  0.00     0.167 HD
BRANCH   9  11
HETATM   11  C6  UNL     1      60.095   7.350   0.782  1.00  0.00     0.109 C 
HETATM   12  N3  UNL     1      58.926   7.293   1.285  1.00  0.00    -0.385 N 
ATOM     13  H32 UNL     1      58.657   7.740   2.161  1.00  0.00     0.157 HD
ATOM     14  H31 UNL     1      58.240   6.758   0.753  1.00  0.00     0.157 HD
BRANCH  11  15
HETATM   15  C7  UNL     1      60.478   6.713  -0.465  1.00  0.00     0.007 A 
HETATM   16  C8  UNL     1      60.886   5.403  -0.493  1.00  0.00     0.016 A 
HETATM   17  C9  UNL     1      61.241   4.843  -1.703  1.00  0.00     0.018 A 
HETATM   18  C10 UNL     1      61.204   5.537  -2.888  1.00  0.00     0.032 A 
HETATM   19  C24 UNL     1      60.798   6.845  -2.866  1.00  0.00     0.018 A 
HETATM   20  C25 UNL     1      60.433   7.433  -1.641  1.00  0.00     0.016 A 
BRANCH  18  21
HETATM   21  C11 UNL     1      61.601   4.894  -4.149  1.00  0.00     0.256 C 
HETATM   22  O1  UNL     1      62.080   5.675  -5.013  1.00  0.00    -0.267 OA
HETATM   23  N4  UNL     1      61.433   3.503  -4.316  1.00  0.00    -0.323 N 
ATOM     24  H4  UNL     1      61.034   2.998  -3.524  1.00  0.00     0.169 HD
BRANCH  23  25
HETATM   25  C12 UNL     1      61.754   2.729  -5.455  1.00  0.00     0.035 A 
HETATM   26  C13 UNL     1      60.852   2.705  -6.528  1.00  0.00     0.029 A 
HETATM   27  C14 UNL     1      61.073   1.990  -7.684  1.00  0.00     0.003 A 
HETATM   28  C15 UNL     1      62.242   1.265  -7.779  1.00  0.00     0.012 A 
HETATM   29  C16 UNL     1      63.163   1.239  -6.781  1.00  0.00    -0.024 A 
HETATM   30  C23 UNL     1      62.892   1.985  -5.622  1.00  0.00     0.042 A 
BRANCH  29  31
HETATM   31  C17 UNL     1      64.402   0.472  -6.880  1.00  0.00    -0.026 A 
HETATM   32  C18 UNL     1      65.499   0.983  -7.541  1.00  0.00     0.012 A 
HETATM   33  C19 UNL     1      66.685   0.279  -7.649  1.00  0.00     0.001 A 
HETATM   34  C20 UNL     1      66.767  -0.984  -7.070  1.00  0.00     0.000 A 
HETATM   35  C21 UNL     1      65.687  -1.530  -6.398  1.00  0.00     0.001 A 
HETATM   36  C22 UNL     1      64.541  -0.789  -6.323  1.00  0.00     0.012 A 
ENDBRANCH  29  31
ENDBRANCH  23  25
ENDBRANCH  18  21
ENDBRANCH  11  15
ENDBRANCH   9  11
ENDBRANCH   6   9
TORSDOF 6
ENDMDL
