MODEL 1
REMARK VINA RESULT: -13.025692222      0.000      0.000
REMARK  5 active torsions:
REMARK  status: ('A' for Active; 'I' for Inactive)
REMARK    1  A    between atoms: C1_4  and  C2_6 
REMARK    2  A    between atoms: C6_12  and  C7_13 
REMARK    3  A    between atoms: C11_17  and  C12_18 
REMARK    4  A    between atoms: C15_21  and  C16_22 
REMARK    5  A    between atoms: C16_22  and  C17_24 
ROOT
HETATM    1  C7  UNL     1      60.449   4.819  -3.733  1.00  0.00     0.059 A 
HETATM    2  C8  UNL     1      59.290   4.890  -4.465  1.00  0.00     0.032 A 
HETATM    3  C9  UNL     1      59.135   4.234  -5.677  1.00  0.00     0.005 A 
HETATM    4  C10 UNL     1      60.238   3.493  -6.110  1.00  0.00     0.030 A 
HETATM    5  C11 UNL     1      61.404   3.414  -5.389  1.00  0.00     0.043 A 
HETATM    6  N4  UNL     1      61.464   4.084  -4.223  1.00  0.00    -0.354 N 
ATOM      7  H4  UNL     1      62.327   4.031  -3.681  1.00  0.00     0.166 HD
ENDROOT
BRANCH   1   8
HETATM    8  C6  UNL     1      60.597   5.513  -2.462  1.00  0.00     0.060 A 
HETATM    9  N3  UNL     1      60.482   6.818  -2.189  1.00  0.00    -0.354 N 
HETATM   10  C5  UNL     1      60.711   7.043  -0.886  1.00  0.00     0.043 A 
ATOM     11  H3  UNL     1      60.254   7.538  -2.874  1.00  0.00     0.166 HD
HETATM   12  C4  UNL     1      60.714   8.194  -0.139  1.00  0.00     0.031 A 
HETATM   13  C26 UNL     1      60.990   5.849  -0.263  1.00  0.00    -0.006 A 
HETATM   14  C3  UNL     1      60.994   8.122   1.208  1.00  0.00     0.017 A 
HETATM   15  C2  UNL     1      61.275   6.914   1.831  1.00  0.00     0.005 A 
HETATM   16  C27 UNL     1      61.273   5.757   1.087  1.00  0.00     0.028 A 
HETATM   17  C25 UNL     1      60.912   4.891  -1.277  1.00  0.00     0.045 A 
BRANCH  15  18
HETATM   18  C1  UNL     1      61.576   6.858   3.266  1.00  0.00     0.120 C 
HETATM   19  N1  UNL     1      61.151   7.800   4.033  1.00  0.00    -0.387 N 
ATOM     20  H12 UNL     1      61.360   7.761   5.031  1.00  0.00     0.157 HD
ATOM     21  H11 UNL     1      60.611   8.583   3.665  1.00  0.00     0.157 HD
HETATM   22  N2  UNL     1      62.321   5.778   3.775  1.00  0.00    -0.082 NA
ENDBRANCH  15  18
ENDBRANCH   1   8
BRANCH   5  23
HETATM   23  C12 UNL     1      62.571   2.639  -5.806  1.00  0.00    -0.009 A 
HETATM   24  C13 UNL     1      62.492   1.268  -5.987  1.00  0.00     0.014 A 
HETATM   25  C14 UNL     1      63.560   0.503  -6.385  1.00  0.00     0.016 A 
HETATM   26  C15 UNL     1      64.817   1.083  -6.633  1.00  0.00     0.015 A 
HETATM   27  C23 UNL     1      64.892   2.444  -6.451  1.00  0.00     0.016 A 
HETATM   28  C24 UNL     1      63.795   3.210  -6.046  1.00  0.00     0.014 A 
BRANCH  26  29
HETATM   29  C16 UNL     1      65.915   0.251  -7.081  1.00  0.00     0.192 C 
HETATM   30  O1  UNL     1      66.426   0.426  -8.241  1.00  0.00    -0.287 OA
BRANCH  29  31
HETATM   31  C17 UNL     1      66.464  -0.788  -6.253  1.00  0.00     0.015 A 
HETATM   32  C18 UNL     1      65.878  -2.026  -6.056  1.00  0.00     0.015 A 
HETATM   33  C19 UNL     1      66.420  -2.988  -5.242  1.00  0.00     0.001 A 
HETATM   34  C20 UNL     1      67.616  -2.707  -4.585  1.00  0.00     0.000 A 
HETATM   35  C21 UNL     1      68.200  -1.462  -4.788  1.00  0.00     0.001 A 
HETATM   36  C22 UNL     1      67.652  -0.521  -5.594  1.00  0.00     0.015 A 
ENDBRANCH  29  31
ENDBRANCH  26  29
ENDBRANCH   5  23
TORSDOF 5
ENDMDL
MODEL 2
REMARK VINA RESULT: -12.763311153      0.154      1.190
REMARK  5 active torsions:
REMARK  status: ('A' for Active; 'I' for Inactive)
REMARK    1  A    between atoms: C1_4  and  C2_6 
REMARK    2  A    between atoms: C6_12  and  C7_13 
REMARK    3  A    between atoms: C11_17  and  C12_18 
REMARK    4  A    between atoms: C15_21  and  C16_22 
REMARK    5  A    between atoms: C16_22  and  C17_24 
ROOT
HETATM    1  C7  UNL     1      60.401   4.741  -3.687  1.00  0.00     0.059 A 
HETATM    2  C8  UNL     1      59.222   4.829  -4.384  1.00  0.00     0.032 A 
HETATM    3  C9  UNL     1      59.017   4.164  -5.583  1.00  0.00     0.005 A 
HETATM    4  C10 UNL     1      60.090   3.394  -6.041  1.00  0.00     0.030 A 
HETATM    5  C11 UNL     1      61.274   3.296  -5.354  1.00  0.00     0.043 A 
HETATM    6  N4  UNL     1      61.385   3.978  -4.198  1.00  0.00    -0.354 N 
ATOM      7  H4  UNL     1      62.262   3.912  -3.682  1.00  0.00     0.166 HD
ENDROOT
BRANCH   1   8
HETATM    8  C6  UNL     1      60.603   5.445  -2.429  1.00  0.00     0.060 A 
HETATM    9  N3  UNL     1      60.626   6.761  -2.188  1.00  0.00    -0.354 N 
HETATM   10  C5  UNL     1      60.856   6.993  -0.887  1.00  0.00     0.043 A 
ATOM     11  H3  UNL     1      60.487   7.485  -2.893  1.00  0.00     0.166 HD
HETATM   12  C4  UNL     1      60.971   8.154  -0.165  1.00  0.00     0.031 A 
HETATM   13  C26 UNL     1      60.995   5.790  -0.232  1.00  0.00    -0.006 A 
HETATM   14  C3  UNL     1      61.221   8.085   1.188  1.00  0.00     0.017 A 
HETATM   15  C2  UNL     1      61.360   6.870   1.843  1.00  0.00     0.005 A 
HETATM   16  C27 UNL     1      61.245   5.702   1.125  1.00  0.00     0.028 A 
HETATM   17  C25 UNL     1      60.831   4.823  -1.225  1.00  0.00     0.045 A 
BRANCH  15  18
HETATM   18  C1  UNL     1      61.630   6.816   3.284  1.00  0.00     0.120 C 
HETATM   19  N1  UNL     1      61.231   7.784   4.033  1.00  0.00    -0.387 N 
ATOM     20  H12 UNL     1      61.418   7.746   5.035  1.00  0.00     0.157 HD
ATOM     21  H11 UNL     1      60.731   8.585   3.647  1.00  0.00     0.157 HD
HETATM   22  N2  UNL     1      62.319   5.712   3.819  1.00  0.00    -0.082 NA
ENDBRANCH  15  18
ENDBRANCH   1   8
BRANCH   5  23
HETATM   23  C12 UNL     1      62.411   2.490  -5.797  1.00  0.00    -0.009 A 
HETATM   24  C13 UNL     1      63.665   3.054  -5.967  1.00  0.00     0.014 A 
HETATM   25  C14 UNL     1      64.760   2.334  -6.373  1.00  0.00     0.016 A 
HETATM   26  C15 UNL     1      64.665   0.957  -6.643  1.00  0.00     0.015 A 
HETATM   27  C23 UNL     1      63.419   0.400  -6.473  1.00  0.00     0.016 A 
HETATM   28  C24 UNL     1      62.312   1.147  -6.059  1.00  0.00     0.014 A 
BRANCH  26  29
HETATM   29  C16 UNL     1      65.848   0.220  -7.039  1.00  0.00     0.192 C 
HETATM   30  O1  UNL     1      66.364   0.403  -8.196  1.00  0.00    -0.287 OA
BRANCH  29  31
HETATM   31  C17 UNL     1      66.478  -0.729  -6.163  1.00  0.00     0.015 A 
HETATM   32  C18 UNL     1      67.716  -0.548  -5.571  1.00  0.00     0.015 A 
HETATM   33  C19 UNL     1      68.298  -1.485  -4.754  1.00  0.00     0.001 A 
HETATM   34  C20 UNL     1      67.610  -2.672  -4.509  1.00  0.00     0.000 A 
HETATM   35  C21 UNL     1      66.367  -2.846  -5.105  1.00  0.00     0.001 A 
HETATM   36  C22 UNL     1      65.806  -1.912  -5.911  1.00  0.00     0.015 A 
ENDBRANCH  29  31
ENDBRANCH  26  29
ENDBRANCH   5  23
TORSDOF 5
ENDMDL
MODEL 3
REMARK VINA RESULT: -12.611847946      3.712     10.195
REMARK  5 active torsions:
REMARK  status: ('A' for Active; 'I' for Inactive)
REMARK    1  A    between atoms: C1_4  and  C2_6 
REMARK    2  A    between atoms: C6_12  and  C7_13 
REMARK    3  A    between atoms: C11_17  and  C12_18 
REMARK    4  A    between atoms: C15_21  and  C16_22 
REMARK    5  A    between atoms: C16_22  and  C17_24 
ROOT
HETATM    1  C7  UNL     1      62.553   4.568  -5.777  1.00  0.00     0.059 A 
HETATM    2  C8  UNL     1      62.391   5.440  -6.823  1.00  0.00     0.032 A 
HETATM    3  C9  UNL     1      61.825   6.696  -6.663  1.00  0.00     0.005 A 
HETATM    4  C10 UNL     1      61.428   7.020  -5.362  1.00  0.00     0.030 A 
HETATM    5  C11 UNL     1      61.584   6.157  -4.306  1.00  0.00     0.043 A 
HETATM    6  N4  UNL     1      62.143   4.957  -4.556  1.00  0.00    -0.354 N 
ATOM      7  H4  UNL     1      62.262   4.310  -3.777  1.00  0.00     0.166 HD
ENDROOT
BRANCH   1   8
HETATM    8  C6  UNL     1      63.148   3.252  -5.960  1.00  0.00     0.060 A 
HETATM    9  N3  UNL     1      62.570   2.046  -5.921  1.00  0.00    -0.354 N 
HETATM   10  C5  UNL     1      63.482   1.084  -6.128  1.00  0.00     0.043 A 
ATOM     11  H3  UNL     1      61.577   1.881  -5.756  1.00  0.00     0.166 HD
HETATM   12  C4  UNL     1      63.382  -0.283  -6.177  1.00  0.00     0.031 A 
HETATM   13  C26 UNL     1      64.716   1.664  -6.313  1.00  0.00    -0.006 A 
HETATM   14  C3  UNL     1      64.514  -1.034  -6.407  1.00  0.00     0.017 A 
HETATM   15  C2  UNL     1      65.756  -0.444  -6.593  1.00  0.00     0.005 A 
HETATM   16  C27 UNL     1      65.862   0.928  -6.546  1.00  0.00     0.028 A 
HETATM   17  C25 UNL     1      64.484   3.037  -6.204  1.00  0.00     0.045 A 
BRANCH  15  18
HETATM   18  C1  UNL     1      66.952  -1.260  -6.833  1.00  0.00     0.120 C 
HETATM   19  N1  UNL     1      68.057  -0.936  -6.260  1.00  0.00    -0.387 N 
ATOM     20  H12 UNL     1      68.888  -1.503  -6.426  1.00  0.00     0.157 HD
ATOM     21  H11 UNL     1      68.119  -0.126  -5.643  1.00  0.00     0.157 HD
HETATM   22  N2  UNL     1      66.867  -2.377  -7.684  1.00  0.00    -0.082 NA
ENDBRANCH  15  18
ENDBRANCH   1   8
BRANCH   5  23
HETATM   23  C12 UNL     1      61.192   6.467  -2.932  1.00  0.00    -0.009 A 
HETATM   24  C13 UNL     1      60.898   7.765  -2.548  1.00  0.00     0.014 A 
HETATM   25  C14 UNL     1      60.520   8.101  -1.272  1.00  0.00     0.016 A 
HETATM   26  C15 UNL     1      60.409   7.123  -0.267  1.00  0.00     0.015 A 
HETATM   27  C23 UNL     1      60.702   5.836  -0.651  1.00  0.00     0.016 A 
HETATM   28  C24 UNL     1      61.086   5.510  -1.955  1.00  0.00     0.014 A 
BRANCH  26  29
HETATM   29  C16 UNL     1      59.977   7.507   1.062  1.00  0.00     0.192 C 
HETATM   30  O1  UNL     1      58.816   8.016   1.241  1.00  0.00    -0.287 OA
BRANCH  29  31
HETATM   31  C17 UNL     1      60.821   7.333   2.212  1.00  0.00     0.015 A 
HETATM   32  C18 UNL     1      61.898   6.464   2.271  1.00  0.00     0.015 A 
HETATM   33  C19 UNL     1      62.671   6.309   3.393  1.00  0.00     0.001 A 
HETATM   34  C20 UNL     1      62.360   7.060   4.525  1.00  0.00     0.000 A 
HETATM   35  C21 UNL     1      61.279   7.930   4.459  1.00  0.00     0.001 A 
HETATM   36  C22 UNL     1      60.523   8.073   3.343  1.00  0.00     0.015 A 
ENDBRANCH  29  31
ENDBRANCH  26  29
ENDBRANCH   5  23
TORSDOF 5
ENDMDL
MODEL 4
REMARK VINA RESULT: -12.387297484      1.318      1.772
REMARK  5 active torsions:
REMARK  status: ('A' for Active; 'I' for Inactive)
REMARK    1  A    between atoms: C1_4  and  C2_6 
REMARK    2  A    between atoms: C6_12  and  C7_13 
REMARK    3  A    between atoms: C11_17  and  C12_18 
REMARK    4  A    between atoms: C15_21  and  C16_22 
REMARK    5  A    between atoms: C16_22  and  C17_24 
ROOT
HETATM    1  C7  UNL     1      61.218   6.247  -3.867  1.00  0.00     0.059 A 
HETATM    2  C8  UNL     1      60.873   7.121  -4.867  1.00  0.00     0.032 A 
HETATM    3  C9  UNL     1      61.038   6.817  -6.210  1.00  0.00     0.005 A 
HETATM    4  C10 UNL     1      61.580   5.558  -6.484  1.00  0.00     0.030 A 
HETATM    5  C11 UNL     1      61.930   4.673  -5.494  1.00  0.00     0.043 A 
HETATM    6  N4  UNL     1      61.735   5.054  -4.217  1.00  0.00    -0.354 N 
ATOM      7  H4  UNL     1      61.993   4.404  -3.475  1.00  0.00     0.166 HD
ENDROOT
BRANCH   1   8
HETATM    8  C6  UNL     1      61.040   6.581  -2.461  1.00  0.00     0.060 A 
HETATM    9  N3  UNL     1      60.264   7.517  -1.903  1.00  0.00    -0.354 N 
HETATM   10  C5  UNL     1      60.404   7.503  -0.569  1.00  0.00     0.043 A 
ATOM     11  H3  UNL     1      59.653   8.151  -2.418  1.00  0.00     0.166 HD
HETATM   12  C4  UNL     1      59.834   8.260   0.424  1.00  0.00     0.031 A 
HETATM   13  C26 UNL     1      61.306   6.525  -0.219  1.00  0.00    -0.006 A 
HETATM   14  C3  UNL     1      60.178   8.020   1.736  1.00  0.00     0.017 A 
HETATM   15  C2  UNL     1      61.088   7.032   2.083  1.00  0.00     0.005 A 
HETATM   16  C27 UNL     1      61.663   6.270   1.091  1.00  0.00     0.028 A 
HETATM   17  C25 UNL     1      61.697   5.951  -1.431  1.00  0.00     0.045 A 
BRANCH  15  18
HETATM   18  C1  UNL     1      61.446   6.794   3.486  1.00  0.00     0.120 C 
HETATM   19  N1  UNL     1      60.981   7.579   4.393  1.00  0.00    -0.387 N 
ATOM     20  H12 UNL     1      61.229   7.414   5.368  1.00  0.00     0.157 HD
ATOM     21  H11 UNL     1      60.370   8.362   4.157  1.00  0.00     0.157 HD
HETATM   22  N2  UNL     1      62.288   5.715   3.812  1.00  0.00    -0.082 NA
ENDBRANCH  15  18
ENDBRANCH   1   8
BRANCH   5  23
HETATM   23  C12 UNL     1      62.486   3.344  -5.744  1.00  0.00    -0.009 A 
HETATM   24  C13 UNL     1      63.550   3.166  -6.612  1.00  0.00     0.014 A 
HETATM   25  C14 UNL     1      64.108   1.939  -6.870  1.00  0.00     0.016 A 
HETATM   26  C15 UNL     1      63.618   0.774  -6.254  1.00  0.00     0.015 A 
HETATM   27  C23 UNL     1      62.561   0.954  -5.393  1.00  0.00     0.016 A 
HETATM   28  C24 UNL     1      62.003   2.211  -5.140  1.00  0.00     0.014 A 
BRANCH  26  29
HETATM   29  C16 UNL     1      64.250  -0.501  -6.525  1.00  0.00     0.192 C 
HETATM   30  O1  UNL     1      63.688  -1.347  -7.304  1.00  0.00    -0.287 OA
BRANCH  29  31
HETATM   31  C17 UNL     1      65.512  -0.860  -5.939  1.00  0.00     0.015 A 
HETATM   32  C18 UNL     1      66.706  -0.206  -6.187  1.00  0.00     0.015 A 
HETATM   33  C19 UNL     1      67.898  -0.588  -5.625  1.00  0.00     0.001 A 
HETATM   34  C20 UNL     1      67.906  -1.684  -4.764  1.00  0.00     0.000 A 
HETATM   35  C21 UNL     1      66.704  -2.336  -4.519  1.00  0.00     0.001 A 
HETATM   36  C22 UNL     1      65.534  -1.947  -5.082  1.00  0.00     0.015 A 
ENDBRANCH  29  31
ENDBRANCH  26  29
ENDBRANCH   5  23
TORSDOF 5
ENDMDL
MODEL 5
REMARK VINA RESULT: -12.038222621      3.587     10.042
REMARK  5 active torsions:
REMARK  status: ('A' for Active; 'I' for Inactive)
REMARK    1  A    between atoms: C1_4  and  C2_6 
REMARK    2  A    between atoms: C6_12  and  C7_13 
REMARK    3  A    between atoms: C11_17  and  C12_18 
REMARK    4  A    between atoms: C15_21  and  C16_22 
REMARK    5  A    between atoms: C16_22  and  C17_24 
ROOT
HETATM    1  C7  UNL     1      62.111   3.672  -5.856  1.00  0.00     0.059 A 
HETATM    2  C8  UNL     1      61.289   3.968  -6.914  1.00  0.00     0.032 A 
HETATM    3  C9  UNL     1      60.237   4.865  -6.810  1.00  0.00     0.005 A 
HETATM    4  C10 UNL     1      60.063   5.451  -5.553  1.00  0.00     0.030 A 
HETATM    5  C11 UNL     1      60.876   5.164  -4.485  1.00  0.00     0.043 A 
HETATM    6  N4  UNL     1      61.874   4.280  -4.679  1.00  0.00    -0.354 N 
ATOM      7  H4  UNL     1      62.482   4.060  -3.890  1.00  0.00     0.166 HD
ENDROOT
BRANCH   1   8
HETATM    8  C6  UNL     1      63.212   2.727  -5.980  1.00  0.00     0.060 A 
HETATM    9  N3  UNL     1      64.526   2.963  -6.068  1.00  0.00    -0.354 N 
HETATM   10  C5  UNL     1      65.200   1.809  -6.183  1.00  0.00     0.043 A 
ATOM     11  H3  UNL     1      64.954   3.889  -6.051  1.00  0.00     0.166 HD
HETATM   12  C4  UNL     1      66.539   1.534  -6.306  1.00  0.00     0.031 A 
HETATM   13  C26 UNL     1      64.308   0.762  -6.172  1.00  0.00    -0.006 A 
HETATM   14  C3  UNL     1      66.950   0.224  -6.413  1.00  0.00     0.017 A 
HETATM   15  C2  UNL     1      66.046  -0.829  -6.401  1.00  0.00     0.005 A 
HETATM   16  C27 UNL     1      64.702  -0.559  -6.279  1.00  0.00     0.028 A 
HETATM   17  C25 UNL     1      63.054   1.363  -6.041  1.00  0.00     0.045 A 
BRANCH  15  18
HETATM   18  C1  UNL     1      66.503  -2.218  -6.522  1.00  0.00     0.120 C 
HETATM   19  N1  UNL     1      67.411  -2.650  -5.719  1.00  0.00    -0.387 N 
ATOM     20  H12 UNL     1      67.729  -3.616  -5.802  1.00  0.00     0.157 HD
ATOM     21  H11 UNL     1      67.819  -2.049  -5.003  1.00  0.00     0.157 HD
HETATM   22  N2  UNL     1      65.942  -3.048  -7.510  1.00  0.00    -0.082 NA
ENDBRANCH  15  18
ENDBRANCH   1   8
BRANCH   5  23
HETATM   23  C12 UNL     1      60.731   5.767  -3.161  1.00  0.00    -0.009 A 
HETATM   24  C13 UNL     1      60.480   7.121  -3.016  1.00  0.00     0.014 A 
HETATM   25  C14 UNL     1      60.329   7.728  -1.794  1.00  0.00     0.016 A 
HETATM   26  C15 UNL     1      60.425   6.991  -0.601  1.00  0.00     0.015 A 
HETATM   27  C23 UNL     1      60.675   5.646  -0.748  1.00  0.00     0.016 A 
HETATM   28  C24 UNL     1      60.826   5.043  -2.000  1.00  0.00     0.014 A 
BRANCH  26  29
HETATM   29  C16 UNL     1      60.230   7.656   0.671  1.00  0.00     0.192 C 
HETATM   30  O1  UNL     1      59.353   8.582   0.788  1.00  0.00    -0.287 OA
BRANCH  29  31
HETATM   31  C17 UNL     1      61.001   7.309   1.833  1.00  0.00     0.015 A 
HETATM   32  C18 UNL     1      61.866   6.231   1.907  1.00  0.00     0.015 A 
HETATM   33  C19 UNL     1      62.573   5.917   3.040  1.00  0.00     0.001 A 
HETATM   34  C20 UNL     1      62.413   6.720   4.168  1.00  0.00     0.000 A 
HETATM   35  C21 UNL     1      61.544   7.801   4.087  1.00  0.00     0.001 A 
HETATM   36  C22 UNL     1      60.852   8.099   2.961  1.00  0.00     0.015 A 
ENDBRANCH  29  31
ENDBRANCH  26  29
ENDBRANCH   5  23
TORSDOF 5
ENDMDL
