MODEL 1
REMARK VINA RESULT: -11.723074687      0.000      0.000
REMARK  5 active torsions:
REMARK  status: ('A' for Active; 'I' for Inactive)
REMARK       I    between atoms: C1_2  and  N1_3 
REMARK       I    between atoms: C1_2  and  N2_11 
REMARK    1  A    between atoms: N1_3  and  C2_5 
REMARK    2  A    between atoms: N2_11  and  C8_13 
REMARK    3  A    between atoms: C11_16  and  N3_17 
REMARK    4  A    between atoms: N3_17  and  S1_19 
REMARK    5  A    between atoms: S1_19  and  C12_22 
ROOT
HETATM    1  C8  UNL     1      61.310   5.016  -4.407  1.00  0.00     0.036 A 
HETATM    2  C9  UNL     1      60.362   4.134  -4.979  1.00  0.00     0.032 A 
HETATM    3  C10 UNL     1      60.751   3.188  -5.880  1.00  0.00     0.032 A 
HETATM    4  C11 UNL     1      62.055   3.030  -6.284  1.00  0.00     0.042 A 
HETATM    5  C22 UNL     1      62.988   3.868  -5.747  1.00  0.00     0.032 A 
HETATM    6  C23 UNL     1      62.604   4.841  -4.822  1.00  0.00     0.032 A 
ENDROOT
BRANCH   4   7
HETATM    7  N3  UNL     1      62.476   2.053  -7.218  1.00  0.00    -0.281 N 
ATOM      8  H3  UNL     1      62.385   2.278  -8.209  1.00  0.00     0.179 HD
BRANCH   7   9
HETATM    9  S1  UNL     1      63.129   0.521  -6.808  1.00  0.00     0.264 S 
HETATM   10  O2  UNL     1      62.466  -0.047  -5.579  1.00  0.00    -0.200 OA
HETATM   11  O3  UNL     1      62.784  -0.438  -7.923  1.00  0.00    -0.200 OA
BRANCH   9  12
HETATM   12  C12 UNL     1      64.866   0.539  -6.640  1.00  0.00     0.090 A 
HETATM   13  C13 UNL     1      65.621   1.598  -7.159  1.00  0.00     0.026 A 
HETATM   14  C14 UNL     1      66.981   1.578  -6.991  1.00  0.00     0.002 A 
HETATM   15  C15 UNL     1      67.618   0.550  -6.330  1.00  0.00     0.012 A 
HETATM   16  C16 UNL     1      66.892  -0.514  -5.804  1.00  0.00    -0.024 A 
HETATM   17  C17 UNL     1      67.545  -1.532  -5.150  1.00  0.00     0.012 A 
HETATM   18  C21 UNL     1      65.510  -0.480  -5.983  1.00  0.00    -0.003 A 
HETATM   19  C18 UNL     1      66.800  -2.570  -4.647  1.00  0.00     0.001 A 
HETATM   20  C19 UNL     1      65.420  -2.579  -4.802  1.00  0.00     0.001 A 
HETATM   21  C20 UNL     1      64.794  -1.544  -5.462  1.00  0.00     0.014 A 
ENDBRANCH   9  12
ENDBRANCH   7   9
ENDBRANCH   4   7
BRANCH   1  22
HETATM   22  N2  UNL     1      60.848   5.958  -3.465  1.00  0.00    -0.309 N 
HETATM   23  C1  UNL     1      60.990   5.873  -2.068  1.00  0.00     0.325 C 
HETATM   24  O1  UNL     1      61.574   4.905  -1.545  1.00  0.00    -0.247 OA
HETATM   25  N1  UNL     1      60.451   6.916  -1.278  1.00  0.00    -0.309 N 
ATOM     26  H1  UNL     1      59.977   7.677  -1.767  1.00  0.00     0.170 HD
ATOM     27  H2  UNL     1      60.366   6.778  -3.831  1.00  0.00     0.170 HD
BRANCH  25  28
HETATM   28  C2  UNL     1      60.513   6.991   0.124  1.00  0.00     0.036 A 
HETATM   29  C3  UNL     1      61.191   7.955   0.798  1.00  0.00     0.029 A 
HETATM   30  C4  UNL     1      61.250   7.985   2.203  1.00  0.00     0.002 A 
HETATM   31  C5  UNL     1      60.607   7.013   2.932  1.00  0.00     0.000 A 
HETATM   32  C6  UNL     1      59.913   6.025   2.258  1.00  0.00     0.002 A 
HETATM   33  C7  UNL     1      59.863   6.008   0.894  1.00  0.00     0.029 A 
ENDBRANCH  25  28
ENDBRANCH   1  22
TORSDOF 5
ENDMDL
MODEL 2
REMARK VINA RESULT: -11.288165807      1.076      1.162
REMARK  5 active torsions:
REMARK  status: ('A' for Active; 'I' for Inactive)
REMARK       I    between atoms: C1_2  and  N1_3 
REMARK       I    between atoms: C1_2  and  N2_11 
REMARK    1  A    between atoms: N1_3  and  C2_5 
REMARK    2  A    between atoms: N2_11  and  C8_13 
REMARK    3  A    between atoms: C11_16  and  N3_17 
REMARK    4  A    between atoms: N3_17  and  S1_19 
REMARK    5  A    between atoms: S1_19  and  C12_22 
ROOT
HETATM    1  C8  UNL     1      60.970   3.806  -3.652  1.00  0.00     0.036 A 
HETATM    2  C9  UNL     1      60.039   2.753  -3.811  1.00  0.00     0.032 A 
HETATM    3  C10 UNL     1      60.386   1.616  -4.478  1.00  0.00     0.032 A 
HETATM    4  C11 UNL     1      61.630   1.420  -5.027  1.00  0.00     0.042 A 
HETATM    5  C22 UNL     1      62.546   2.421  -4.888  1.00  0.00     0.032 A 
HETATM    6  C23 UNL     1      62.205   3.591  -4.206  1.00  0.00     0.032 A 
ENDROOT
BRANCH   4   7
HETATM    7  N3  UNL     1      62.007   0.246  -5.722  1.00  0.00    -0.281 N 
ATOM      8  H3  UNL     1      61.693  -0.648  -5.344  1.00  0.00     0.179 HD
BRANCH   7   9
HETATM    9  S1  UNL     1      62.954   0.213  -7.153  1.00  0.00     0.264 S 
HETATM   10  O2  UNL     1      62.703  -1.042  -7.949  1.00  0.00    -0.200 OA
HETATM   11  O3  UNL     1      62.486   1.344  -8.038  1.00  0.00    -0.200 OA
BRANCH   9  12
HETATM   12  C12 UNL     1      64.657   0.443  -6.852  1.00  0.00     0.090 A 
HETATM   13  C13 UNL     1      65.328   1.560  -7.367  1.00  0.00     0.026 A 
HETATM   14  C14 UNL     1      66.663   1.707  -7.093  1.00  0.00     0.002 A 
HETATM   15  C15 UNL     1      67.354   0.793  -6.329  1.00  0.00     0.012 A 
HETATM   16  C16 UNL     1      66.713  -0.326  -5.805  1.00  0.00    -0.024 A 
HETATM   17  C17 UNL     1      67.421  -1.229  -5.048  1.00  0.00     0.012 A 
HETATM   18  C21 UNL     1      65.356  -0.462  -6.093  1.00  0.00    -0.003 A 
HETATM   19  C18 UNL     1      66.759  -2.324  -4.549  1.00  0.00     0.001 A 
HETATM   20  C19 UNL     1      65.407  -2.502  -4.810  1.00  0.00     0.001 A 
HETATM   21  C20 UNL     1      64.725  -1.578  -5.572  1.00  0.00     0.014 A 
ENDBRANCH   9  12
ENDBRANCH   7   9
ENDBRANCH   4   7
BRANCH   1  22
HETATM   22  N2  UNL     1      60.558   4.947  -2.934  1.00  0.00    -0.309 N 
HETATM   23  C1  UNL     1      60.815   5.211  -1.576  1.00  0.00     0.325 C 
HETATM   24  O1  UNL     1      61.469   4.408  -0.884  1.00  0.00    -0.247 OA
HETATM   25  N1  UNL     1      60.309   6.412  -1.023  1.00  0.00    -0.309 N 
ATOM     26  H1  UNL     1      59.775   7.024  -1.641  1.00  0.00     0.170 HD
ATOM     27  H2  UNL     1      60.022   5.647  -3.447  1.00  0.00     0.170 HD
BRANCH  25  28
HETATM   28  C2  UNL     1      60.483   6.831   0.307  1.00  0.00     0.036 A 
HETATM   29  C3  UNL     1      61.225   7.909   0.667  1.00  0.00     0.029 A 
HETATM   30  C4  UNL     1      61.394   8.285   2.012  1.00  0.00     0.002 A 
HETATM   31  C5  UNL     1      60.797   7.548   3.006  1.00  0.00     0.000 A 
HETATM   32  C6  UNL     1      60.038   6.447   2.653  1.00  0.00     0.002 A 
HETATM   33  C7  UNL     1      59.880   6.093   1.345  1.00  0.00     0.029 A 
ENDBRANCH  25  28
ENDBRANCH   1  22
TORSDOF 5
ENDMDL
MODEL 3
REMARK VINA RESULT: -10.663814557      3.557      5.510
REMARK  5 active torsions:
REMARK  status: ('A' for Active; 'I' for Inactive)
REMARK       I    between atoms: C1_2  and  N1_3 
REMARK       I    between atoms: C1_2  and  N2_11 
REMARK    1  A    between atoms: N1_3  and  C2_5 
REMARK    2  A    between atoms: N2_11  and  C8_13 
REMARK    3  A    between atoms: C11_16  and  N3_17 
REMARK    4  A    between atoms: N3_17  and  S1_19 
REMARK    5  A    between atoms: S1_19  and  C12_22 
ROOT
HETATM    1  C8  UNL     1      60.648   6.732  -0.027  1.00  0.00     0.036 A 
HETATM    2  C9  UNL     1      60.584   7.535  -1.190  1.00  0.00     0.032 A 
HETATM    3  C10 UNL     1      60.827   6.996  -2.419  1.00  0.00     0.032 A 
HETATM    4  C11 UNL     1      61.141   5.672  -2.606  1.00  0.00     0.042 A 
HETATM    5  C22 UNL     1      61.209   4.877  -1.500  1.00  0.00     0.032 A 
HETATM    6  C23 UNL     1      60.962   5.415  -0.236  1.00  0.00     0.032 A 
ENDROOT
BRANCH   4   7
HETATM    7  N3  UNL     1      61.396   5.095  -3.874  1.00  0.00    -0.281 N 
ATOM      8  H3  UNL     1      62.370   4.982  -4.154  1.00  0.00     0.179 HD
BRANCH   7   9
HETATM    9  S1  UNL     1      60.188   4.575  -4.976  1.00  0.00     0.264 S 
HETATM   10  O2  UNL     1      58.815   4.637  -4.355  1.00  0.00    -0.200 OA
HETATM   11  O3  UNL     1      60.151   5.563  -6.117  1.00  0.00    -0.200 OA
BRANCH   9  12
HETATM   12  C12 UNL     1      60.509   2.997  -5.648  1.00  0.00     0.090 A 
HETATM   13  C13 UNL     1      59.649   1.923  -5.389  1.00  0.00     0.026 A 
HETATM   14  C14 UNL     1      59.932   0.705  -5.951  1.00  0.00     0.002 A 
HETATM   15  C15 UNL     1      61.033   0.514  -6.757  1.00  0.00     0.012 A 
HETATM   16  C16 UNL     1      61.904   1.564  -7.032  1.00  0.00    -0.024 A 
HETATM   17  C17 UNL     1      62.999   1.353  -7.836  1.00  0.00     0.012 A 
HETATM   18  C21 UNL     1      61.603   2.795  -6.453  1.00  0.00    -0.003 A 
HETATM   19  C18 UNL     1      63.841   2.408  -8.083  1.00  0.00     0.001 A 
HETATM   20  C19 UNL     1      63.582   3.655  -7.528  1.00  0.00     0.001 A 
HETATM   21  C20 UNL     1      62.476   3.835  -6.726  1.00  0.00     0.014 A 
ENDBRANCH   9  12
ENDBRANCH   7   9
ENDBRANCH   4   7
BRANCH   1  22
HETATM   22  N2  UNL     1      60.365   7.343   1.212  1.00  0.00    -0.309 N 
HETATM   23  C1  UNL     1      61.114   7.207   2.395  1.00  0.00     0.325 C 
HETATM   24  O1  UNL     1      62.139   6.501   2.422  1.00  0.00    -0.247 OA
HETATM   25  N1  UNL     1      60.667   7.894   3.549  1.00  0.00    -0.309 N 
ATOM     26  H1  UNL     1      59.816   8.451   3.463  1.00  0.00     0.170 HD
ATOM     27  H2  UNL     1      59.540   7.941   1.253  1.00  0.00     0.170 HD
BRANCH  25  28
HETATM   28  C2  UNL     1      61.300   7.874   4.804  1.00  0.00     0.036 A 
HETATM   29  C3  UNL     1      61.136   6.881   5.714  1.00  0.00     0.029 A 
HETATM   30  C4  UNL     1      61.769   6.905   6.970  1.00  0.00     0.002 A 
HETATM   31  C5  UNL     1      62.584   7.961   7.302  1.00  0.00     0.000 A 
HETATM   32  C6  UNL     1      62.761   8.979   6.383  1.00  0.00     0.002 A 
HETATM   33  C7  UNL     1      62.141   8.943   5.168  1.00  0.00     0.029 A 
ENDBRANCH  25  28
ENDBRANCH   1  22
TORSDOF 5
ENDMDL
MODEL 4
REMARK VINA RESULT: -10.417630720      0.597      1.953
REMARK  5 active torsions:
REMARK  status: ('A' for Active; 'I' for Inactive)
REMARK       I    between atoms: C1_2  and  N1_3 
REMARK       I    between atoms: C1_2  and  N2_11 
REMARK    1  A    between atoms: N1_3  and  C2_5 
REMARK    2  A    between atoms: N2_11  and  C8_13 
REMARK    3  A    between atoms: C11_16  and  N3_17 
REMARK    4  A    between atoms: N3_17  and  S1_19 
REMARK    5  A    between atoms: S1_19  and  C12_22 
ROOT
HETATM    1  C8  UNL     1      61.459   4.851  -4.379  1.00  0.00     0.036 A 
HETATM    2  C9  UNL     1      60.514   4.176  -5.188  1.00  0.00     0.032 A 
HETATM    3  C10 UNL     1      60.917   3.223  -6.076  1.00  0.00     0.032 A 
HETATM    4  C11 UNL     1      62.232   2.862  -6.241  1.00  0.00     0.042 A 
HETATM    5  C22 UNL     1      63.162   3.498  -5.472  1.00  0.00     0.032 A 
HETATM    6  C23 UNL     1      62.764   4.476  -4.559  1.00  0.00     0.032 A 
ENDROOT
BRANCH   4   7
HETATM    7  N3  UNL     1      62.668   1.874  -7.157  1.00  0.00    -0.281 N 
ATOM      8  H3  UNL     1      63.088   2.193  -8.030  1.00  0.00     0.179 HD
BRANCH   7   9
HETATM    9  S1  UNL     1      62.541   0.181  -6.908  1.00  0.00     0.264 S 
HETATM   10  O2  UNL     1      61.287  -0.170  -6.149  1.00  0.00    -0.200 OA
HETATM   11  O3  UNL     1      62.380  -0.470  -8.261  1.00  0.00    -0.200 OA
BRANCH   9  12
HETATM   12  C12 UNL     1      63.955  -0.507  -6.151  1.00  0.00     0.090 A 
HETATM   13  C13 UNL     1      63.842  -1.619  -5.308  1.00  0.00     0.026 A 
HETATM   14  C14 UNL     1      64.981  -2.135  -4.746  1.00  0.00     0.002 A 
HETATM   15  C15 UNL     1      66.223  -1.592  -4.991  1.00  0.00     0.012 A 
HETATM   16  C16 UNL     1      66.365  -0.487  -5.825  1.00  0.00    -0.024 A 
HETATM   17  C17 UNL     1      67.612   0.043  -6.054  1.00  0.00     0.012 A 
HETATM   18  C21 UNL     1      65.198   0.026  -6.388  1.00  0.00    -0.003 A 
HETATM   19  C18 UNL     1      67.717   1.135  -6.879  1.00  0.00     0.001 A 
HETATM   20  C19 UNL     1      66.581   1.682  -7.462  1.00  0.00     0.001 A 
HETATM   21  C20 UNL     1      65.344   1.128  -7.213  1.00  0.00     0.014 A 
ENDBRANCH   9  12
ENDBRANCH   7   9
ENDBRANCH   4   7
BRANCH   1  22
HETATM   22  N2  UNL     1      60.977   5.811  -3.465  1.00  0.00    -0.309 N 
HETATM   23  C1  UNL     1      61.080   5.748  -2.064  1.00  0.00     0.325 C 
HETATM   24  O1  UNL     1      61.643   4.786  -1.510  1.00  0.00    -0.247 OA
HETATM   25  N1  UNL     1      60.525   6.808  -1.307  1.00  0.00    -0.309 N 
ATOM     26  H1  UNL     1      60.070   7.563  -1.821  1.00  0.00     0.170 HD
ATOM     27  H2  UNL     1      60.510   6.628  -3.858  1.00  0.00     0.170 HD
BRANCH  25  28
HETATM   28  C2  UNL     1      60.549   6.905   0.095  1.00  0.00     0.036 A 
HETATM   29  C3  UNL     1      61.187   7.894   0.771  1.00  0.00     0.029 A 
HETATM   30  C4  UNL     1      61.209   7.946   2.177  1.00  0.00     0.002 A 
HETATM   31  C5  UNL     1      60.569   6.971   2.904  1.00  0.00     0.000 A 
HETATM   32  C6  UNL     1      59.914   5.958   2.228  1.00  0.00     0.002 A 
HETATM   33  C7  UNL     1      59.901   5.919   0.864  1.00  0.00     0.029 A 
ENDBRANCH  25  28
ENDBRANCH   1  22
TORSDOF 5
ENDMDL
MODEL 5
REMARK VINA RESULT: -10.354794790      1.476      1.703
REMARK  5 active torsions:
REMARK  status: ('A' for Active; 'I' for Inactive)
REMARK       I    between atoms: C1_2  and  N1_3 
REMARK       I    between atoms: C1_2  and  N2_11 
REMARK    1  A    between atoms: N1_3  and  C2_5 
REMARK    2  A    between atoms: N2_11  and  C8_13 
REMARK    3  A    between atoms: C11_16  and  N3_17 
REMARK    4  A    between atoms: N3_17  and  S1_19 
REMARK    5  A    between atoms: S1_19  and  C12_22 
ROOT
HETATM    1  C8  UNL     1      61.086   4.244  -2.882  1.00  0.00     0.036 A 
HETATM    2  C9  UNL     1      59.964   3.461  -3.243  1.00  0.00     0.032 A 
HETATM    3  C10 UNL     1      60.112   2.361  -4.034  1.00  0.00     0.032 A 
HETATM    4  C11 UNL     1      61.329   1.947  -4.522  1.00  0.00     0.042 A 
HETATM    5  C22 UNL     1      62.426   2.685  -4.187  1.00  0.00     0.032 A 
HETATM    6  C23 UNL     1      62.289   3.815  -3.378  1.00  0.00     0.032 A 
ENDROOT
BRANCH   4   7
HETATM    7  N3  UNL     1      61.501   0.807  -5.343  1.00  0.00    -0.281 N 
ATOM      8  H3  UNL     1      61.146  -0.083  -4.995  1.00  0.00     0.179 HD
BRANCH   7   9
HETATM    9  S1  UNL     1      62.262   0.812  -6.880  1.00  0.00     0.264 S 
HETATM   10  O2  UNL     1      61.847  -0.382  -7.702  1.00  0.00    -0.200 OA
HETATM   11  O3  UNL     1      61.753   2.013  -7.641  1.00  0.00    -0.200 OA
BRANCH   9  12
HETATM   12  C12 UNL     1      64.000   0.941  -6.783  1.00  0.00     0.090 A 
HETATM   13  C13 UNL     1      64.665   2.043  -7.336  1.00  0.00     0.026 A 
HETATM   14  C14 UNL     1      66.029   2.110  -7.223  1.00  0.00     0.002 A 
HETATM   15  C15 UNL     1      66.756   1.129  -6.584  1.00  0.00     0.012 A 
HETATM   16  C16 UNL     1      66.121   0.023  -6.026  1.00  0.00    -0.024 A 
HETATM   17  C17 UNL     1      66.863  -0.948  -5.396  1.00  0.00     0.012 A 
HETATM   18  C21 UNL     1      64.734  -0.031  -6.150  1.00  0.00    -0.003 A 
HETATM   19  C18 UNL     1      66.207  -2.027  -4.860  1.00  0.00     0.001 A 
HETATM   20  C19 UNL     1      64.824  -2.125  -4.959  1.00  0.00     0.001 A 
HETATM   21  C20 UNL     1      64.108  -1.135  -5.597  1.00  0.00     0.014 A 
ENDBRANCH   9  12
ENDBRANCH   7   9
ENDBRANCH   4   7
BRANCH   1  22
HETATM   22  N2  UNL     1      60.870   5.357  -2.044  1.00  0.00    -0.309 N 
HETATM   23  C1  UNL     1      61.218   5.453  -0.685  1.00  0.00     0.325 C 
HETATM   24  O1  UNL     1      61.780   4.505  -0.103  1.00  0.00    -0.247 OA
HETATM   25  N1  UNL     1      60.912   6.654  -0.001  1.00  0.00    -0.309 N 
ATOM     26  H1  UNL     1      60.445   7.389  -0.533  1.00  0.00     0.170 HD
ATOM     27  H2  UNL     1      60.419   6.170  -2.464  1.00  0.00     0.170 HD
BRANCH  25  28
HETATM   28  C2  UNL     1      61.199   6.917   1.350  1.00  0.00     0.036 A 
HETATM   29  C3  UNL     1      62.118   6.227   2.073  1.00  0.00     0.029 A 
HETATM   30  C4  UNL     1      62.362   6.504   3.430  1.00  0.00     0.002 A 
HETATM   31  C5  UNL     1      61.655   7.501   4.060  1.00  0.00     0.000 A 
HETATM   32  C6  UNL     1      60.717   8.211   3.334  1.00  0.00     0.002 A 
HETATM   33  C7  UNL     1      60.490   7.933   2.018  1.00  0.00     0.029 A 
ENDBRANCH  25  28
ENDBRANCH   1  22
TORSDOF 5
ENDMDL
