MODEL 1
REMARK VINA RESULT: -5.066548263      0.000      0.000
REMARK  1 active torsions:
REMARK  status: ('A' for Active; 'I' for Inactive)
REMARK    1  A    between atoms: N1_1  and  C1_4 
ROOT
HETATM    1  C1  UNL     1      -4.686   2.275  14.704  1.00  0.00     0.693 A 
HETATM    2  N2  UNL     1      -5.636   3.172  15.057  1.00  0.00    -0.130 N 
ATOM      3  H2  UNL     1      -5.688   4.065  14.568  1.00  0.00     0.205 HD
HETATM    4  N3  UNL     1      -6.501   2.908  16.031  1.00  0.00    -0.257 N 
ATOM      5  H3  UNL     1      -7.201   3.612  16.266  1.00  0.00     0.190 HD
HETATM    6  C2  UNL     1      -6.494   1.753  16.722  1.00  0.00     0.272 A 
HETATM    7  F1  UNL     1      -7.378   1.485  17.716  1.00  0.00    -0.179 F 
HETATM    8  C3  UNL     1      -5.530   0.830  16.370  1.00  0.00     0.317 A 
HETATM    9  O1  UNL     1      -5.511  -0.257  17.007  1.00  0.00    -0.263 OA
HETATM   10  N4  UNL     1      -4.663   1.116  15.382  1.00  0.00    -0.151 N 
ATOM     11  H4  UNL     1      -3.958   0.422  15.136  1.00  0.00     0.188 HD
ENDROOT
BRANCH   1  12
HETATM   12  N1  UNL     1      -3.882   2.581  13.762  1.00  0.00    -0.233 N 
ATOM     13  H12 UNL     1      -3.268   3.396  13.765  1.00  0.00     0.174 HD
ATOM     14  H11 UNL     1      -3.840   1.975  12.943  1.00  0.00     0.174 HD
ENDBRANCH   1  12
TORSDOF 1
ENDMDL
MODEL 2
REMARK VINA RESULT: -5.039668352      1.260      1.260
REMARK  1 active torsions:
REMARK  status: ('A' for Active; 'I' for Inactive)
REMARK    1  A    between atoms: N1_1  and  C1_4 
ROOT
HETATM    1  C1  UNL     1      -5.061   3.181  14.549  1.00  0.00     0.693 A 
HETATM    2  N2  UNL     1      -6.226   3.341  15.218  1.00  0.00    -0.130 N 
ATOM      3  H2  UNL     1      -6.883   4.060  14.916  1.00  0.00     0.205 HD
HETATM    4  N3  UNL     1      -6.529   2.577  16.262  1.00  0.00    -0.257 N 
ATOM      5  H3  UNL     1      -7.418   2.730  16.738  1.00  0.00     0.190 HD
HETATM    6  C2  UNL     1      -5.714   1.608  16.720  1.00  0.00     0.272 A 
HETATM    7  F1  UNL     1      -6.024   0.828  17.787  1.00  0.00    -0.179 F 
HETATM    8  C3  UNL     1      -4.522   1.436  16.046  1.00  0.00     0.317 A 
HETATM    9  O1  UNL     1      -3.749   0.533  16.462  1.00  0.00    -0.263 OA
HETATM   10  N4  UNL     1      -4.234   2.219  14.991  1.00  0.00    -0.151 N 
ATOM     11  H4  UNL     1      -3.349   2.077  14.506  1.00  0.00     0.188 HD
ENDROOT
BRANCH   1  12
HETATM   12  N1  UNL     1      -4.822   3.943  13.554  1.00  0.00    -0.233 N 
ATOM     13  H12 UNL     1      -4.828   4.962  13.590  1.00  0.00     0.174 HD
ATOM     14  H11 UNL     1      -4.608   3.514  12.654  1.00  0.00     0.174 HD
ENDBRANCH   1  12
TORSDOF 1
ENDMDL
MODEL 3
REMARK VINA RESULT: -4.749581520      4.546      5.001
REMARK  1 active torsions:
REMARK  status: ('A' for Active; 'I' for Inactive)
REMARK    1  A    between atoms: N1_1  and  C1_4 
ROOT
HETATM    1  C1  UNL     1      -4.340   2.660  12.337  1.00  0.00     0.693 A 
HETATM    2  N2  UNL     1      -4.142   1.781  13.347  1.00  0.00    -0.130 N 
ATOM      3  H2  UNL     1      -3.979   2.131  14.291  1.00  0.00     0.205 HD
HETATM    4  N3  UNL     1      -4.156   0.470  13.128  1.00  0.00    -0.257 N 
ATOM      5  H3  UNL     1      -4.003  -0.158  13.917  1.00  0.00     0.190 HD
HETATM    6  C2  UNL     1      -4.364  -0.065  11.911  1.00  0.00     0.272 A 
HETATM    7  F1  UNL     1      -4.379  -1.404  11.689  1.00  0.00    -0.179 F 
HETATM    8  C3  UNL     1      -4.567   0.821  10.873  1.00  0.00     0.317 A 
HETATM    9  O1  UNL     1      -4.764   0.335   9.728  1.00  0.00    -0.263 OA
HETATM   10  N4  UNL     1      -4.549   2.144  11.115  1.00  0.00    -0.151 N 
ATOM     11  H4  UNL     1      -4.701   2.784  10.336  1.00  0.00     0.188 HD
ENDROOT
BRANCH   1  12
HETATM   12  N1  UNL     1      -4.316   3.908  12.604  1.00  0.00    -0.233 N 
ATOM     13  H12 UNL     1      -3.963   4.308  13.474  1.00  0.00     0.174 HD
ATOM     14  H11 UNL     1      -4.672   4.561  11.907  1.00  0.00     0.174 HD
ENDBRANCH   1  12
TORSDOF 1
ENDMDL
MODEL 4
REMARK VINA RESULT: -4.711096246      5.339      5.978
REMARK  1 active torsions:
REMARK  status: ('A' for Active; 'I' for Inactive)
REMARK    1  A    between atoms: N1_1  and  C1_4 
ROOT
HETATM    1  C1  UNL     1      -2.082   1.755  11.292  1.00  0.00     0.693 A 
HETATM    2  N2  UNL     1      -1.938   0.540  10.714  1.00  0.00    -0.130 N 
ATOM      3  H2  UNL     1      -1.002   0.166  10.560  1.00  0.00     0.205 HD
HETATM    4  N3  UNL     1      -2.996  -0.173  10.343  1.00  0.00    -0.257 N 
ATOM      5  H3  UNL     1      -2.844  -1.085   9.911  1.00  0.00     0.190 HD
HETATM    6  C2  UNL     1      -4.261   0.254  10.513  1.00  0.00     0.272 A 
HETATM    7  F1  UNL     1      -5.341  -0.476  10.133  1.00  0.00    -0.179 F 
HETATM    8  C3  UNL     1      -4.421   1.492  11.101  1.00  0.00     0.317 A 
HETATM    9  O1  UNL     1      -5.599   1.905  11.267  1.00  0.00    -0.263 OA
HETATM   10  N4  UNL     1      -3.337   2.199  11.469  1.00  0.00    -0.151 N 
ATOM     11  H4  UNL     1      -3.474   3.111  11.903  1.00  0.00     0.188 HD
ENDROOT
BRANCH   1  12
HETATM   12  N1  UNL     1      -1.031   2.396  11.628  1.00  0.00    -0.233 N 
ATOM     13  H12 UNL     1      -0.830   3.360  11.362  1.00  0.00     0.174 HD
ATOM     14  H11 UNL     1      -0.335   1.922  12.203  1.00  0.00     0.174 HD
ENDBRANCH   1  12
TORSDOF 1
ENDMDL
MODEL 5
REMARK VINA RESULT: -4.622011667      5.598      6.118
REMARK  1 active torsions:
REMARK  status: ('A' for Active; 'I' for Inactive)
REMARK    1  A    between atoms: N1_1  and  C1_4 
ROOT
HETATM    1  C1  UNL     1      -3.171  -0.834  11.164  1.00  0.00     0.693 A 
HETATM    2  N2  UNL     1      -2.092  -0.039  10.980  1.00  0.00    -0.130 N 
ATOM      3  H2  UNL     1      -1.162  -0.457  10.939  1.00  0.00     0.205 HD
HETATM    4  N3  UNL     1      -2.223   1.278  10.851  1.00  0.00    -0.257 N 
ATOM      5  H3  UNL     1      -1.384   1.841  10.713  1.00  0.00     0.190 HD
HETATM    6  C2  UNL     1      -3.415   1.900  10.894  1.00  0.00     0.272 A 
HETATM    7  F1  UNL     1      -3.548   3.245  10.762  1.00  0.00    -0.179 F 
HETATM    8  C3  UNL     1      -4.523   1.100  11.081  1.00  0.00     0.317 A 
HETATM    9  O1  UNL     1      -5.647   1.669  11.123  1.00  0.00    -0.263 OA
HETATM   10  N4  UNL     1      -4.370  -0.230  11.210  1.00  0.00    -0.151 N 
ATOM     11  H4  UNL     1      -5.200  -0.806  11.348  1.00  0.00     0.188 HD
ENDROOT
BRANCH   1  12
HETATM   12  N1  UNL     1      -2.986  -2.091  11.282  1.00  0.00    -0.233 N 
ATOM     13  H12 UNL     1      -3.660  -2.741  11.687  1.00  0.00     0.174 HD
ATOM     14  H11 UNL     1      -2.106  -2.486  10.952  1.00  0.00     0.174 HD
ENDBRANCH   1  12
TORSDOF 1
ENDMDL
