MODEL 1
REMARK VINA RESULT: -4.961848123      0.000      0.000
REMARK  2 active torsions:
REMARK  status: ('A' for Active; 'I' for Inactive)
REMARK    1  A    between atoms: N1_1  and  C1_5 
REMARK    2  A    between atoms: N3_7  and  C2_8 
ROOT
HETATM    1  C1  UNL     1      -4.730   1.322  15.292  1.00  0.00     0.383 A 
HETATM    2  N2  UNL     1      -3.855   0.770  16.323  1.00  0.00    -0.111 NA
HETATM    3  N3  UNL     1      -5.192   0.285  16.060  1.00  0.00    -0.172 NA
ENDROOT
BRANCH   3   4
HETATM    4  C2  UNL     1      -6.072   0.391  17.201  1.00  0.00     0.156 A 
HETATM    5  C3  UNL     1      -7.335   1.115  17.013  1.00  0.00     0.086 A 
HETATM    6  N4  UNL     1      -6.970   2.076  17.735  1.00  0.00    -0.379 N 
HETATM    7  C4  UNL     1      -5.723   1.565  18.038  1.00  0.00     0.086 A 
ATOM      8  H4  UNL     1      -7.437   2.942  18.006  1.00  0.00     0.164 HD
ENDBRANCH   3   4
BRANCH   1   9
HETATM    9  N1  UNL     1      -4.261   1.012  13.940  1.00  0.00    -0.046 N 
ATOM     10  H13 UNL     1      -3.811   1.821  13.512  1.00  0.00     0.277 HD
ATOM     11  H12 UNL     1      -3.464   0.377  13.963  1.00  0.00     0.277 HD
ATOM     12  H11 UNL     1      -5.005   0.647  13.345  1.00  0.00     0.277 HD
ENDBRANCH   1   9
TORSDOF 2
ENDMDL
MODEL 2
REMARK VINA RESULT: -4.411055551      1.834      3.563
REMARK  2 active torsions:
REMARK  status: ('A' for Active; 'I' for Inactive)
REMARK    1  A    between atoms: N1_1  and  C1_5 
REMARK    2  A    between atoms: N3_7  and  C2_8 
ROOT
HETATM    1  C1  UNL     1      -5.101   0.725  16.112  1.00  0.00     0.383 A 
HETATM    2  N2  UNL     1      -3.825   1.423  16.233  1.00  0.00    -0.111 NA
HETATM    3  N3  UNL     1      -5.088   2.092  16.016  1.00  0.00    -0.172 NA
ENDROOT
BRANCH   3   4
HETATM    4  C2  UNL     1      -5.121   2.864  14.795  1.00  0.00     0.156 A 
HETATM    5  C3  UNL     1      -4.599   2.227  13.580  1.00  0.00     0.086 A 
HETATM    6  N4  UNL     1      -3.595   2.982  13.534  1.00  0.00    -0.379 N 
HETATM    7  C4  UNL     1      -3.911   3.711  14.664  1.00  0.00     0.086 A 
ATOM      8  H4  UNL     1      -2.812   3.037  12.882  1.00  0.00     0.164 HD
ENDBRANCH   3   4
BRANCH   1   9
HETATM    9  N1  UNL     1      -5.536   0.136  17.380  1.00  0.00    -0.046 N 
ATOM     10  H13 UNL     1      -5.455  -0.881  17.361  1.00  0.00     0.277 HD
ATOM     11  H12 UNL     1      -4.872   0.338  18.127  1.00  0.00     0.277 HD
ATOM     12  H11 UNL     1      -6.480   0.426  17.639  1.00  0.00     0.277 HD
ENDBRANCH   1   9
TORSDOF 2
ENDMDL
MODEL 3
REMARK VINA RESULT: -4.382942317      5.814      6.669
REMARK  2 active torsions:
REMARK  status: ('A' for Active; 'I' for Inactive)
REMARK    1  A    between atoms: N1_1  and  C1_5 
REMARK    2  A    between atoms: N3_7  and  C2_8 
ROOT
HETATM    1  C1  UNL     1      -2.651  -2.062  11.411  1.00  0.00     0.383 A 
HETATM    2  N2  UNL     1      -3.955  -1.472  11.703  1.00  0.00    -0.111 NA
HETATM    3  N3  UNL     1      -3.220  -1.230  10.482  1.00  0.00    -0.172 NA
ENDROOT
BRANCH   3   4
HETATM    4  C2  UNL     1      -2.903   0.164  10.275  1.00  0.00     0.156 A 
HETATM    5  C3  UNL     1      -1.824   0.738  11.087  1.00  0.00     0.086 A 
HETATM    6  N4  UNL     1      -2.613   1.451  11.755  1.00  0.00    -0.379 N 
HETATM    7  C4  UNL     1      -3.762   1.038  11.109  1.00  0.00     0.086 A 
ATOM      8  H4  UNL     1      -2.458   2.112  12.517  1.00  0.00     0.164 HD
ENDBRANCH   3   4
BRANCH   1   9
HETATM    9  N1  UNL     1      -2.733  -3.505  11.174  1.00  0.00    -0.046 N 
ATOM     10  H13 UNL     1      -1.805  -3.914  11.073  1.00  0.00     0.277 HD
ATOM     11  H12 UNL     1      -3.038  -3.999  12.013  1.00  0.00     0.277 HD
ATOM     12  H11 UNL     1      -3.327  -3.734  10.376  1.00  0.00     0.277 HD
ENDBRANCH   1   9
TORSDOF 2
ENDMDL
MODEL 4
REMARK VINA RESULT: -4.333917523      4.619      6.008
REMARK  2 active torsions:
REMARK  status: ('A' for Active; 'I' for Inactive)
REMARK    1  A    between atoms: N1_1  and  C1_5 
REMARK    2  A    between atoms: N3_7  and  C2_8 
ROOT
HETATM    1  C1  UNL     1      -4.140   1.948  12.124  1.00  0.00     0.383 A 
HETATM    2  N2  UNL     1      -5.406   1.951  11.397  1.00  0.00    -0.111 NA
HETATM    3  N3  UNL     1      -4.829   0.770  12.001  1.00  0.00    -0.172 NA
ENDROOT
BRANCH   3   4
HETATM    4  C2  UNL     1      -4.560  -0.283  11.050  1.00  0.00     0.156 A 
HETATM    5  C3  UNL     1      -3.930  -1.507  11.559  1.00  0.00     0.086 A 
HETATM    6  N4  UNL     1      -2.844  -1.274  10.973  1.00  0.00    -0.379 N 
HETATM    7  C4  UNL     1      -3.245  -0.087  10.392  1.00  0.00     0.086 A 
ATOM      8  H4  UNL     1      -1.962  -1.787  10.938  1.00  0.00     0.164 HD
ENDBRANCH   3   4
BRANCH   1   9
HETATM    9  N1  UNL     1      -4.230   2.660  13.400  1.00  0.00    -0.046 N 
ATOM     10  H13 UNL     1      -3.835   3.598  13.328  1.00  0.00     0.277 HD
ATOM     11  H12 UNL     1      -5.195   2.906  13.617  1.00  0.00     0.277 HD
ATOM     12  H11 UNL     1      -3.802   2.139  14.166  1.00  0.00     0.277 HD
ENDBRANCH   1   9
TORSDOF 2
ENDMDL
MODEL 5
REMARK VINA RESULT: -4.252818302      1.260      1.502
REMARK  2 active torsions:
REMARK  status: ('A' for Active; 'I' for Inactive)
REMARK    1  A    between atoms: N1_1  and  C1_5 
REMARK    2  A    between atoms: N3_7  and  C2_8 
ROOT
HETATM    1  C1  UNL     1      -4.784   1.958  14.455  1.00  0.00     0.383 A 
HETATM    2  N2  UNL     1      -3.817   2.698  15.261  1.00  0.00    -0.111 NA
HETATM    3  N3  UNL     1      -4.452   1.473  15.694  1.00  0.00    -0.172 NA
ENDROOT
BRANCH   3   4
HETATM    4  C2  UNL     1      -5.221   1.628  16.907  1.00  0.00     0.156 A 
HETATM    5  C3  UNL     1      -5.972   0.460  17.382  1.00  0.00     0.086 A 
HETATM    6  N4  UNL     1      -7.083   0.979  17.110  1.00  0.00    -0.379 N 
HETATM    7  C4  UNL     1      -6.573   2.164  16.618  1.00  0.00     0.086 A 
ATOM      8  H4  UNL     1      -8.040   0.640  17.217  1.00  0.00     0.164 HD
ENDBRANCH   3   4
BRANCH   1   9
HETATM    9  N1  UNL     1      -4.167   1.324  13.288  1.00  0.00    -0.046 N 
ATOM     10  H13 UNL     1      -4.348   1.860  12.439  1.00  0.00     0.277 HD
ATOM     11  H12 UNL     1      -3.151   1.406  13.318  1.00  0.00     0.277 HD
ATOM     12  H11 UNL     1      -4.454   0.351  13.178  1.00  0.00     0.277 HD
ENDBRANCH   1   9
TORSDOF 2
ENDMDL
