MODEL 1
REMARK VINA RESULT: -8.851225922      0.000      0.000
REMARK  2 active torsions:
REMARK  status: ('A' for Active; 'I' for Inactive)
REMARK    1  A    between atoms: C11_12  and  C12_13 
REMARK    2  A    between atoms: C13_14  and  C14_15 
ROOT
HETATM    1  C1  UNL     1      65.031  -2.570 -19.261  1.00  0.00     0.156 C 
HETATM    2  N1  UNL     1      65.786  -3.630 -19.884  1.00  0.00    -0.350 N 
HETATM    3  C2  UNL     1      65.239  -4.720 -20.450  1.00  0.00     0.045 A 
HETATM    4  C3  UNL     1      63.934  -5.157 -20.614  1.00  0.00     0.030 A 
HETATM    5  C4  UNL     1      63.691  -6.354 -21.255  1.00  0.00     0.002 A 
HETATM    6  C5  UNL     1      64.697  -7.156 -21.751  1.00  0.00     0.001 A 
HETATM    7  C6  UNL     1      65.996  -6.721 -21.585  1.00  0.00     0.014 A 
HETATM    8  C7  UNL     1      66.242  -5.524 -20.945  1.00  0.00     0.003 A 
HETATM    9  C8  UNL     1      67.417  -4.848 -20.642  1.00  0.00     0.003 A 
HETATM   10  C9  UNL     1      68.745  -5.147 -20.880  1.00  0.00     0.016 A 
HETATM   11  C10 UNL     1      69.735  -4.281 -20.462  1.00  0.00     0.022 A 
HETATM   12  C11 UNL     1      69.438  -3.106 -19.802  1.00  0.00     0.020 A 
HETATM   13  C19 UNL     1      68.117  -2.795 -19.558  1.00  0.00     0.051 A 
HETATM   14  C20 UNL     1      67.138  -3.670 -19.982  1.00  0.00     0.047 A 
ENDROOT
BRANCH  12  15
HETATM   15  C12 UNL     1      70.491  -2.226 -19.380  1.00  0.00    -0.060 C 
HETATM   16  C13 UNL     1      71.374  -1.495 -19.006  1.00  0.00    -0.043 C 
BRANCH  16  17
HETATM   17  C14 UNL     1      72.437  -0.623 -18.533  1.00  0.00     0.086 A 
HETATM   18  C15 UNL     1      72.346   0.025 -17.323  1.00  0.00     0.039 A 
HETATM   19  C16 UNL     1      73.365   0.844 -16.898  1.00  0.00     0.004 A 
HETATM   20  C17 UNL     1      74.460   0.998 -17.699  1.00  0.00     0.017 A 
HETATM   21  C18 UNL     1      74.519   0.334 -18.905  1.00  0.00     0.089 A 
HETATM   22  N2  UNL     1      73.512  -0.460 -19.300  1.00  0.00    -0.359 N 
ATOM     23  H2  UNL     1      73.572  -0.943 -20.196  1.00  0.00     0.166 HD
ENDBRANCH  16  17
ENDBRANCH  12  15
TORSDOF 2
ENDMDL
MODEL 2
REMARK VINA RESULT: -8.765645559      1.275      1.562
REMARK  2 active torsions:
REMARK  status: ('A' for Active; 'I' for Inactive)
REMARK    1  A    between atoms: C11_12  and  C12_13 
REMARK    2  A    between atoms: C13_14  and  C14_15 
ROOT
HETATM    1  C1  UNL     1      65.567  -1.893 -19.005  1.00  0.00     0.156 C 
HETATM    2  N1  UNL     1      65.921  -3.125 -19.666  1.00  0.00    -0.350 N 
HETATM    3  C2  UNL     1      65.032  -4.025 -20.122  1.00  0.00     0.045 A 
HETATM    4  C3  UNL     1      63.647  -4.083 -20.120  1.00  0.00     0.030 A 
HETATM    5  C4  UNL     1      63.009  -5.170 -20.681  1.00  0.00     0.002 A 
HETATM    6  C5  UNL     1      63.689  -6.224 -21.255  1.00  0.00     0.001 A 
HETATM    7  C6  UNL     1      65.068  -6.165 -21.255  1.00  0.00     0.014 A 
HETATM    8  C7  UNL     1      65.709  -5.078 -20.696  1.00  0.00     0.003 A 
HETATM    9  C8  UNL     1      67.052  -4.753 -20.555  1.00  0.00     0.003 A 
HETATM   10  C9  UNL     1      68.208  -5.411 -20.930  1.00  0.00     0.016 A 
HETATM   11  C10 UNL     1      69.440  -4.851 -20.661  1.00  0.00     0.022 A 
HETATM   12  C11 UNL     1      69.558  -3.635 -20.020  1.00  0.00     0.020 A 
HETATM   13  C19 UNL     1      68.413  -2.967 -19.640  1.00  0.00     0.051 A 
HETATM   14  C20 UNL     1      67.188  -3.539 -19.915  1.00  0.00     0.047 A 
ENDROOT
BRANCH  12  15
HETATM   15  C12 UNL     1      70.855  -3.078 -19.755  1.00  0.00    -0.060 C 
HETATM   16  C13 UNL     1      71.951  -2.629 -19.524  1.00  0.00    -0.043 C 
BRANCH  16  17
HETATM   17  C14 UNL     1      73.276  -2.108 -19.233  1.00  0.00     0.086 A 
HETATM   18  C15 UNL     1      73.519  -0.754 -19.191  1.00  0.00     0.039 A 
HETATM   19  C16 UNL     1      74.782  -0.286 -18.914  1.00  0.00     0.004 A 
HETATM   20  C17 UNL     1      75.780  -1.189 -18.683  1.00  0.00     0.017 A 
HETATM   21  C18 UNL     1      75.502  -2.538 -18.732  1.00  0.00     0.089 A 
HETATM   22  N2  UNL     1      74.262  -2.971 -19.005  1.00  0.00    -0.359 N 
ATOM     23  H2  UNL     1      74.073  -3.973 -19.039  1.00  0.00     0.166 HD
ENDBRANCH  16  17
ENDBRANCH  12  15
TORSDOF 2
ENDMDL
MODEL 3
REMARK VINA RESULT: -8.476848620      1.262      8.913
REMARK  2 active torsions:
REMARK  status: ('A' for Active; 'I' for Inactive)
REMARK    1  A    between atoms: C11_12  and  C12_13 
REMARK    2  A    between atoms: C13_14  and  C14_15 
ROOT
HETATM    1  C1  UNL     1      73.190  -3.704 -20.501  1.00  0.00     0.156 C 
HETATM    2  N1  UNL     1      72.526  -2.610 -19.835  1.00  0.00    -0.350 N 
HETATM    3  C2  UNL     1      73.158  -1.550 -19.301  1.00  0.00     0.045 A 
HETATM    4  C3  UNL     1      74.491  -1.180 -19.210  1.00  0.00     0.030 A 
HETATM    5  C4  UNL     1      74.830   0.000 -18.584  1.00  0.00     0.002 A 
HETATM    6  C5  UNL     1      73.895   0.850 -18.030  1.00  0.00     0.001 A 
HETATM    7  C6  UNL     1      72.568   0.480 -18.120  1.00  0.00     0.014 A 
HETATM    8  C7  UNL     1      72.226  -0.700 -18.748  1.00  0.00     0.003 A 
HETATM    9  C8  UNL     1      71.003  -1.315 -18.983  1.00  0.00     0.003 A 
HETATM   10  C9  UNL     1      69.708  -0.951 -18.669  1.00  0.00     0.016 A 
HETATM   11  C10 UNL     1      68.654  -1.766 -19.029  1.00  0.00     0.022 A 
HETATM   12  C11 UNL     1      68.854  -2.951 -19.705  1.00  0.00     0.020 A 
HETATM   13  C19 UNL     1      70.141  -3.327 -20.027  1.00  0.00     0.051 A 
HETATM   14  C20 UNL     1      71.186  -2.503 -19.660  1.00  0.00     0.047 A 
ENDROOT
BRANCH  12  15
HETATM   15  C12 UNL     1      67.736  -3.777 -20.067  1.00  0.00    -0.060 C 
HETATM   16  C13 UNL     1      66.809  -4.482 -20.383  1.00  0.00    -0.043 C 
BRANCH  16  17
HETATM   17  C14 UNL     1      65.707  -5.343 -20.778  1.00  0.00     0.086 A 
HETATM   18  C15 UNL     1      65.928  -6.623 -21.233  1.00  0.00     0.039 A 
HETATM   19  C16 UNL     1      64.868  -7.418 -21.601  1.00  0.00     0.004 A 
HETATM   20  C17 UNL     1      63.603  -6.913 -21.504  1.00  0.00     0.017 A 
HETATM   21  C18 UNL     1      63.418  -5.627 -21.044  1.00  0.00     0.089 A 
HETATM   22  N2  UNL     1      64.467  -4.869 -20.691  1.00  0.00    -0.359 N 
ATOM     23  H2  UNL     1      64.313  -3.919 -20.353  1.00  0.00     0.166 HD
ENDBRANCH  16  17
ENDBRANCH  12  15
TORSDOF 2
ENDMDL
MODEL 4
REMARK VINA RESULT: -8.454441197      2.148      3.008
REMARK  2 active torsions:
REMARK  status: ('A' for Active; 'I' for Inactive)
REMARK    1  A    between atoms: C11_12  and  C12_13 
REMARK    2  A    between atoms: C13_14  and  C14_15 
ROOT
HETATM    1  C1  UNL     1      67.184  -6.727 -21.923  1.00  0.00     0.156 C 
HETATM    2  N1  UNL     1      66.735  -5.589 -21.159  1.00  0.00    -0.350 N 
HETATM    3  C2  UNL     1      65.447  -5.322 -20.880  1.00  0.00     0.045 A 
HETATM    4  C3  UNL     1      64.253  -5.957 -21.186  1.00  0.00     0.030 A 
HETATM    5  C4  UNL     1      63.062  -5.419 -20.744  1.00  0.00     0.002 A 
HETATM    6  C5  UNL     1      62.994  -4.260 -19.999  1.00  0.00     0.001 A 
HETATM    7  C6  UNL     1      64.183  -3.629 -19.696  1.00  0.00     0.014 A 
HETATM    8  C7  UNL     1      65.376  -4.165 -20.137  1.00  0.00     0.003 A 
HETATM    9  C8  UNL     1      66.696  -3.759 -19.989  1.00  0.00     0.003 A 
HETATM   10  C9  UNL     1      67.266  -2.677 -19.346  1.00  0.00     0.016 A 
HETATM   11  C10 UNL     1      68.635  -2.510 -19.355  1.00  0.00     0.022 A 
HETATM   12  C11 UNL     1      69.469  -3.403 -19.995  1.00  0.00     0.020 A 
HETATM   13  C19 UNL     1      68.915  -4.488 -20.640  1.00  0.00     0.051 A 
HETATM   14  C20 UNL     1      67.544  -4.643 -20.624  1.00  0.00     0.047 A 
ENDROOT
BRANCH  12  15
HETATM   15  C12 UNL     1      70.892  -3.201 -19.985  1.00  0.00    -0.060 C 
HETATM   16  C13 UNL     1      72.083  -3.015 -19.964  1.00  0.00    -0.043 C 
BRANCH  16  17
HETATM   17  C14 UNL     1      73.516  -2.773 -19.924  1.00  0.00     0.086 A 
HETATM   18  C15 UNL     1      74.187  -2.273 -21.016  1.00  0.00     0.039 A 
HETATM   19  C16 UNL     1      75.543  -2.052 -20.953  1.00  0.00     0.004 A 
HETATM   20  C17 UNL     1      76.201  -2.337 -19.791  1.00  0.00     0.017 A 
HETATM   21  C18 UNL     1      75.497  -2.836 -18.716  1.00  0.00     0.089 A 
HETATM   22  N2  UNL     1      74.175  -3.044 -18.801  1.00  0.00    -0.359 N 
ATOM     23  H2  UNL     1      73.670  -3.414 -17.996  1.00  0.00     0.166 HD
ENDBRANCH  16  17
ENDBRANCH  12  15
TORSDOF 2
ENDMDL
MODEL 5
REMARK VINA RESULT: -8.397346995      1.566      8.741
REMARK  2 active torsions:
REMARK  status: ('A' for Active; 'I' for Inactive)
REMARK    1  A    between atoms: C11_12  and  C12_13 
REMARK    2  A    between atoms: C13_14  and  C14_15 
ROOT
HETATM    1  C1  UNL     1      71.185  -0.464 -18.258  1.00  0.00     0.156 C 
HETATM    2  N1  UNL     1      71.933  -1.394 -19.067  1.00  0.00    -0.350 N 
HETATM    3  C2  UNL     1      73.260  -1.325 -19.272  1.00  0.00     0.045 A 
HETATM    4  C3  UNL     1      74.249  -0.453 -18.841  1.00  0.00     0.030 A 
HETATM    5  C4  UNL     1      75.554  -0.654 -19.236  1.00  0.00     0.002 A 
HETATM    6  C5  UNL     1      75.938  -1.696 -20.055  1.00  0.00     0.001 A 
HETATM    7  C6  UNL     1      74.954  -2.562 -20.484  1.00  0.00     0.014 A 
HETATM    8  C7  UNL     1      73.646  -2.364 -20.090  1.00  0.00     0.003 A 
HETATM    9  C8  UNL     1      72.472  -3.056 -20.358  1.00  0.00     0.003 A 
HETATM   10  C9  UNL     1      72.214  -4.184 -21.114  1.00  0.00     0.016 A 
HETATM   11  C10 UNL     1      70.927  -4.670 -21.213  1.00  0.00     0.022 A 
HETATM   12  C11 UNL     1      69.870  -4.057 -20.572  1.00  0.00     0.020 A 
HETATM   13  C19 UNL     1      70.113  -2.932 -19.814  1.00  0.00     0.051 A 
HETATM   14  C20 UNL     1      71.405  -2.456 -19.723  1.00  0.00     0.047 A 
ENDROOT
BRANCH  12  15
HETATM   15  C12 UNL     1      68.541  -4.588 -20.695  1.00  0.00    -0.060 C 
HETATM   16  C13 UNL     1      67.425  -5.029 -20.819  1.00  0.00    -0.043 C 
BRANCH  16  17
HETATM   17  C14 UNL     1      66.080  -5.553 -20.991  1.00  0.00     0.086 A 
HETATM   18  C15 UNL     1      65.862  -6.811 -21.502  1.00  0.00     0.039 A 
HETATM   19  C16 UNL     1      64.580  -7.283 -21.655  1.00  0.00     0.004 A 
HETATM   20  C17 UNL     1      63.538  -6.481 -21.289  1.00  0.00     0.017 A 
HETATM   21  C18 UNL     1      63.792  -5.226 -20.780  1.00  0.00     0.089 A 
HETATM   22  N2  UNL     1      65.051  -4.786 -20.640  1.00  0.00    -0.359 N 
ATOM     23  H2  UNL     1      65.222  -3.854 -20.262  1.00  0.00     0.166 HD
ENDBRANCH  16  17
ENDBRANCH  12  15
TORSDOF 2
ENDMDL
