MODEL 1
REMARK VINA RESULT: -10.999125848      0.000      0.000
REMARK  0 active torsions:
REMARK  status: ('A' for Active; 'I' for Inactive)
ROOT
HETATM    1  C1  UNL     1      72.432  -1.044 -18.888  1.00  0.00     0.001 A 
HETATM    2  C2  UNL     1      71.310  -0.371 -18.486  1.00  0.00     0.001 A 
HETATM    3  C3  UNL     1      70.059  -0.932 -18.722  1.00  0.00     0.014 A 
HETATM    4  C4  UNL     1      69.954  -2.130 -19.342  1.00  0.00     0.004 A 
HETATM    5  C5  UNL     1      71.097  -2.782 -19.734  1.00  0.00    -0.008 A 
HETATM    6  C6  UNL     1      72.372  -2.262 -19.522  1.00  0.00     0.014 A 
HETATM    7  C7  UNL     1      70.702  -3.962 -20.332  1.00  0.00     0.110 A 
HETATM    8  N1  UNL     1      69.360  -4.057 -20.320  1.00  0.00    -0.315 N 
HETATM    9  C8  UNL     1      68.555  -5.040 -20.797  1.00  0.00     0.196 A 
HETATM   10  N2  UNL     1      67.222  -4.926 -20.677  1.00  0.00    -0.305 N 
HETATM   11  C9  UNL     1      66.137  -5.666 -21.014  1.00  0.00     0.051 A 
HETATM   12  C10 UNL     1      66.022  -6.883 -21.644  1.00  0.00     0.031 A 
HETATM   13  C11 UNL     1      64.754  -7.385 -21.847  1.00  0.00     0.002 A 
HETATM   14  C12 UNL     1      63.607  -6.718 -21.447  1.00  0.00     0.001 A 
HETATM   15  C13 UNL     1      63.742  -5.500 -20.818  1.00  0.00     0.014 A 
HETATM   16  C14 UNL     1      64.979  -4.989 -20.607  1.00  0.00     0.005 A 
HETATM   17  C15 UNL     1      65.414  -3.808 -20.011  1.00  0.00     0.020 A 
HETATM   18  C16 UNL     1      64.810  -2.709 -19.410  1.00  0.00     0.102 A 
HETATM   19  N3  UNL     1      65.569  -1.725 -18.931  1.00  0.00    -0.373 N 
ATOM     20  H3  UNL     1      65.100  -0.930 -18.496  1.00  0.00     0.164 HD
HETATM   21  C17 UNL     1      66.934  -1.709 -18.985  1.00  0.00     0.103 A 
HETATM   22  C18 UNL     1      67.538  -2.797 -19.580  1.00  0.00     0.035 A 
HETATM   23  C19 UNL     1      66.779  -3.822 -20.080  1.00  0.00     0.067 A 
HETATM   24  C20 UNL     1      68.907  -2.928 -19.711  1.00  0.00     0.064 A 
ENDROOT
TORSDOF 0
ENDMDL
MODEL 2
REMARK VINA RESULT: -10.943947705      1.110      6.853
REMARK  0 active torsions:
REMARK  status: ('A' for Active; 'I' for Inactive)
ROOT
HETATM    1  C1  UNL     1      63.831  -6.885 -21.526  1.00  0.00     0.001 A 
HETATM    2  C2  UNL     1      65.117  -7.257 -21.809  1.00  0.00     0.001 A 
HETATM    3  C3  UNL     1      66.165  -6.424 -21.430  1.00  0.00     0.014 A 
HETATM    4  C4  UNL     1      65.914  -5.259 -20.790  1.00  0.00     0.004 A 
HETATM    5  C5  UNL     1      64.614  -4.911 -20.521  1.00  0.00    -0.008 A 
HETATM    6  C6  UNL     1      63.530  -5.710 -20.879  1.00  0.00     0.014 A 
HETATM    7  C7  UNL     1      64.650  -3.693 -19.871  1.00  0.00     0.110 A 
HETATM    8  N1  UNL     1      65.923  -3.283 -19.733  1.00  0.00    -0.315 N 
HETATM    9  C8  UNL     1      66.415  -2.154 -19.161  1.00  0.00     0.196 A 
HETATM   10  N2  UNL     1      67.741  -1.944 -19.134  1.00  0.00    -0.305 N 
HETATM   11  C9  UNL     1      68.575  -0.981 -18.672  1.00  0.00     0.051 A 
HETATM   12  C10 UNL     1      68.329   0.206 -18.021  1.00  0.00     0.031 A 
HETATM   13  C11 UNL     1      69.411   0.986 -17.673  1.00  0.00     0.002 A 
HETATM   14  C12 UNL     1      70.720   0.624 -17.950  1.00  0.00     0.001 A 
HETATM   15  C13 UNL     1      70.947  -0.567 -18.602  1.00  0.00     0.014 A 
HETATM   16  C14 UNL     1      69.899  -1.350 -18.953  1.00  0.00     0.005 A 
HETATM   17  C15 UNL     1      69.824  -2.578 -19.606  1.00  0.00     0.020 A 
HETATM   18  C16 UNL     1      70.734  -3.479 -20.147  1.00  0.00     0.102 A 
HETATM   19  N3  UNL     1      70.287  -4.598 -20.717  1.00  0.00    -0.373 N 
ATOM     20  H3  UNL     1      70.976  -5.242 -21.106  1.00  0.00     0.164 HD
HETATM   21  C17 UNL     1      68.968  -4.939 -20.814  1.00  0.00     0.103 A 
HETATM   22  C18 UNL     1      68.061  -4.047 -20.279  1.00  0.00     0.035 A 
HETATM   23  C19 UNL     1      68.496  -2.890 -19.688  1.00  0.00     0.067 A 
HETATM   24  C20 UNL     1      66.695  -4.249 -20.300  1.00  0.00     0.064 A 
ENDROOT
TORSDOF 0
ENDMDL
MODEL 3
REMARK VINA RESULT: -10.689818535      0.949      6.256
REMARK  0 active torsions:
REMARK  status: ('A' for Active; 'I' for Inactive)
ROOT
HETATM    1  C1  UNL     1      63.315  -5.600 -20.878  1.00  0.00     0.001 A 
HETATM    2  C2  UNL     1      63.307  -4.401 -20.220  1.00  0.00     0.001 A 
HETATM    3  C3  UNL     1      64.515  -3.767 -19.946  1.00  0.00     0.014 A 
HETATM    4  C4  UNL     1      65.684  -4.331 -20.326  1.00  0.00     0.004 A 
HETATM    5  C5  UNL     1      65.661  -5.535 -20.985  1.00  0.00    -0.008 A 
HETATM    6  C6  UNL     1      64.479  -6.210 -21.282  1.00  0.00     0.014 A 
HETATM    7  C7  UNL     1      66.974  -5.873 -21.250  1.00  0.00     0.110 A 
HETATM    8  N1  UNL     1      67.798  -4.921 -20.778  1.00  0.00    -0.315 N 
HETATM    9  C8  UNL     1      69.153  -4.847 -20.819  1.00  0.00     0.196 A 
HETATM   10  N2  UNL     1      69.779  -3.789 -20.277  1.00  0.00    -0.305 N 
HETATM   11  C9  UNL     1      71.061  -3.375 -20.128  1.00  0.00     0.051 A 
HETATM   12  C10 UNL     1      72.255  -3.943 -20.511  1.00  0.00     0.031 A 
HETATM   13  C11 UNL     1      73.416  -3.263 -20.210  1.00  0.00     0.002 A 
HETATM   14  C12 UNL     1      73.426  -2.048 -19.545  1.00  0.00     0.001 A 
HETATM   15  C13 UNL     1      72.222  -1.496 -19.169  1.00  0.00     0.014 A 
HETATM   16  C14 UNL     1      71.068  -2.145 -19.455  1.00  0.00     0.005 A 
HETATM   17  C15 UNL     1      69.733  -1.837 -19.205  1.00  0.00     0.020 A 
HETATM   18  C16 UNL     1      69.045  -0.795 -18.592  1.00  0.00     0.102 A 
HETATM   19  N3  UNL     1      67.715  -0.835 -18.533  1.00  0.00    -0.373 N 
ATOM     20  H3  UNL     1      67.236  -0.058 -18.077  1.00  0.00     0.164 HD
HETATM   21  C17 UNL     1      66.951  -1.847 -19.041  1.00  0.00     0.103 A 
HETATM   22  C18 UNL     1      67.629  -2.882 -19.650  1.00  0.00     0.035 A 
HETATM   23  C19 UNL     1      68.997  -2.864 -19.724  1.00  0.00     0.067 A 
HETATM   24  C20 UNL     1      66.999  -3.976 -20.212  1.00  0.00     0.064 A 
ENDROOT
TORSDOF 0
ENDMDL
MODEL 4
REMARK VINA RESULT: -10.490974670      0.864      6.276
REMARK  0 active torsions:
REMARK  status: ('A' for Active; 'I' for Inactive)
ROOT
HETATM    1  C1  UNL     1      63.887  -6.927 -21.586  1.00  0.00     0.001 A 
HETATM    2  C2  UNL     1      63.306  -5.834 -21.003  1.00  0.00     0.001 A 
HETATM    3  C3  UNL     1      64.114  -4.816 -20.506  1.00  0.00     0.014 A 
HETATM    4  C4  UNL     1      65.460  -4.908 -20.598  1.00  0.00     0.004 A 
HETATM    5  C5  UNL     1      66.016  -6.017 -21.188  1.00  0.00    -0.008 A 
HETATM    6  C6  UNL     1      65.250  -7.062 -21.700  1.00  0.00     0.014 A 
HETATM    7  C7  UNL     1      67.386  -5.849 -21.146  1.00  0.00     0.110 A 
HETATM    8  N1  UNL     1      67.689  -4.681 -20.555  1.00  0.00    -0.315 N 
HETATM    9  C8  UNL     1      68.901  -4.121 -20.306  1.00  0.00     0.196 A 
HETATM   10  N2  UNL     1      68.971  -2.927 -19.694  1.00  0.00    -0.305 N 
HETATM   11  C9  UNL     1      69.954  -2.085 -19.292  1.00  0.00     0.051 A 
HETATM   12  C10 UNL     1      71.324  -2.170 -19.381  1.00  0.00     0.031 A 
HETATM   13  C11 UNL     1      72.068  -1.129 -18.870  1.00  0.00     0.002 A 
HETATM   14  C12 UNL     1      71.496  -0.014 -18.278  1.00  0.00     0.001 A 
HETATM   15  C13 UNL     1      70.123   0.054 -18.197  1.00  0.00     0.014 A 
HETATM   16  C14 UNL     1      69.372  -0.958 -18.694  1.00  0.00     0.005 A 
HETATM   17  C15 UNL     1      67.995  -1.161 -18.752  1.00  0.00     0.020 A 
HETATM   18  C16 UNL     1      66.864  -0.459 -18.353  1.00  0.00     0.102 A 
HETATM   19  N3  UNL     1      65.657  -0.977 -18.580  1.00  0.00    -0.373 N 
ATOM     20  H3  UNL     1      64.844  -0.441 -18.277  1.00  0.00     0.164 HD
HETATM   21  C17 UNL     1      65.438  -2.178 -19.192  1.00  0.00     0.103 A 
HETATM   22  C18 UNL     1      66.558  -2.879 -19.590  1.00  0.00     0.035 A 
HETATM   23  C19 UNL     1      67.809  -2.366 -19.367  1.00  0.00     0.067 A 
HETATM   24  C20 UNL     1      66.502  -4.107 -20.220  1.00  0.00     0.064 A 
ENDROOT
TORSDOF 0
ENDMDL
MODEL 5
REMARK VINA RESULT: -10.379775476      1.410      3.465
REMARK  0 active torsions:
REMARK  status: ('A' for Active; 'I' for Inactive)
ROOT
HETATM    1  C1  UNL     1      68.729   1.687 -17.261  1.00  0.00     0.001 A 
HETATM    2  C2  UNL     1      69.746   0.896 -17.723  1.00  0.00     0.001 A 
HETATM    3  C3  UNL     1      69.442  -0.311 -18.343  1.00  0.00     0.014 A 
HETATM    4  C4  UNL     1      68.154  -0.700 -18.487  1.00  0.00     0.004 A 
HETATM    5  C5  UNL     1      67.154   0.113 -18.012  1.00  0.00    -0.008 A 
HETATM    6  C6  UNL     1      67.407   1.331 -17.385  1.00  0.00     0.014 A 
HETATM    7  C7  UNL     1      65.958  -0.519 -18.287  1.00  0.00     0.110 A 
HETATM    8  N1  UNL     1      66.188  -1.688 -18.912  1.00  0.00    -0.315 N 
HETATM    9  C8  UNL     1      65.310  -2.621 -19.360  1.00  0.00     0.196 A 
HETATM   10  N2  UNL     1      65.767  -3.730 -19.964  1.00  0.00    -0.305 N 
HETATM   11  C9  UNL     1      65.225  -4.841 -20.521  1.00  0.00     0.051 A 
HETATM   12  C10 UNL     1      63.918  -5.244 -20.670  1.00  0.00     0.031 A 
HETATM   13  C11 UNL     1      63.684  -6.451 -21.294  1.00  0.00     0.002 A 
HETATM   14  C12 UNL     1      64.702  -7.263 -21.768  1.00  0.00     0.001 A 
HETATM   15  C13 UNL     1      66.004  -6.844 -21.610  1.00  0.00     0.014 A 
HETATM   16  C14 UNL     1      66.257  -5.660 -21.001  1.00  0.00     0.005 A 
HETATM   17  C15 UNL     1      67.444  -4.994 -20.707  1.00  0.00     0.020 A 
HETATM   18  C16 UNL     1      68.800  -5.236 -20.898  1.00  0.00     0.102 A 
HETATM   19  N3  UNL     1      69.691  -4.342 -20.471  1.00  0.00    -0.373 N 
ATOM     20  H3  UNL     1      70.679  -4.544 -20.624  1.00  0.00     0.164 HD
HETATM   21  C17 UNL     1      69.368  -3.173 -19.842  1.00  0.00     0.103 A 
HETATM   22  C18 UNL     1      68.025  -2.929 -19.650  1.00  0.00     0.035 A 
HETATM   23  C19 UNL     1      67.089  -3.833 -20.081  1.00  0.00     0.067 A 
HETATM   24  C20 UNL     1      67.540  -1.793 -19.031  1.00  0.00     0.064 A 
ENDROOT
TORSDOF 0
ENDMDL
