MODEL 1
REMARK VINA RESULT: -8.963639882      0.000      0.000
REMARK  2 active torsions:
REMARK  status: ('A' for Active; 'I' for Inactive)
REMARK    1  A    between atoms: C6_8  and  C7_9 
REMARK    2  A    between atoms: C8_10  and  C9_11 
ROOT
HETATM    1  C1  UNL     1      62.848  -4.369 -19.955  1.00  0.00     0.068 C 
HETATM    2  C2  UNL     1      64.337  -4.273 -20.044  1.00  0.00     0.015 A 
HETATM    3  C3  UNL     1      64.977  -3.178 -19.498  1.00  0.00     0.055 A 
HETATM    4  C4  UNL     1      66.350  -3.017 -19.540  1.00  0.00     0.046 A 
HETATM    5  N1  UNL     1      66.963  -1.929 -18.994  1.00  0.00    -0.364 N 
ATOM      6  H1  UNL     1      66.402  -1.209 -18.541  1.00  0.00     0.165 HD
HETATM    7  C5  UNL     1      68.302  -1.793 -19.046  1.00  0.00     0.109 A 
HETATM    8  C6  UNL     1      69.092  -2.749 -19.653  1.00  0.00     0.034 A 
HETATM    9  C15 UNL     1      68.452  -3.853 -20.205  1.00  0.00     0.038 A 
HETATM   10  C16 UNL     1      67.087  -4.003 -20.157  1.00  0.00     0.019 A 
HETATM   11  C17 UNL     1      66.415  -5.077 -20.689  1.00  0.00     0.051 A 
HETATM   12  C18 UNL     1      66.904  -6.184 -21.351  1.00  0.00     0.032 A 
HETATM   13  C19 UNL     1      65.850  -7.001 -21.705  1.00  0.00     0.020 A 
HETATM   14  C20 UNL     1      64.721  -6.355 -21.238  1.00  0.00     0.097 A 
HETATM   15  N2  UNL     1      65.087  -5.214 -20.639  1.00  0.00    -0.325 N 
ENDROOT
BRANCH   8  16
HETATM   16  C7  UNL     1      70.523  -2.649 -19.733  1.00  0.00    -0.060 C 
HETATM   17  C8  UNL     1      71.723  -2.549 -19.789  1.00  0.00    -0.061 C 
BRANCH  17  18
HETATM   18  C9  UNL     1      73.150  -2.420 -19.831  1.00  0.00     0.018 A 
HETATM   19  C10 UNL     1      73.863  -2.206 -20.990  1.00  0.00     0.020 A 
HETATM   20  C11 UNL     1      75.246  -2.086 -20.989  1.00  0.00     0.001 A 
HETATM   21  C12 UNL     1      75.919  -2.183 -19.804  1.00  0.00     0.000 A 
HETATM   22  C13 UNL     1      75.227  -2.395 -18.647  1.00  0.00     0.001 A 
HETATM   23  C14 UNL     1      73.871  -2.510 -18.661  1.00  0.00     0.020 A 
ENDBRANCH  17  18
ENDBRANCH   8  16
TORSDOF 2
ENDMDL
MODEL 2
REMARK VINA RESULT: -8.941456666      0.117      1.010
REMARK  2 active torsions:
REMARK  status: ('A' for Active; 'I' for Inactive)
REMARK    1  A    between atoms: C6_8  and  C7_9 
REMARK    2  A    between atoms: C8_10  and  C9_11 
ROOT
HETATM    1  C1  UNL     1      62.885  -4.466 -20.066  1.00  0.00     0.068 C 
HETATM    2  C2  UNL     1      64.375  -4.364 -20.130  1.00  0.00     0.015 A 
HETATM    3  C3  UNL     1      65.000  -3.259 -19.583  1.00  0.00     0.055 A 
HETATM    4  C4  UNL     1      66.373  -3.092 -19.603  1.00  0.00     0.046 A 
HETATM    5  N1  UNL     1      66.971  -1.995 -19.058  1.00  0.00    -0.364 N 
ATOM      6  H1  UNL     1      66.398  -1.273 -18.622  1.00  0.00     0.165 HD
HETATM    7  C5  UNL     1      68.309  -1.852 -19.088  1.00  0.00     0.109 A 
HETATM    8  C6  UNL     1      69.115  -2.810 -19.671  1.00  0.00     0.034 A 
HETATM    9  C15 UNL     1      68.491  -3.923 -20.222  1.00  0.00     0.038 A 
HETATM   10  C16 UNL     1      67.125  -4.080 -20.197  1.00  0.00     0.019 A 
HETATM   11  C17 UNL     1      66.469  -5.163 -20.730  1.00  0.00     0.051 A 
HETATM   12  C18 UNL     1      66.974  -6.274 -21.372  1.00  0.00     0.032 A 
HETATM   13  C19 UNL     1      65.932  -7.100 -21.736  1.00  0.00     0.020 A 
HETATM   14  C20 UNL     1      64.791  -6.455 -21.295  1.00  0.00     0.097 A 
HETATM   15  N2  UNL     1      65.141  -5.306 -20.702  1.00  0.00    -0.325 N 
ENDROOT
BRANCH   8  16
HETATM   16  C7  UNL     1      70.546  -2.704 -19.727  1.00  0.00    -0.060 C 
HETATM   17  C8  UNL     1      71.748  -2.611 -19.754  1.00  0.00    -0.061 C 
BRANCH  17  18
HETATM   18  C9  UNL     1      73.178  -2.512 -19.763  1.00  0.00     0.018 A 
HETATM   19  C10 UNL     1      73.956  -2.601 -18.630  1.00  0.00     0.020 A 
HETATM   20  C11 UNL     1      75.340  -2.500 -18.680  1.00  0.00     0.001 A 
HETATM   21  C12 UNL     1      75.947  -2.308 -19.889  1.00  0.00     0.000 A 
HETATM   22  C13 UNL     1      75.191  -2.218 -21.021  1.00  0.00     0.001 A 
HETATM   23  C14 UNL     1      73.834  -2.319 -20.959  1.00  0.00     0.020 A 
ENDBRANCH  17  18
ENDBRANCH   8  16
TORSDOF 2
ENDMDL
MODEL 3
REMARK VINA RESULT: -8.583592706      2.054      8.201
REMARK  2 active torsions:
REMARK  status: ('A' for Active; 'I' for Inactive)
REMARK    1  A    between atoms: C6_8  and  C7_9 
REMARK    2  A    between atoms: C8_10  and  C9_11 
ROOT
HETATM    1  C1  UNL     1      74.148   0.765 -18.241  1.00  0.00     0.068 C 
HETATM    2  C2  UNL     1      73.092  -0.213 -18.645  1.00  0.00     0.015 A 
HETATM    3  C3  UNL     1      71.764   0.097 -18.422  1.00  0.00     0.055 A 
HETATM    4  C4  UNL     1      70.730  -0.754 -18.768  1.00  0.00     0.046 A 
HETATM    5  N1  UNL     1      69.426  -0.430 -18.540  1.00  0.00    -0.364 N 
ATOM      6  H1  UNL     1      69.198   0.463 -18.103  1.00  0.00     0.165 HD
HETATM    7  C5  UNL     1      68.435  -1.273 -18.884  1.00  0.00     0.109 A 
HETATM    8  C6  UNL     1      68.708  -2.490 -19.477  1.00  0.00     0.034 A 
HETATM    9  C15 UNL     1      70.043  -2.806 -19.703  1.00  0.00     0.038 A 
HETATM   10  C16 UNL     1      71.063  -1.953 -19.356  1.00  0.00     0.019 A 
HETATM   11  C17 UNL     1      72.394  -2.226 -19.562  1.00  0.00     0.051 A 
HETATM   12  C18 UNL     1      72.991  -3.336 -20.122  1.00  0.00     0.032 A 
HETATM   13  C19 UNL     1      74.360  -3.165 -20.117  1.00  0.00     0.020 A 
HETATM   14  C20 UNL     1      74.565  -1.925 -19.541  1.00  0.00     0.097 A 
HETATM   15  N2  UNL     1      73.379  -1.391 -19.220  1.00  0.00    -0.325 N 
ENDROOT
BRANCH   8  16
HETATM   16  C7  UNL     1      67.687  -3.423 -19.863  1.00  0.00    -0.060 C 
HETATM   17  C8  UNL     1      66.827  -4.196 -20.205  1.00  0.00    -0.061 C 
BRANCH  17  18
HETATM   18  C9  UNL     1      65.812  -5.112 -20.635  1.00  0.00     0.018 A 
HETATM   19  C10 UNL     1      64.463  -4.846 -20.561  1.00  0.00     0.020 A 
HETATM   20  C11 UNL     1      63.510  -5.761 -20.990  1.00  0.00     0.001 A 
HETATM   21  C12 UNL     1      63.923  -6.959 -21.500  1.00  0.00     0.000 A 
HETATM   22  C13 UNL     1      65.257  -7.238 -21.580  1.00  0.00     0.001 A 
HETATM   23  C14 UNL     1      66.182  -6.332 -21.157  1.00  0.00     0.020 A 
ENDBRANCH  17  18
ENDBRANCH   8  16
TORSDOF 2
ENDMDL
MODEL 4
REMARK VINA RESULT: -8.556082173      2.400      8.600
REMARK  2 active torsions:
REMARK  status: ('A' for Active; 'I' for Inactive)
REMARK    1  A    between atoms: C6_8  and  C7_9 
REMARK    2  A    between atoms: C8_10  and  C9_11 
ROOT
HETATM    1  C1  UNL     1      75.456  -1.321 -19.449  1.00  0.00     0.068 C 
HETATM    2  C2  UNL     1      74.035  -1.771 -19.552  1.00  0.00     0.015 A 
HETATM    3  C3  UNL     1      73.740  -2.918 -20.263  1.00  0.00     0.055 A 
HETATM    4  C4  UNL     1      72.451  -3.399 -20.404  1.00  0.00     0.046 A 
HETATM    5  N1  UNL     1      72.180  -4.533 -21.109  1.00  0.00    -0.364 N 
ATOM      6  H1  UNL     1      72.943  -5.048 -21.548  1.00  0.00     0.165 HD
HETATM    7  C5  UNL     1      70.917  -4.983 -21.234  1.00  0.00     0.109 A 
HETATM    8  C6  UNL     1      69.860  -4.311 -20.653  1.00  0.00     0.034 A 
HETATM    9  C15 UNL     1      70.152  -3.155 -19.938  1.00  0.00     0.038 A 
HETATM   10  C16 UNL     1      71.437  -2.687 -19.803  1.00  0.00     0.019 A 
HETATM   11  C17 UNL     1      71.769  -1.550 -19.105  1.00  0.00     0.051 A 
HETATM   12  C18 UNL     1      70.961  -0.667 -18.421  1.00  0.00     0.032 A 
HETATM   13  C19 UNL     1      71.741   0.331 -17.874  1.00  0.00     0.020 A 
HETATM   14  C20 UNL     1      73.035   0.020 -18.250  1.00  0.00     0.097 A 
HETATM   15  N2  UNL     1      73.021  -1.102 -18.981  1.00  0.00    -0.325 N 
ENDROOT
BRANCH   8  16
HETATM   16  C7  UNL     1      68.497  -4.751 -20.758  1.00  0.00    -0.060 C 
HETATM   17  C8  UNL     1      67.355  -5.123 -20.865  1.00  0.00    -0.061 C 
BRANCH  17  18
HETATM   18  C9  UNL     1      66.005  -5.583 -21.012  1.00  0.00     0.018 A 
HETATM   19  C10 UNL     1      64.902  -4.823 -20.693  1.00  0.00     0.020 A 
HETATM   20  C11 UNL     1      63.609  -5.305 -20.850  1.00  0.00     0.001 A 
HETATM   21  C12 UNL     1      63.427  -6.569 -21.334  1.00  0.00     0.000 A 
HETATM   22  C13 UNL     1      64.510  -7.336 -21.654  1.00  0.00     0.001 A 
HETATM   23  C14 UNL     1      65.773  -6.851 -21.496  1.00  0.00     0.020 A 
ENDBRANCH  17  18
ENDBRANCH   8  16
TORSDOF 2
ENDMDL
MODEL 5
REMARK VINA RESULT: -8.485657812      2.416      8.581
REMARK  2 active torsions:
REMARK  status: ('A' for Active; 'I' for Inactive)
REMARK    1  A    between atoms: C6_8  and  C7_9 
REMARK    2  A    between atoms: C8_10  and  C9_11 
ROOT
HETATM    1  C1  UNL     1      75.469  -1.218 -19.342  1.00  0.00     0.068 C 
HETATM    2  C2  UNL     1      74.054  -1.680 -19.473  1.00  0.00     0.015 A 
HETATM    3  C3  UNL     1      73.784  -2.839 -20.176  1.00  0.00     0.055 A 
HETATM    4  C4  UNL     1      72.503  -3.332 -20.341  1.00  0.00     0.046 A 
HETATM    5  N1  UNL     1      72.257  -4.477 -21.038  1.00  0.00    -0.364 N 
ATOM      6  H1  UNL     1      73.035  -4.991 -21.453  1.00  0.00     0.165 HD
HETATM    7  C5  UNL     1      71.002  -4.939 -21.187  1.00  0.00     0.109 A 
HETATM    8  C6  UNL     1      69.926  -4.269 -20.639  1.00  0.00     0.034 A 
HETATM    9  C15 UNL     1      70.192  -3.102 -19.931  1.00  0.00     0.038 A 
HETATM   10  C16 UNL     1      71.470  -2.621 -19.773  1.00  0.00     0.019 A 
HETATM   11  C17 UNL     1      71.776  -1.474 -19.082  1.00  0.00     0.051 A 
HETATM   12  C18 UNL     1      70.945  -0.589 -18.427  1.00  0.00     0.032 A 
HETATM   13  C19 UNL     1      71.705   0.422 -17.875  1.00  0.00     0.020 A 
HETATM   14  C20 UNL     1      73.010   0.118 -18.217  1.00  0.00     0.097 A 
HETATM   15  N2  UNL     1      73.022  -1.013 -18.934  1.00  0.00    -0.325 N 
ENDROOT
BRANCH   8  16
HETATM   16  C7  UNL     1      68.569  -4.721 -20.770  1.00  0.00    -0.060 C 
HETATM   17  C8  UNL     1      67.437  -5.115 -20.892  1.00  0.00    -0.061 C 
BRANCH  17  18
HETATM   18  C9  UNL     1      66.099  -5.608 -21.042  1.00  0.00     0.018 A 
HETATM   19  C10 UNL     1      65.798  -6.875 -21.490  1.00  0.00     0.020 A 
HETATM   20  C11 UNL     1      64.488  -7.315 -21.621  1.00  0.00     0.001 A 
HETATM   21  C12 UNL     1      63.467  -6.467 -21.295  1.00  0.00     0.000 A 
HETATM   22  C13 UNL     1      63.749  -5.208 -20.848  1.00  0.00     0.001 A 
HETATM   23  C14 UNL     1      65.038  -4.789 -20.724  1.00  0.00     0.020 A 
ENDBRANCH  17  18
ENDBRANCH   8  16
TORSDOF 2
ENDMDL
