MODEL 1
REMARK VINA RESULT: -8.899201838      0.000      0.000
REMARK  3 active torsions:
REMARK  status: ('A' for Active; 'I' for Inactive)
REMARK    1  A    between atoms: C2_3  and  C3_4 
REMARK    2  A    between atoms: C3_4  and  C4_5 
REMARK    3  A    between atoms: C4_5  and  C5_6 
ROOT
HETATM    1  C1  UNL     1      67.140  -1.683 -20.386  1.00  0.00     0.158 C 
HETATM    2  N1  UNL     1      66.881  -3.100 -20.595  1.00  0.00    -0.329 N 
HETATM    3  C2  UNL     1      67.855  -4.025 -20.516  1.00  0.00     0.164 A 
HETATM    4  N2  UNL     1      67.577  -5.332 -20.717  1.00  0.00    -0.334 N 
ATOM      5  H2  UNL     1      68.336  -6.010 -20.651  1.00  0.00     0.168 HD
HETATM    6  C11 UNL     1      66.337  -5.773 -21.001  1.00  0.00     0.047 A 
HETATM    7  C12 UNL     1      66.066  -7.111 -21.204  1.00  0.00     0.030 A 
HETATM    8  C13 UNL     1      64.786  -7.512 -21.491  1.00  0.00     0.003 A 
HETATM    9  C14 UNL     1      63.774  -6.609 -21.579  1.00  0.00     0.012 A 
HETATM   10  C15 UNL     1      64.030  -5.256 -21.377  1.00  0.00    -0.021 A 
HETATM   11  C16 UNL     1      62.990  -4.340 -21.470  1.00  0.00     0.012 A 
HETATM   12  C17 UNL     1      63.301  -3.018 -21.262  1.00  0.00     0.003 A 
HETATM   13  C18 UNL     1      64.581  -2.607 -20.973  1.00  0.00     0.031 A 
HETATM   14  C19 UNL     1      65.625  -3.501 -20.878  1.00  0.00     0.049 A 
HETATM   15  C20 UNL     1      65.314  -4.850 -21.089  1.00  0.00     0.028 A 
ENDROOT
BRANCH   3  16
HETATM   16  C3  UNL     1      69.209  -3.619 -20.215  1.00  0.00    -0.024 C 
BRANCH  16  17
HETATM   17  C4  UNL     1      70.346  -3.285 -19.983  1.00  0.00    -0.059 C 
BRANCH  17  18
HETATM   18  C5  UNL     1      71.690  -2.872 -19.726  1.00  0.00     0.018 A 
HETATM   19  C6  UNL     1      72.720  -3.573 -20.329  1.00  0.00     0.020 A 
HETATM   20  C7  UNL     1      74.029  -3.201 -20.103  1.00  0.00     0.001 A 
HETATM   21  C8  UNL     1      74.359  -2.145 -19.291  1.00  0.00     0.000 A 
HETATM   22  C9  UNL     1      73.346  -1.438 -18.685  1.00  0.00     0.001 A 
HETATM   23  C10 UNL     1      72.041  -1.815 -18.914  1.00  0.00     0.020 A 
ENDBRANCH  17  18
ENDBRANCH  16  17
ENDBRANCH   3  16
TORSDOF 3
ENDMDL
MODEL 2
REMARK VINA RESULT: -8.709732949      1.383      7.858
REMARK  3 active torsions:
REMARK  status: ('A' for Active; 'I' for Inactive)
REMARK    1  A    between atoms: C2_3  and  C3_4 
REMARK    2  A    between atoms: C3_4  and  C4_5 
REMARK    3  A    between atoms: C4_5  and  C5_6 
ROOT
HETATM    1  C1  UNL     1      67.954  -1.674 -18.973  1.00  0.00     0.158 C 
HETATM    2  N1  UNL     1      69.242  -2.252 -19.329  1.00  0.00    -0.329 N 
HETATM    3  C2  UNL     1      69.346  -3.450 -19.932  1.00  0.00     0.164 A 
HETATM    4  N2  UNL     1      70.559  -3.955 -20.247  1.00  0.00    -0.334 N 
ATOM      5  H2  UNL     1      70.607  -4.866 -20.704  1.00  0.00     0.168 HD
HETATM    6  C11 UNL     1      71.707  -3.303 -19.982  1.00  0.00     0.047 A 
HETATM    7  C12 UNL     1      72.939  -3.829 -20.308  1.00  0.00     0.030 A 
HETATM    8  C13 UNL     1      74.081  -3.127 -20.017  1.00  0.00     0.003 A 
HETATM    9  C14 UNL     1      74.018  -1.914 -19.408  1.00  0.00     0.012 A 
HETATM   10  C15 UNL     1      72.783  -1.368 -19.071  1.00  0.00    -0.021 A 
HETATM   11  C16 UNL     1      72.728  -0.127 -18.449  1.00  0.00     0.012 A 
HETATM   12  C17 UNL     1      71.482   0.363 -18.140  1.00  0.00     0.003 A 
HETATM   13  C18 UNL     1      70.332  -0.335 -18.429  1.00  0.00     0.031 A 
HETATM   14  C19 UNL     1      70.367  -1.566 -19.045  1.00  0.00     0.049 A 
HETATM   15  C20 UNL     1      71.635  -2.070 -19.363  1.00  0.00     0.028 A 
ENDROOT
BRANCH   3  16
HETATM   16  C3  UNL     1      68.153  -4.204 -20.246  1.00  0.00    -0.024 C 
BRANCH  16  17
HETATM   17  C4  UNL     1      67.147  -4.816 -20.511  1.00  0.00    -0.059 C 
BRANCH  17  18
HETATM   18  C5  UNL     1      65.948  -5.521 -20.841  1.00  0.00     0.018 A 
HETATM   19  C6  UNL     1      64.734  -4.888 -20.635  1.00  0.00     0.020 A 
HETATM   20  C7  UNL     1      63.559  -5.540 -20.943  1.00  0.00     0.001 A 
HETATM   21  C8  UNL     1      63.541  -6.813 -21.456  1.00  0.00     0.000 A 
HETATM   22  C9  UNL     1      64.739  -7.455 -21.667  1.00  0.00     0.001 A 
HETATM   23  C10 UNL     1      65.910  -6.798 -21.356  1.00  0.00     0.020 A 
ENDBRANCH  17  18
ENDBRANCH  16  17
ENDBRANCH   3  16
TORSDOF 3
ENDMDL
MODEL 3
REMARK VINA RESULT: -8.664174242      1.402      7.792
REMARK  3 active torsions:
REMARK  status: ('A' for Active; 'I' for Inactive)
REMARK    1  A    between atoms: C2_3  and  C3_4 
REMARK    2  A    between atoms: C3_4  and  C4_5 
REMARK    3  A    between atoms: C4_5  and  C5_6 
ROOT
HETATM    1  C1  UNL     1      67.911  -1.607 -18.954  1.00  0.00     0.158 C 
HETATM    2  N1  UNL     1      69.194  -2.199 -19.306  1.00  0.00    -0.329 N 
HETATM    3  C2  UNL     1      69.288  -3.402 -19.901  1.00  0.00     0.164 A 
HETATM    4  N2  UNL     1      70.496  -3.920 -20.212  1.00  0.00    -0.334 N 
ATOM      5  H2  UNL     1      70.537  -4.834 -20.662  1.00  0.00     0.168 HD
HETATM    6  C11 UNL     1      71.650  -3.276 -19.950  1.00  0.00     0.047 A 
HETATM    7  C12 UNL     1      72.878  -3.816 -20.272  1.00  0.00     0.030 A 
HETATM    8  C13 UNL     1      74.026  -3.122 -19.984  1.00  0.00     0.003 A 
HETATM    9  C14 UNL     1      73.974  -1.904 -19.384  1.00  0.00     0.012 A 
HETATM   10  C15 UNL     1      72.743  -1.345 -19.052  1.00  0.00    -0.021 A 
HETATM   11  C16 UNL     1      72.699  -0.100 -18.438  1.00  0.00     0.012 A 
HETATM   12  C17 UNL     1      71.457   0.404 -18.133  1.00  0.00     0.003 A 
HETATM   13  C18 UNL     1      70.302  -0.285 -18.418  1.00  0.00     0.031 A 
HETATM   14  C19 UNL     1      70.326  -1.521 -19.026  1.00  0.00     0.049 A 
HETATM   15  C20 UNL     1      71.589  -2.039 -19.339  1.00  0.00     0.028 A 
ENDROOT
BRANCH   3  16
HETATM   16  C3  UNL     1      68.089  -4.146 -20.210  1.00  0.00    -0.024 C 
BRANCH  16  17
HETATM   17  C4  UNL     1      67.079  -4.752 -20.479  1.00  0.00    -0.059 C 
BRANCH  17  18
HETATM   18  C5  UNL     1      65.876  -5.449 -20.812  1.00  0.00     0.018 A 
HETATM   19  C6  UNL     1      65.981  -6.712 -21.370  1.00  0.00     0.020 A 
HETATM   20  C7  UNL     1      64.841  -7.412 -21.703  1.00  0.00     0.001 A 
HETATM   21  C8  UNL     1      63.584  -6.901 -21.501  1.00  0.00     0.000 A 
HETATM   22  C9  UNL     1      63.463  -5.648 -20.946  1.00  0.00     0.001 A 
HETATM   23  C10 UNL     1      64.606  -4.953 -20.616  1.00  0.00     0.020 A 
ENDBRANCH  17  18
ENDBRANCH  16  17
ENDBRANCH   3  16
TORSDOF 3
ENDMDL
MODEL 4
REMARK VINA RESULT: -8.280302004      2.789      2.920
REMARK  3 active torsions:
REMARK  status: ('A' for Active; 'I' for Inactive)
REMARK    1  A    between atoms: C2_3  and  C3_4 
REMARK    2  A    between atoms: C3_4  and  C4_5 
REMARK    3  A    between atoms: C4_5  and  C5_6 
ROOT
HETATM    1  C1  UNL     1      66.669  -1.499 -20.865  1.00  0.00     0.158 C 
HETATM    2  N1  UNL     1      66.563  -2.858 -21.377  1.00  0.00    -0.329 N 
HETATM    3  C2  UNL     1      67.487  -3.387 -22.200  1.00  0.00     0.164 A 
HETATM    4  N2  UNL     1      67.354  -4.652 -22.656  1.00  0.00    -0.334 N 
ATOM      5  H2  UNL     1      68.070  -5.026 -23.279  1.00  0.00     0.168 HD
HETATM    6  C11 UNL     1      66.314  -5.438 -22.320  1.00  0.00     0.047 A 
HETATM    7  C12 UNL     1      66.190  -6.728 -22.792  1.00  0.00     0.030 A 
HETATM    8  C13 UNL     1      65.111  -7.491 -22.422  1.00  0.00     0.003 A 
HETATM    9  C14 UNL     1      64.156  -6.993 -21.593  1.00  0.00     0.012 A 
HETATM   10  C15 UNL     1      64.266  -5.694 -21.107  1.00  0.00    -0.021 A 
HETATM   11  C16 UNL     1      63.285  -5.193 -20.260  1.00  0.00     0.012 A 
HETATM   12  C17 UNL     1      63.445  -3.904 -19.811  1.00  0.00     0.003 A 
HETATM   13  C18 UNL     1      64.523  -3.134 -20.177  1.00  0.00     0.031 A 
HETATM   14  C19 UNL     1      65.505  -3.612 -21.016  1.00  0.00     0.049 A 
HETATM   15  C20 UNL     1      65.348  -4.925 -21.476  1.00  0.00     0.028 A 
ENDROOT
BRANCH   3  16
HETATM   16  C3  UNL     1      68.629  -2.598 -22.600  1.00  0.00    -0.024 C 
BRANCH  16  17
HETATM   17  C4  UNL     1      69.596  -1.954 -22.932  1.00  0.00    -0.059 C 
BRANCH  17  18
HETATM   18  C5  UNL     1      70.754  -1.214 -23.324  1.00  0.00     0.018 A 
HETATM   19  C6  UNL     1      71.897  -1.323 -22.550  1.00  0.00     0.020 A 
HETATM   20  C7  UNL     1      73.032  -0.623 -22.900  1.00  0.00     0.001 A 
HETATM   21  C8  UNL     1      73.078   0.192 -24.003  1.00  0.00     0.000 A 
HETATM   22  C9  UNL     1      71.951   0.310 -24.783  1.00  0.00     0.001 A 
HETATM   23  C10 UNL     1      70.819  -0.392 -24.428  1.00  0.00     0.020 A 
ENDBRANCH  17  18
ENDBRANCH  16  17
ENDBRANCH   3  16
TORSDOF 3
ENDMDL
MODEL 5
REMARK VINA RESULT: -8.220762594      1.289      2.742
REMARK  3 active torsions:
REMARK  status: ('A' for Active; 'I' for Inactive)
REMARK    1  A    between atoms: C2_3  and  C3_4 
REMARK    2  A    between atoms: C3_4  and  C4_5 
REMARK    3  A    between atoms: C4_5  and  C5_6 
ROOT
HETATM    1  C1  UNL     1      69.230  -5.107 -21.347  1.00  0.00     0.158 C 
HETATM    2  N1  UNL     1      67.924  -4.696 -20.849  1.00  0.00    -0.329 N 
HETATM    3  C2  UNL     1      67.768  -3.627 -20.048  1.00  0.00     0.164 A 
HETATM    4  N2  UNL     1      66.540  -3.276 -19.605  1.00  0.00    -0.334 N 
ATOM      5  H2  UNL     1      66.452  -2.460 -18.999  1.00  0.00     0.168 HD
HETATM    6  C11 UNL     1      65.429  -3.962 -19.933  1.00  0.00     0.047 A 
HETATM    7  C12 UNL     1      64.181  -3.594 -19.474  1.00  0.00     0.030 A 
HETATM    8  C13 UNL     1      63.077  -4.325 -19.835  1.00  0.00     0.003 A 
HETATM    9  C14 UNL     1      63.193  -5.412 -20.643  1.00  0.00     0.012 A 
HETATM   10  C15 UNL     1      64.444  -5.797 -21.115  1.00  0.00    -0.021 A 
HETATM   11  C16 UNL     1      64.554  -6.910 -21.939  1.00  0.00     0.012 A 
HETATM   12  C17 UNL     1      65.814  -7.244 -22.375  1.00  0.00     0.003 A 
HETATM   13  C18 UNL     1      66.925  -6.516 -22.018  1.00  0.00     0.031 A 
HETATM   14  C19 UNL     1      66.836  -5.411 -21.201  1.00  0.00     0.049 A 
HETATM   15  C20 UNL     1      65.555  -5.066 -20.754  1.00  0.00     0.028 A 
ENDROOT
BRANCH   3  16
HETATM   16  C3  UNL     1      68.920  -2.846 -19.658  1.00  0.00    -0.024 C 
BRANCH  16  17
HETATM   17  C4  UNL     1      69.892  -2.212 -19.326  1.00  0.00    -0.059 C 
BRANCH  17  18
HETATM   18  C5  UNL     1      71.031  -1.456 -18.909  1.00  0.00     0.018 A 
HETATM   19  C6  UNL     1      72.290  -1.986 -19.133  1.00  0.00     0.020 A 
HETATM   20  C7  UNL     1      73.411  -1.283 -18.744  1.00  0.00     0.001 A 
HETATM   21  C8  UNL     1      73.329  -0.057 -18.134  1.00  0.00     0.000 A 
HETATM   22  C9  UNL     1      72.085   0.485 -17.906  1.00  0.00     0.001 A 
HETATM   23  C10 UNL     1      70.970  -0.223 -18.296  1.00  0.00     0.020 A 
ENDBRANCH  17  18
ENDBRANCH  16  17
ENDBRANCH   3  16
TORSDOF 3
ENDMDL
