MODEL 1
REMARK VINA RESULT: -8.502513165      0.000      0.000
REMARK  9 active torsions:
REMARK  status: ('A' for Active; 'I' for Inactive)
REMARK    1  A    between atoms: C3_3  and  C4_4 
REMARK    2  A    between atoms: C5_5  and  C6_6 
REMARK    3  A    between atoms: C7_7  and  C9_9 
REMARK    4  A    between atoms: C11_13  and  C12_14 
REMARK    5  A    between atoms: C12_14  and  C14_16 
REMARK    6  A    between atoms: C14_16  and  N1_17 
REMARK    7  A    between atoms: C17_25  and  N2_27 
REMARK    8  A    between atoms: N2_27  and  S1_29 
REMARK    9  A    between atoms: C21_33  and  O7_34 
ROOT
HETATM    1  C1  UNL     1      16.176  11.369  41.174  1.00  0.00     0.113 C 
HETATM    2  C2  UNL     1      15.414  12.478  41.754  1.00  0.00    -0.097 C 
HETATM    3  C3  UNL     1      14.785  13.399  42.214  1.00  0.00    -0.015 C 
ENDROOT
BRANCH   3   4
HETATM    4  C4  UNL     1      14.054  14.463  42.772  1.00  0.00    -0.011 C 
HETATM    5  C5  UNL     1      13.424  15.359  43.253  1.00  0.00    -0.064 C 
BRANCH   5   6
HETATM    6  C6  UNL     1      12.657  16.412  43.828  1.00  0.00     0.070 C 
HETATM    7  C7  UNL     1      12.670  16.616  45.118  1.00  0.00    -0.043 C 
HETATM    8  C8  UNL     1      13.490  15.740  45.972  1.00  0.00     0.046 C 
BRANCH   7   9
HETATM    9  C9  UNL     1      11.855  17.747  45.686  1.00  0.00     0.215 C 
HETATM   10  C10 UNL     1      12.612  19.007  45.516  1.00  0.00     0.288 C 
HETATM   11  O1  UNL     1      13.717  19.012  46.131  1.00  0.00    -0.262 OA
HETATM   12  O2  UNL     1      12.267  20.090  44.816  1.00  0.00    -0.287 OA
HETATM   13  C11 UNL     1      10.999  20.595  44.468  1.00  0.00     0.284 C 
HETATM   14  O3  UNL     1      10.672  21.446  45.549  1.00  0.00    -0.289 OA
HETATM   15  C15 UNL     1       9.719  21.219  46.507  1.00  0.00     0.264 C 
HETATM   16  O4  UNL     1       9.054  22.225  46.864  1.00  0.00    -0.265 OA
HETATM   17  C16 UNL     1       9.499  19.905  47.061  1.00  0.00     0.151 C 
HETATM   18  C17 UNL     1      10.293  19.504  48.289  1.00  0.00     0.112 C 
HETATM   19  C18 UNL     1      11.282  20.651  48.666  1.00  0.00     0.049 C 
HETATM   20  C21 UNL     1      11.171  18.341  48.094  1.00  0.00     0.144 C 
HETATM   21  N3  UNL     1      11.376  17.466  47.002  1.00  0.00    -0.350 N 
HETATM   22  C22 UNL     1      11.093  16.056  47.265  1.00  0.00     0.152 C 
BRANCH  13  23
HETATM   23  C12 UNL     1      11.185  21.465  43.240  1.00  0.00     0.063 C 
HETATM   24  C13 UNL     1      12.474  22.242  43.267  1.00  0.00     0.016 C 
BRANCH  23  25
HETATM   25  C14 UNL     1      10.007  22.307  42.892  1.00  0.00     0.238 C 
BRANCH  25  26
HETATM   26  N1  UNL     1       9.774  23.431  43.767  1.00  0.00    -0.079 N 
ATOM     27  H13 UNL     1       9.602  23.105  44.718  1.00  0.00     0.274 HD
ATOM     28  H12 UNL     1      10.641  23.950  43.910  1.00  0.00     0.274 HD
ATOM     29  H11 UNL     1       9.030  24.064  43.473  1.00  0.00     0.274 HD
ENDBRANCH  25  26
ENDBRANCH  23  25
ENDBRANCH  13  23
BRANCH  18  30
HETATM   30  N2  UNL     1       9.386  19.532  49.361  1.00  0.00    -0.297 N 
HETATM   31  C19 UNL     1       8.095  18.938  49.067  1.00  0.00     0.164 C 
BRANCH  30  32
HETATM   32  S1  UNL     1       9.691  19.741  50.948  1.00  0.00     0.225 S 
HETATM   33  C20 UNL     1      10.083  21.375  51.456  1.00  0.00     0.186 C 
HETATM   34  O5  UNL     1       8.419  19.371  51.743  1.00  0.00    -0.206 OA
HETATM   35  O6  UNL     1      10.750  18.849  51.550  1.00  0.00    -0.206 OA
ENDBRANCH  30  32
ENDBRANCH  18  30
BRANCH  20  36
HETATM   36  O7  UNL     1      11.882  18.122  49.170  1.00  0.00    -0.347 OA
ATOM     37  H7  UNL     1      12.706  18.592  49.123  1.00  0.00     0.219 HD
ENDBRANCH  20  36
ENDBRANCH   7   9
ENDBRANCH   5   6
ENDBRANCH   3   4
TORSDOF 9
ENDMDL
MODEL 2
REMARK VINA RESULT: -7.938727419      3.179      6.230
REMARK  9 active torsions:
REMARK  status: ('A' for Active; 'I' for Inactive)
REMARK    1  A    between atoms: C3_3  and  C4_4 
REMARK    2  A    between atoms: C5_5  and  C6_6 
REMARK    3  A    between atoms: C7_7  and  C9_9 
REMARK    4  A    between atoms: C11_13  and  C12_14 
REMARK    5  A    between atoms: C12_14  and  C14_16 
REMARK    6  A    between atoms: C14_16  and  N1_17 
REMARK    7  A    between atoms: C17_25  and  N2_27 
REMARK    8  A    between atoms: N2_27  and  S1_29 
REMARK    9  A    between atoms: C21_33  and  O7_34 
ROOT
HETATM    1  C1  UNL     1      14.613  14.463  42.499  1.00  0.00     0.113 C 
HETATM    2  C2  UNL     1      14.001  15.534  43.288  1.00  0.00    -0.097 C 
HETATM    3  C3  UNL     1      13.515  16.421  43.946  1.00  0.00    -0.015 C 
ENDROOT
BRANCH   3   4
HETATM    4  C4  UNL     1      12.926  17.448  44.705  1.00  0.00    -0.011 C 
HETATM    5  C5  UNL     1      12.432  18.316  45.363  1.00  0.00    -0.064 C 
BRANCH   5   6
HETATM    6  C6  UNL     1      11.843  19.337  46.164  1.00  0.00     0.070 C 
HETATM    7  C7  UNL     1      10.959  20.153  45.656  1.00  0.00    -0.043 C 
HETATM    8  C8  UNL     1      10.577  20.003  44.241  1.00  0.00     0.046 C 
BRANCH   7   9
HETATM    9  C9  UNL     1      10.352  21.211  46.538  1.00  0.00     0.215 C 
HETATM   10  C10 UNL     1       9.235  20.608  47.299  1.00  0.00     0.288 C 
HETATM   11  O1  UNL     1       8.305  20.174  46.560  1.00  0.00    -0.262 OA
HETATM   12  O2  UNL     1       9.110  20.481  48.621  1.00  0.00    -0.287 OA
HETATM   13  C11 UNL     1       9.652  21.244  49.674  1.00  0.00     0.284 C 
HETATM   14  O3  UNL     1       8.681  22.251  49.889  1.00  0.00    -0.289 OA
HETATM   15  C15 UNL     1       8.804  23.581  49.584  1.00  0.00     0.264 C 
HETATM   16  O4  UNL     1       8.313  24.380  50.423  1.00  0.00    -0.265 OA
HETATM   17  C16 UNL     1       9.457  24.024  48.377  1.00  0.00     0.151 C 
HETATM   18  C17 UNL     1       8.614  24.200  47.128  1.00  0.00     0.112 C 
HETATM   19  C18 UNL     1       7.144  23.771  47.431  1.00  0.00     0.049 C 
HETATM   20  C21 UNL     1       9.002  23.335  46.005  1.00  0.00     0.144 C 
HETATM   21  N3  UNL     1      10.059  22.413  45.824  1.00  0.00    -0.350 N 
HETATM   22  C22 UNL     1      10.969  22.708  44.719  1.00  0.00     0.152 C 
BRANCH  13  23
HETATM   23  C12 UNL     1       9.674  20.359  50.904  1.00  0.00     0.063 C 
HETATM   24  C13 UNL     1       8.330  20.265  51.578  1.00  0.00     0.016 C 
BRANCH  23  25
HETATM   25  C14 UNL     1      10.781  20.647  51.857  1.00  0.00     0.238 C 
BRANCH  25  26
HETATM   26  N1  UNL     1      11.214  22.023  51.900  1.00  0.00    -0.079 N 
ATOM     27  H13 UNL     1      11.112  22.451  50.980  1.00  0.00     0.274 HD
ATOM     28  H12 UNL     1      10.550  22.583  52.434  1.00  0.00     0.274 HD
ATOM     29  H11 UNL     1      12.160  22.171  52.252  1.00  0.00     0.274 HD
ENDBRANCH  25  26
ENDBRANCH  23  25
ENDBRANCH  13  23
BRANCH  18  30
HETATM   30  N2  UNL     1       8.485  25.586  46.942  1.00  0.00    -0.297 N 
HETATM   31  C19 UNL     1       7.440  26.202  47.739  1.00  0.00     0.164 C 
BRANCH  30  32
HETATM   32  S1  UNL     1       9.562  26.632  46.310  1.00  0.00     0.225 S 
HETATM   33  C20 UNL     1       9.541  26.810  44.563  1.00  0.00     0.186 C 
HETATM   34  O5  UNL     1       9.253  28.043  46.858  1.00  0.00    -0.206 OA
HETATM   35  O6  UNL     1      11.007  26.419  46.692  1.00  0.00    -0.206 OA
ENDBRANCH  30  32
ENDBRANCH  18  30
BRANCH  20  36
HETATM   36  O7  UNL     1       8.171  23.486  45.007  1.00  0.00    -0.347 OA
ATOM     37  H7  UNL     1       8.646  23.534  44.185  1.00  0.00     0.219 HD
ENDBRANCH  20  36
ENDBRANCH   7   9
ENDBRANCH   5   6
ENDBRANCH   3   4
TORSDOF 9
ENDMDL
MODEL 3
REMARK VINA RESULT: -7.903127899      3.360      6.335
REMARK  9 active torsions:
REMARK  status: ('A' for Active; 'I' for Inactive)
REMARK    1  A    between atoms: C3_3  and  C4_4 
REMARK    2  A    between atoms: C5_5  and  C6_6 
REMARK    3  A    between atoms: C7_7  and  C9_9 
REMARK    4  A    between atoms: C11_13  and  C12_14 
REMARK    5  A    between atoms: C12_14  and  C14_16 
REMARK    6  A    between atoms: C14_16  and  N1_17 
REMARK    7  A    between atoms: C17_25  and  N2_27 
REMARK    8  A    between atoms: N2_27  and  S1_29 
REMARK    9  A    between atoms: C21_33  and  O7_34 
ROOT
HETATM    1  C1  UNL     1      14.413  14.761  42.258  1.00  0.00     0.113 C 
HETATM    2  C2  UNL     1      13.836  15.804  43.110  1.00  0.00    -0.097 C 
HETATM    3  C3  UNL     1      13.370  16.675  43.801  1.00  0.00    -0.015 C 
ENDROOT
BRANCH   3   4
HETATM    4  C4  UNL     1      12.817  17.676  44.621  1.00  0.00    -0.011 C 
HETATM    5  C5  UNL     1      12.353  18.519  45.330  1.00  0.00    -0.064 C 
BRANCH   5   6
HETATM    6  C6  UNL     1      11.802  19.512  46.191  1.00  0.00     0.070 C 
HETATM    7  C7  UNL     1      10.906  20.353  45.748  1.00  0.00    -0.043 C 
HETATM    8  C8  UNL     1      10.472  20.262  44.344  1.00  0.00     0.046 C 
BRANCH   7   9
HETATM    9  C9  UNL     1      10.340  21.380  46.693  1.00  0.00     0.215 C 
HETATM   10  C10 UNL     1       9.206  20.773  47.425  1.00  0.00     0.288 C 
HETATM   11  O1  UNL     1       8.259  20.414  46.669  1.00  0.00    -0.262 OA
HETATM   12  O2  UNL     1       9.082  20.575  48.739  1.00  0.00    -0.287 OA
HETATM   13  C11 UNL     1       9.655  21.258  49.830  1.00  0.00     0.284 C 
HETATM   14  O3  UNL     1       8.721  22.283  50.108  1.00  0.00    -0.289 OA
HETATM   15  C15 UNL     1       8.888  23.624  49.878  1.00  0.00     0.264 C 
HETATM   16  O4  UNL     1       8.429  24.390  50.764  1.00  0.00    -0.265 OA
HETATM   17  C16 UNL     1       9.551  24.113  48.694  1.00  0.00     0.151 C 
HETATM   18  C17 UNL     1       8.709  24.387  47.463  1.00  0.00     0.112 C 
HETATM   19  C18 UNL     1       7.227  23.993  47.750  1.00  0.00     0.049 C 
HETATM   20  C21 UNL     1       9.062  23.576  46.289  1.00  0.00     0.144 C 
HETATM   21  N3  UNL     1      10.086  22.629  46.050  1.00  0.00    -0.350 N 
HETATM   22  C22 UNL     1      11.001  22.956  44.958  1.00  0.00     0.152 C 
BRANCH  13  23
HETATM   23  C12 UNL     1       9.651  20.304  51.008  1.00  0.00     0.063 C 
HETATM   24  C13 UNL     1       8.271  20.071  51.565  1.00  0.00     0.016 C 
BRANCH  23  25
HETATM   25  C14 UNL     1      10.656  20.614  52.062  1.00  0.00     0.238 C 
BRANCH  25  26
HETATM   26  N1  UNL     1      11.310  21.894  51.932  1.00  0.00    -0.079 N 
ATOM     27  H13 UNL     1      11.551  22.067  50.956  1.00  0.00     0.274 HD
ATOM     28  H12 UNL     1      10.640  22.648  52.087  1.00  0.00     0.274 HD
ATOM     29  H11 UNL     1      12.130  22.027  52.524  1.00  0.00     0.274 HD
ENDBRANCH  25  26
ENDBRANCH  23  25
ENDBRANCH  13  23
BRANCH  18  30
HETATM   30  N2  UNL     1       8.628  25.786  47.356  1.00  0.00    -0.297 N 
HETATM   31  C19 UNL     1       9.866  26.428  46.955  1.00  0.00     0.164 C 
BRANCH  30  32
HETATM   32  S1  UNL     1       7.301  26.720  47.210  1.00  0.00     0.225 S 
HETATM   33  C20 UNL     1       7.571  28.380  46.708  1.00  0.00     0.186 C 
HETATM   34  O5  UNL     1       6.395  26.115  46.115  1.00  0.00    -0.206 OA
HETATM   35  O6  UNL     1       6.393  26.788  48.414  1.00  0.00    -0.206 OA
ENDBRANCH  30  32
ENDBRANCH  18  30
BRANCH  20  36
HETATM   36  O7  UNL     1       8.232  23.811  45.307  1.00  0.00    -0.347 OA
ATOM     37  H7  UNL     1       7.364  23.492  45.524  1.00  0.00     0.219 HD
ENDBRANCH  20  36
ENDBRANCH   7   9
ENDBRANCH   5   6
ENDBRANCH   3   4
TORSDOF 9
ENDMDL
MODEL 4
REMARK VINA RESULT: -7.812802136      3.163      6.014
REMARK  9 active torsions:
REMARK  status: ('A' for Active; 'I' for Inactive)
REMARK    1  A    between atoms: C3_3  and  C4_4 
REMARK    2  A    between atoms: C5_5  and  C6_6 
REMARK    3  A    between atoms: C7_7  and  C9_9 
REMARK    4  A    between atoms: C11_13  and  C12_14 
REMARK    5  A    between atoms: C12_14  and  C14_16 
REMARK    6  A    between atoms: C14_16  and  N1_17 
REMARK    7  A    between atoms: C17_25  and  N2_27 
REMARK    8  A    between atoms: N2_27  and  S1_29 
REMARK    9  A    between atoms: C21_33  and  O7_34 
ROOT
HETATM    1  C1  UNL     1      14.503  14.567  42.174  1.00  0.00     0.113 C 
HETATM    2  C2  UNL     1      14.007  15.581  43.107  1.00  0.00    -0.097 C 
HETATM    3  C3  UNL     1      13.586  16.423  43.861  1.00  0.00    -0.015 C 
ENDROOT
BRANCH   3   4
HETATM    4  C4  UNL     1      13.111  17.398  44.757  1.00  0.00    -0.011 C 
HETATM    5  C5  UNL     1      12.698  18.232  45.508  1.00  0.00    -0.064 C 
BRANCH   5   6
HETATM    6  C6  UNL     1      12.200  19.237  46.386  1.00  0.00     0.070 C 
HETATM    7  C7  UNL     1      11.293  20.085  45.979  1.00  0.00    -0.043 C 
HETATM    8  C8  UNL     1      10.791  19.988  44.599  1.00  0.00     0.046 C 
BRANCH   7   9
HETATM    9  C9  UNL     1      10.784  21.125  46.942  1.00  0.00     0.215 C 
HETATM   10  C10 UNL     1       9.926  20.459  47.946  1.00  0.00     0.288 C 
HETATM   11  O1  UNL     1       8.909  19.902  47.443  1.00  0.00    -0.262 OA
HETATM   12  O2  UNL     1      10.103  20.389  49.268  1.00  0.00    -0.287 OA
HETATM   13  C11 UNL     1      10.777  21.254  50.152  1.00  0.00     0.284 C 
HETATM   14  O3  UNL     1       9.776  22.174  50.545  1.00  0.00    -0.289 OA
HETATM   15  C15 UNL     1       9.691  23.492  50.181  1.00  0.00     0.264 C 
HETATM   16  O4  UNL     1       9.313  24.284  51.083  1.00  0.00    -0.265 OA
HETATM   17  C16 UNL     1      10.020  23.933  48.847  1.00  0.00     0.151 C 
HETATM   18  C17 UNL     1       8.914  23.962  47.810  1.00  0.00     0.112 C 
HETATM   19  C18 UNL     1       7.596  23.413  48.441  1.00  0.00     0.049 C 
HETATM   20  C21 UNL     1       9.138  23.082  46.654  1.00  0.00     0.144 C 
HETATM   21  N3  UNL     1      10.221  22.255  46.274  1.00  0.00    -0.350 N 
HETATM   22  C22 UNL     1      10.836  22.578  44.988  1.00  0.00     0.152 C 
BRANCH  13  23
HETATM   23  C12 UNL     1      11.155  20.439  51.374  1.00  0.00     0.063 C 
HETATM   24  C13 UNL     1      11.998  19.239  51.035  1.00  0.00     0.016 C 
BRANCH  23  25
HETATM   25  C14 UNL     1      10.018  20.112  52.278  1.00  0.00     0.238 C 
BRANCH  25  26
HETATM   26  N1  UNL     1       8.841  19.591  51.624  1.00  0.00    -0.079 N 
ATOM     27  H13 UNL     1       8.732  18.600  51.839  1.00  0.00     0.274 HD
ATOM     28  H12 UNL     1       8.001  19.964  52.066  1.00  0.00     0.274 HD
ATOM     29  H11 UNL     1       8.803  19.738  50.616  1.00  0.00     0.274 HD
ENDBRANCH  25  26
ENDBRANCH  23  25
ENDBRANCH  13  23
BRANCH  18  30
HETATM   30  N2  UNL     1       8.605  25.318  47.615  1.00  0.00    -0.297 N 
HETATM   31  C19 UNL     1       9.703  26.113  47.095  1.00  0.00     0.164 C 
BRANCH  30  32
HETATM   32  S1  UNL     1       7.140  26.021  47.489  1.00  0.00     0.225 S 
HETATM   33  C20 UNL     1       7.128  27.720  47.047  1.00  0.00     0.186 C 
HETATM   34  O5  UNL     1       6.352  25.312  46.366  1.00  0.00    -0.206 OA
HETATM   35  O6  UNL     1       6.230  25.893  48.688  1.00  0.00    -0.206 OA
ENDBRANCH  30  32
ENDBRANCH  18  30
BRANCH  20  36
HETATM   36  O7  UNL     1       8.100  23.101  45.859  1.00  0.00    -0.347 OA
ATOM     37  H7  UNL     1       7.774  22.219  45.720  1.00  0.00     0.219 HD
ENDBRANCH  20  36
ENDBRANCH   7   9
ENDBRANCH   5   6
ENDBRANCH   3   4
TORSDOF 9
ENDMDL
MODEL 5
REMARK VINA RESULT: -7.771932388      3.105      6.032
REMARK  9 active torsions:
REMARK  status: ('A' for Active; 'I' for Inactive)
REMARK    1  A    between atoms: C3_3  and  C4_4 
REMARK    2  A    between atoms: C5_5  and  C6_6 
REMARK    3  A    between atoms: C7_7  and  C9_9 
REMARK    4  A    between atoms: C11_13  and  C12_14 
REMARK    5  A    between atoms: C12_14  and  C14_16 
REMARK    6  A    between atoms: C14_16  and  N1_17 
REMARK    7  A    between atoms: C17_25  and  N2_27 
REMARK    8  A    between atoms: N2_27  and  S1_29 
REMARK    9  A    between atoms: C21_33  and  O7_34 
ROOT
HETATM    1  C1  UNL     1      14.599  14.319  42.411  1.00  0.00     0.113 C 
HETATM    2  C2  UNL     1      14.078  15.389  43.266  1.00  0.00    -0.097 C 
HETATM    3  C3  UNL     1      13.634  16.259  43.972  1.00  0.00    -0.015 C 
ENDROOT
BRANCH   3   4
HETATM    4  C4  UNL     1      13.133  17.288  44.791  1.00  0.00    -0.011 C 
HETATM    5  C5  UNL     1      12.715  18.156  45.499  1.00  0.00    -0.064 C 
BRANCH   5   6
HETATM    6  C6  UNL     1      12.218  19.178  46.359  1.00  0.00     0.070 C 
HETATM    7  C7  UNL     1      11.295  20.004  45.946  1.00  0.00    -0.043 C 
HETATM    8  C8  UNL     1      10.773  19.865  44.576  1.00  0.00     0.046 C 
BRANCH   7   9
HETATM    9  C9  UNL     1      10.788  21.062  46.889  1.00  0.00     0.215 C 
HETATM   10  C10 UNL     1       9.941  20.414  47.915  1.00  0.00     0.288 C 
HETATM   11  O1  UNL     1       8.923  19.842  47.432  1.00  0.00    -0.262 OA
HETATM   12  O2  UNL     1      10.128  20.374  49.236  1.00  0.00    -0.287 OA
HETATM   13  C11 UNL     1      10.805  21.261  50.096  1.00  0.00     0.284 C 
HETATM   14  O3  UNL     1       9.803  22.184  50.476  1.00  0.00    -0.289 OA
HETATM   15  C15 UNL     1       9.709  23.493  50.085  1.00  0.00     0.264 C 
HETATM   16  O4  UNL     1       9.334  24.303  50.972  1.00  0.00    -0.265 OA
HETATM   17  C16 UNL     1      10.025  23.907  48.739  1.00  0.00     0.151 C 
HETATM   18  C17 UNL     1       8.911  23.909  47.710  1.00  0.00     0.112 C 
HETATM   19  C18 UNL     1       7.601  23.367  48.363  1.00  0.00     0.049 C 
HETATM   20  C21 UNL     1       9.131  23.004  46.572  1.00  0.00     0.144 C 
HETATM   21  N3  UNL     1      10.215  22.175  46.202  1.00  0.00    -0.350 N 
HETATM   22  C22 UNL     1      10.818  22.472  44.904  1.00  0.00     0.152 C 
BRANCH  13  23
HETATM   23  C12 UNL     1      11.196  20.474  51.332  1.00  0.00     0.063 C 
HETATM   24  C13 UNL     1      12.001  19.243  51.008  1.00  0.00     0.016 C 
BRANCH  23  25
HETATM   25  C14 UNL     1      10.076  20.203  52.276  1.00  0.00     0.238 C 
BRANCH  25  26
HETATM   26  N1  UNL     1       8.888  19.646  51.677  1.00  0.00    -0.079 N 
ATOM     27  H13 UNL     1       8.999  19.589  50.665  1.00  0.00     0.274 HD
ATOM     28  H12 UNL     1       8.812  18.654  51.906  1.00  0.00     0.274 HD
ATOM     29  H11 UNL     1       8.018  20.126  51.908  1.00  0.00     0.274 HD
ENDBRANCH  25  26
ENDBRANCH  23  25
ENDBRANCH  13  23
BRANCH  18  30
HETATM   30  N2  UNL     1       8.594  25.259  47.488  1.00  0.00    -0.297 N 
HETATM   31  C19 UNL     1       7.701  25.834  48.478  1.00  0.00     0.164 C 
BRANCH  30  32
HETATM   32  S1  UNL     1       9.377  26.350  46.566  1.00  0.00     0.225 S 
HETATM   33  C20 UNL     1       8.993  26.338  44.852  1.00  0.00     0.186 C 
HETATM   34  O5  UNL     1       8.993  27.765  47.050  1.00  0.00    -0.206 OA
HETATM   35  O6  UNL     1      10.884  26.348  46.658  1.00  0.00    -0.206 OA
ENDBRANCH  30  32
ENDBRANCH  18  30
BRANCH  20  36
HETATM   36  O7  UNL     1       8.087  23.002  45.785  1.00  0.00    -0.347 OA
ATOM     37  H7  UNL     1       7.287  23.002  46.298  1.00  0.00     0.219 HD
ENDBRANCH  20  36
ENDBRANCH   7   9
ENDBRANCH   5   6
ENDBRANCH   3   4
TORSDOF 9
ENDMDL
