MODEL 1
REMARK VINA RESULT: -9.379424992      0.000      0.000
REMARK  6 active torsions:
REMARK  status: ('A' for Active; 'I' for Inactive)
REMARK    1  A    between atoms: C2_2  and  O1_3 
REMARK    2  A    between atoms: O1_3  and  C3_4 
REMARK    3  A    between atoms: C3_4  and  C4_6 
REMARK    4  A    between atoms: C4_6  and  C5_8 
REMARK    5  A    between atoms: C8_11  and  N1_12 
REMARK       I    between atoms: N1_12  and  C9_14 
REMARK    6  A    between atoms: C9_14  and  C10_16 
REMARK       I    between atoms: N2_18  and  C12_19 
REMARK       I    between atoms: C12_19  and  N3_21 
ROOT
HETATM    1  C10 UNL     1      10.482  20.784  48.788  1.00  0.00     0.143 C 
HETATM    2  C11 UNL     1      10.325  22.111  48.063  1.00  0.00     0.157 C 
HETATM    3  N2  UNL     1       9.505  21.857  46.893  1.00  0.00    -0.332 N 
HETATM    4  C12 UNL     1       9.292  22.867  45.903  1.00  0.00     0.320 C 
HETATM    5  O5  UNL     1       8.523  22.501  44.928  1.00  0.00    -0.247 OA
HETATM    6  N3  UNL     1       9.777  24.157  45.829  1.00  0.00    -0.330 N 
HETATM    7  C13 UNL     1       9.372  24.991  44.682  1.00  0.00     0.153 C 
HETATM    8  C14 UNL     1      10.546  25.712  44.068  1.00  0.00     0.187 C 
HETATM    9  O6  UNL     1      11.341  26.315  45.047  1.00  0.00    -0.388 OA
HETATM   10  C15 UNL     1      10.770  26.261  46.293  1.00  0.00     0.187 C 
HETATM   11  C16 UNL     1      10.658  24.788  46.761  1.00  0.00     0.153 C 
HETATM   12  C17 UNL     1       8.873  20.565  46.664  1.00  0.00     0.128 C 
HETATM   13  C18 UNL     1       8.329  19.887  47.885  1.00  0.00     0.028 C 
HETATM   14  C19 UNL     1       9.112  20.317  49.065  1.00  0.00     0.034 C 
HETATM   15  C20 UNL     1       9.210  19.426  50.229  1.00  0.00     0.131 C 
HETATM   16  N4  UNL     1      10.400  19.890  50.914  1.00  0.00    -0.355 N 
HETATM   17  C21 UNL     1      10.913  19.289  52.129  1.00  0.00     0.152 C 
HETATM   18  C22 UNL     1      10.957  21.013  50.206  1.00  0.00     0.239 C 
HETATM   19  O7  UNL     1      11.649  21.921  50.678  1.00  0.00    -0.272 OA
ENDROOT
BRANCH   1  20
HETATM   20  C9  UNL     1      11.460  19.932  48.174  1.00  0.00     0.238 C 
HETATM   21  N1  UNL     1      11.305  18.795  47.379  1.00  0.00    -0.355 N 
ATOM     22  H1  UNL     1      10.352  18.491  47.180  1.00  0.00     0.162 HD
HETATM   23  O4  UNL     1      12.695  20.251  48.380  1.00  0.00    -0.272 OA
BRANCH  21  24
HETATM   24  C8  UNL     1      12.389  18.009  46.812  1.00  0.00     0.084 C 
HETATM   25  C7  UNL     1      11.973  16.578  46.617  1.00  0.00     0.026 C 
HETATM   26  C6  UNL     1      13.030  15.832  45.866  1.00  0.00     0.015 C 
HETATM   27  C5  UNL     1      13.596  16.549  44.685  1.00  0.00     0.066 C 
HETATM   28  C24 UNL     1      12.658  17.697  44.351  1.00  0.00     0.015 C 
HETATM   29  C23 UNL     1      12.768  18.680  45.509  1.00  0.00     0.026 C 
BRANCH  27  30
HETATM   30  C4  UNL     1      13.704  15.596  43.552  1.00  0.00     0.228 C 
HETATM   31  O3  UNL     1      12.758  15.565  42.720  1.00  0.00    -0.286 OA
BRANCH  30  32
HETATM   32  C3  UNL     1      14.836  14.724  43.381  1.00  0.00     0.329 C 
HETATM   33  O2  UNL     1      15.706  14.626  44.292  1.00  0.00    -0.256 OA
BRANCH  32  34
HETATM   34  O1  UNL     1      14.998  13.986  42.237  1.00  0.00    -0.316 OA
BRANCH  34  35
HETATM   35  C2  UNL     1      14.599  12.617  42.147  1.00  0.00     0.175 C 
HETATM   36  C1  UNL     1      15.761  11.749  41.716  1.00  0.00     0.034 C 
ENDBRANCH  34  35
ENDBRANCH  32  34
ENDBRANCH  30  32
ENDBRANCH  27  30
ENDBRANCH  21  24
ENDBRANCH   1  20
TORSDOF 6
ENDMDL
MODEL 2
REMARK VINA RESULT: -9.294957090      1.606      2.116
REMARK  6 active torsions:
REMARK  status: ('A' for Active; 'I' for Inactive)
REMARK    1  A    between atoms: C2_2  and  O1_3 
REMARK    2  A    between atoms: O1_3  and  C3_4 
REMARK    3  A    between atoms: C3_4  and  C4_6 
REMARK    4  A    between atoms: C4_6  and  C5_8 
REMARK    5  A    between atoms: C8_11  and  N1_12 
REMARK       I    between atoms: N1_12  and  C9_14 
REMARK    6  A    between atoms: C9_14  and  C10_16 
REMARK       I    between atoms: N2_18  and  C12_19 
REMARK       I    between atoms: C12_19  and  N3_21 
ROOT
HETATM    1  C10 UNL     1       9.914  20.710  49.049  1.00  0.00     0.143 C 
HETATM    2  C11 UNL     1       9.409  22.024  48.473  1.00  0.00     0.157 C 
HETATM    3  N2  UNL     1       8.241  21.711  47.671  1.00  0.00    -0.332 N 
HETATM    4  C12 UNL     1       7.612  22.706  46.859  1.00  0.00     0.320 C 
HETATM    5  O5  UNL     1       6.568  22.284  46.217  1.00  0.00    -0.247 OA
HETATM    6  N3  UNL     1       7.943  24.030  46.656  1.00  0.00    -0.330 N 
HETATM    7  C13 UNL     1       7.090  24.834  45.760  1.00  0.00     0.153 C 
HETATM    8  C14 UNL     1       7.906  25.647  44.786  1.00  0.00     0.187 C 
HETATM    9  O6  UNL     1       8.958  26.306  45.429  1.00  0.00    -0.388 OA
HETATM   10  C15 UNL     1       8.884  26.202  46.796  1.00  0.00     0.187 C 
HETATM   11  C16 UNL     1       9.055  24.724  47.224  1.00  0.00     0.153 C 
HETATM   12  C17 UNL     1       7.663  20.375  47.646  1.00  0.00     0.128 C 
HETATM   13  C18 UNL     1       7.649  19.652  48.959  1.00  0.00     0.028 C 
HETATM   14  C19 UNL     1       8.775  20.136  49.788  1.00  0.00     0.034 C 
HETATM   15  C20 UNL     1       9.352  19.252  50.808  1.00  0.00     0.131 C 
HETATM   16  N4  UNL     1      10.674  19.805  51.031  1.00  0.00    -0.355 N 
HETATM   17  C21 UNL     1      11.635  19.241  51.957  1.00  0.00     0.152 C 
HETATM   18  C22 UNL     1      10.853  20.970  50.205  1.00  0.00     0.239 C 
HETATM   19  O7  UNL     1      11.603  21.928  50.424  1.00  0.00    -0.272 OA
ENDROOT
BRANCH   1  20
HETATM   20  C9  UNL     1      10.660  19.939  48.096  1.00  0.00     0.238 C 
HETATM   21  N1  UNL     1      10.773  18.558  47.933  1.00  0.00    -0.355 N 
ATOM     22  H1  UNL     1      10.252  17.967  48.581  1.00  0.00     0.162 HD
HETATM   23  O4  UNL     1      11.348  20.617  47.238  1.00  0.00    -0.272 OA
BRANCH  21  24
HETATM   24  C8  UNL     1      11.573  17.892  46.917  1.00  0.00     0.084 C 
HETATM   25  C7  UNL     1      13.005  18.341  46.977  1.00  0.00     0.026 C 
HETATM   26  C6  UNL     1      13.844  17.513  46.054  1.00  0.00     0.015 C 
HETATM   27  C5  UNL     1      13.582  16.044  46.105  1.00  0.00     0.066 C 
HETATM   28  C24 UNL     1      12.790  15.761  47.370  1.00  0.00     0.015 C 
HETATM   29  C23 UNL     1      11.425  16.405  47.165  1.00  0.00     0.026 C 
BRANCH  27  30
HETATM   30  C4  UNL     1      14.881  15.326  46.112  1.00  0.00     0.228 C 
HETATM   31  O3  UNL     1      15.275  14.837  47.205  1.00  0.00    -0.286 OA
BRANCH  30  32
HETATM   32  C3  UNL     1      15.687  15.175  44.930  1.00  0.00     0.329 C 
HETATM   33  O2  UNL     1      16.782  15.797  44.824  1.00  0.00    -0.256 OA
BRANCH  32  34
HETATM   34  O1  UNL     1      15.292  14.362  43.899  1.00  0.00    -0.316 OA
BRANCH  34  35
HETATM   35  C2  UNL     1      14.979  14.869  42.601  1.00  0.00     0.175 C 
HETATM   36  C1  UNL     1      13.642  15.577  42.610  1.00  0.00     0.034 C 
ENDBRANCH  34  35
ENDBRANCH  32  34
ENDBRANCH  30  32
ENDBRANCH  27  30
ENDBRANCH  21  24
ENDBRANCH   1  20
TORSDOF 6
ENDMDL
MODEL 3
REMARK VINA RESULT: -9.115531931      0.860      1.346
REMARK  6 active torsions:
REMARK  status: ('A' for Active; 'I' for Inactive)
REMARK    1  A    between atoms: C2_2  and  O1_3 
REMARK    2  A    between atoms: O1_3  and  C3_4 
REMARK    3  A    between atoms: C3_4  and  C4_6 
REMARK    4  A    between atoms: C4_6  and  C5_8 
REMARK    5  A    between atoms: C8_11  and  N1_12 
REMARK       I    between atoms: N1_12  and  C9_14 
REMARK    6  A    between atoms: C9_14  and  C10_16 
REMARK       I    between atoms: N2_18  and  C12_19 
REMARK       I    between atoms: C12_19  and  N3_21 
ROOT
HETATM    1  C10 UNL     1      10.315  20.973  48.856  1.00  0.00     0.143 C 
HETATM    2  C11 UNL     1      10.191  22.311  48.144  1.00  0.00     0.157 C 
HETATM    3  N2  UNL     1       9.368  22.089  46.970  1.00  0.00    -0.332 N 
HETATM    4  C12 UNL     1       9.182  23.114  45.991  1.00  0.00     0.320 C 
HETATM    5  O5  UNL     1       8.405  22.776  45.010  1.00  0.00    -0.247 OA
HETATM    6  N3  UNL     1       9.698  24.393  45.931  1.00  0.00    -0.330 N 
HETATM    7  C13 UNL     1       9.315  25.248  44.792  1.00  0.00     0.153 C 
HETATM    8  C14 UNL     1      10.508  25.947  44.188  1.00  0.00     0.187 C 
HETATM    9  O6  UNL     1      11.315  26.520  45.174  1.00  0.00    -0.388 OA
HETATM   10  C15 UNL     1      10.740  26.466  46.419  1.00  0.00     0.187 C 
HETATM   11  C16 UNL     1      10.592  24.992  46.871  1.00  0.00     0.153 C 
HETATM   12  C17 UNL     1       8.705  20.815  46.727  1.00  0.00     0.128 C 
HETATM   13  C18 UNL     1       8.142  20.138  47.940  1.00  0.00     0.028 C 
HETATM   14  C19 UNL     1       8.933  20.536  49.126  1.00  0.00     0.034 C 
HETATM   15  C20 UNL     1       9.007  19.632  50.280  1.00  0.00     0.131 C 
HETATM   16  N4  UNL     1      10.206  20.059  50.973  1.00  0.00    -0.355 N 
HETATM   17  C21 UNL     1      10.702  19.433  52.182  1.00  0.00     0.152 C 
HETATM   18  C22 UNL     1      10.792  21.176  50.277  1.00  0.00     0.239 C 
HETATM   19  O7  UNL     1      11.505  22.062  50.760  1.00  0.00    -0.272 OA
ENDROOT
BRANCH   1  20
HETATM   20  C9  UNL     1      11.273  20.103  48.235  1.00  0.00     0.238 C 
HETATM   21  N1  UNL     1      11.092  18.984  47.422  1.00  0.00    -0.355 N 
ATOM     22  H1  UNL     1      10.132  18.710  47.211  1.00  0.00     0.162 HD
HETATM   23  O4  UNL     1      12.515  20.386  48.454  1.00  0.00    -0.272 OA
BRANCH  21  24
HETATM   24  C8  UNL     1      12.158  18.177  46.849  1.00  0.00     0.084 C 
HETATM   25  C7  UNL     1      11.690  16.774  46.584  1.00  0.00     0.026 C 
HETATM   26  C6  UNL     1      12.735  16.016  45.829  1.00  0.00     0.015 C 
HETATM   27  C5  UNL     1      13.361  16.757  44.694  1.00  0.00     0.066 C 
HETATM   28  C24 UNL     1      12.480  17.956  44.385  1.00  0.00     0.015 C 
HETATM   29  C23 UNL     1      12.598  18.885  45.585  1.00  0.00     0.026 C 
BRANCH  27  30
HETATM   30  C4  UNL     1      13.461  15.847  43.525  1.00  0.00     0.228 C 
HETATM   31  O3  UNL     1      12.454  15.747  42.772  1.00  0.00    -0.286 OA
BRANCH  30  32
HETATM   32  C3  UNL     1      14.650  15.092  43.233  1.00  0.00     0.329 C 
HETATM   33  O2  UNL     1      15.062  14.990  42.043  1.00  0.00    -0.256 OA
BRANCH  32  34
HETATM   34  O1  UNL     1      15.358  14.469  44.228  1.00  0.00    -0.316 OA
BRANCH  34  35
HETATM   35  C2  UNL     1      16.232  15.180  45.105  1.00  0.00     0.175 C 
HETATM   36  C1  UNL     1      15.949  14.825  46.549  1.00  0.00     0.034 C 
ENDBRANCH  34  35
ENDBRANCH  32  34
ENDBRANCH  30  32
ENDBRANCH  27  30
ENDBRANCH  21  24
ENDBRANCH   1  20
TORSDOF 6
ENDMDL
MODEL 4
REMARK VINA RESULT: -9.003098566      1.104      2.026
REMARK  6 active torsions:
REMARK  status: ('A' for Active; 'I' for Inactive)
REMARK    1  A    between atoms: C2_2  and  O1_3 
REMARK    2  A    between atoms: O1_3  and  C3_4 
REMARK    3  A    between atoms: C3_4  and  C4_6 
REMARK    4  A    between atoms: C4_6  and  C5_8 
REMARK    5  A    between atoms: C8_11  and  N1_12 
REMARK       I    between atoms: N1_12  and  C9_14 
REMARK    6  A    between atoms: C9_14  and  C10_16 
REMARK       I    between atoms: N2_18  and  C12_19 
REMARK       I    between atoms: C12_19  and  N3_21 
ROOT
HETATM    1  C10 UNL     1      10.507  20.760  48.681  1.00  0.00     0.143 C 
HETATM    2  C11 UNL     1      10.328  22.105  47.993  1.00  0.00     0.157 C 
HETATM    3  N2  UNL     1       9.503  21.873  46.822  1.00  0.00    -0.332 N 
HETATM    4  C12 UNL     1       9.271  22.907  45.863  1.00  0.00     0.320 C 
HETATM    5  O5  UNL     1       8.498  22.558  44.883  1.00  0.00    -0.247 OA
HETATM    6  N3  UNL     1       9.741  24.204  45.820  1.00  0.00    -0.330 N 
HETATM    7  C13 UNL     1       9.317  25.064  44.698  1.00  0.00     0.153 C 
HETATM    8  C14 UNL     1      10.479  25.815  44.096  1.00  0.00     0.187 C 
HETATM    9  O6  UNL     1      11.274  26.400  45.085  1.00  0.00    -0.388 OA
HETATM   10  C15 UNL     1      10.714  26.305  46.333  1.00  0.00     0.187 C 
HETATM   11  C16 UNL     1      10.622  24.820  46.761  1.00  0.00     0.153 C 
HETATM   12  C17 UNL     1       8.884  20.581  46.564  1.00  0.00     0.128 C 
HETATM   13  C18 UNL     1       8.356  19.863  47.770  1.00  0.00     0.028 C 
HETATM   14  C19 UNL     1       9.144  20.270  48.955  1.00  0.00     0.034 C 
HETATM   15  C20 UNL     1       9.261  19.350  50.094  1.00  0.00     0.131 C 
HETATM   16  N4  UNL     1      10.451  19.809  50.782  1.00  0.00    -0.355 N 
HETATM   17  C21 UNL     1      10.980  19.181  51.976  1.00  0.00     0.152 C 
HETATM   18  C22 UNL     1      10.989  20.956  50.101  1.00  0.00     0.239 C 
HETATM   19  O7  UNL     1      11.675  21.859  50.592  1.00  0.00    -0.272 OA
ENDROOT
BRANCH   1  20
HETATM   20  C9  UNL     1      11.489  19.936  48.037  1.00  0.00     0.238 C 
HETATM   21  N1  UNL     1      11.340  18.827  47.203  1.00  0.00    -0.355 N 
ATOM     22  H1  UNL     1      10.389  18.523  46.995  1.00  0.00     0.162 HD
HETATM   23  O4  UNL     1      12.722  20.257  48.252  1.00  0.00    -0.272 OA
BRANCH  21  24
HETATM   24  C8  UNL     1      12.429  18.067  46.608  1.00  0.00     0.084 C 
HETATM   25  C7  UNL     1      12.039  16.630  46.410  1.00  0.00     0.026 C 
HETATM   26  C6  UNL     1      13.096  15.911  45.632  1.00  0.00     0.015 C 
HETATM   27  C5  UNL     1      13.622  16.649  44.446  1.00  0.00     0.066 C 
HETATM   28  C24 UNL     1      12.654  17.779  44.139  1.00  0.00     0.015 C 
HETATM   29  C23 UNL     1      12.766  18.756  45.303  1.00  0.00     0.026 C 
BRANCH  27  30
HETATM   30  C4  UNL     1      13.727  15.707  43.304  1.00  0.00     0.228 C 
HETATM   31  O3  UNL     1      14.668  14.868  43.321  1.00  0.00    -0.286 OA
BRANCH  30  32
HETATM   32  C3  UNL     1      12.804  15.723  42.200  1.00  0.00     0.329 C 
HETATM   33  O2  UNL     1      11.956  14.797  42.067  1.00  0.00    -0.256 OA
BRANCH  32  34
HETATM   34  O1  UNL     1      12.823  16.734  41.274  1.00  0.00    -0.316 OA
BRANCH  34  35
HETATM   35  C2  UNL     1      11.632  17.238  40.667  1.00  0.00     0.175 C 
HETATM   36  C1  UNL     1      11.572  18.746  40.776  1.00  0.00     0.034 C 
ENDBRANCH  34  35
ENDBRANCH  32  34
ENDBRANCH  30  32
ENDBRANCH  27  30
ENDBRANCH  21  24
ENDBRANCH   1  20
TORSDOF 6
ENDMDL
MODEL 5
REMARK VINA RESULT: -8.762004773      1.087      1.562
REMARK  6 active torsions:
REMARK  status: ('A' for Active; 'I' for Inactive)
REMARK    1  A    between atoms: C2_2  and  O1_3 
REMARK    2  A    between atoms: O1_3  and  C3_4 
REMARK    3  A    between atoms: C3_4  and  C4_6 
REMARK    4  A    between atoms: C4_6  and  C5_8 
REMARK    5  A    between atoms: C8_11  and  N1_12 
REMARK       I    between atoms: N1_12  and  C9_14 
REMARK    6  A    between atoms: C9_14  and  C10_16 
REMARK       I    between atoms: N2_18  and  C12_19 
REMARK       I    between atoms: C12_19  and  N3_21 
ROOT
HETATM    1  C10 UNL     1      10.582  20.423  49.035  1.00  0.00     0.143 C 
HETATM    2  C11 UNL     1      10.522  21.786  48.362  1.00  0.00     0.157 C 
HETATM    3  N2  UNL     1       9.193  21.918  47.798  1.00  0.00    -0.332 N 
HETATM    4  C12 UNL     1       8.851  23.024  46.958  1.00  0.00     0.320 C 
HETATM    5  O5  UNL     1       7.623  23.018  46.546  1.00  0.00    -0.247 OA
HETATM    6  N3  UNL     1       9.622  24.083  46.522  1.00  0.00    -0.330 N 
HETATM    7  C13 UNL     1       8.989  25.100  45.661  1.00  0.00     0.153 C 
HETATM    8  C14 UNL     1       9.851  25.443  44.471  1.00  0.00     0.187 C 
HETATM    9  O6  UNL     1      11.178  25.663  44.849  1.00  0.00    -0.388 OA
HETATM   10  C15 UNL     1      11.337  25.692  46.212  1.00  0.00     0.187 C 
HETATM   11  C16 UNL     1      11.003  24.305  46.814  1.00  0.00     0.153 C 
HETATM   12  C17 UNL     1       8.150  20.933  48.048  1.00  0.00     0.128 C 
HETATM   13  C18 UNL     1       8.114  20.369  49.437  1.00  0.00     0.028 C 
HETATM   14  C19 UNL     1       9.477  20.412  50.011  1.00  0.00     0.034 C 
HETATM   15  C20 UNL     1       9.854  19.442  51.047  1.00  0.00     0.131 C 
HETATM   16  N4  UNL     1      11.302  19.426  50.988  1.00  0.00    -0.355 N 
HETATM   17  C21 UNL     1      12.131  18.586  51.829  1.00  0.00     0.152 C 
HETATM   18  C22 UNL     1      11.754  20.359  49.989  1.00  0.00     0.239 C 
HETATM   19  O7  UNL     1      12.843  20.943  49.955  1.00  0.00    -0.272 OA
ENDROOT
BRANCH   1  20
HETATM   20  C9  UNL     1      10.772  19.352  48.099  1.00  0.00     0.238 C 
HETATM   21  N1  UNL     1      11.797  19.118  47.181  1.00  0.00    -0.355 N 
ATOM     22  H1  UNL     1      12.554  19.801  47.142  1.00  0.00     0.162 HD
HETATM   23  O4  UNL     1       9.853  18.444  48.087  1.00  0.00    -0.272 OA
BRANCH  21  24
HETATM   24  C8  UNL     1      11.874  17.983  46.276  1.00  0.00     0.084 C 
HETATM   25  C7  UNL     1      12.456  18.388  44.951  1.00  0.00     0.026 C 
HETATM   26  C6  UNL     1      12.699  17.179  44.103  1.00  0.00     0.015 C 
HETATM   27  C5  UNL     1      13.335  16.027  44.809  1.00  0.00     0.066 C 
HETATM   28  C24 UNL     1      13.909  16.547  46.116  1.00  0.00     0.015 C 
HETATM   29  C23 UNL     1      12.713  16.935  46.976  1.00  0.00     0.026 C 
BRANCH  27  30
HETATM   30  C4  UNL     1      14.399  15.462  43.941  1.00  0.00     0.228 C 
HETATM   31  O3  UNL     1      15.592  15.559  44.337  1.00  0.00    -0.286 OA
BRANCH  30  32
HETATM   32  C3  UNL     1      14.112  14.819  42.686  1.00  0.00     0.329 C 
HETATM   33  O2  UNL     1      13.050  15.092  42.060  1.00  0.00    -0.256 OA
BRANCH  32  34
HETATM   34  O1  UNL     1      14.976  13.902  42.145  1.00  0.00    -0.316 OA
BRANCH  34  35
HETATM   35  C2  UNL     1      14.691  12.502  42.124  1.00  0.00     0.175 C 
HETATM   36  C1  UNL     1      15.898  11.717  41.656  1.00  0.00     0.034 C 
ENDBRANCH  34  35
ENDBRANCH  32  34
ENDBRANCH  30  32
ENDBRANCH  27  30
ENDBRANCH  21  24
ENDBRANCH   1  20
TORSDOF 6
ENDMDL
