MODEL 1
REMARK VINA RESULT: -9.513607791      0.000      0.000
REMARK  5 active torsions:
REMARK  status: ('A' for Active; 'I' for Inactive)
REMARK    1  A    between atoms: N1_9  and  C8_10 
REMARK    2  A    between atoms: C8_10  and  C9_11 
REMARK    3  A    between atoms: C15_19  and  S1_20 
REMARK    4  A    between atoms: S1_20  and  C16_21 
REMARK    5  A    between atoms: C22_27  and  C23_28 
ROOT
HETATM    1  C1  UNL     1       6.907  24.821  49.239  1.00  0.00     0.099 C 
HETATM    2  C2  UNL     1       7.830  24.018  49.137  1.00  0.00    -0.143 C 
HETATM    3  C3  UNL     1       8.934  23.017  49.026  1.00  0.00     0.247 C 
HETATM    4  C4  UNL     1       8.284  21.729  49.376  1.00  0.00     0.066 C 
HETATM    5  C5  UNL     1      10.023  23.513  49.918  1.00  0.00     0.268 C 
HETATM    6  O1  UNL     1      10.735  24.374  49.035  1.00  0.00    -0.337 OA
HETATM    7  C6  UNL     1       9.950  24.554  47.898  1.00  0.00     0.382 C 
HETATM    8  C7  UNL     1      10.751  24.781  46.621  1.00  0.00     0.186 C 
HETATM    9  N1  UNL     1      10.451  23.851  45.572  1.00  0.00    -0.385 N 
HETATM   10  C12 UNL     1      10.727  22.453  45.894  1.00  0.00     0.181 C 
HETATM   11  C13 UNL     1      10.701  22.472  47.385  1.00  0.00     0.370 C 
HETATM   12  N2  UNL     1      11.058  21.272  48.061  1.00  0.00    -0.218 N 
HETATM   13  C14 UNL     1      11.364  19.991  47.559  1.00  0.00     0.257 C 
HETATM   14  O2  UNL     1      11.660  19.785  46.356  1.00  0.00    -0.270 OA
HETATM   15  C15 UNL     1      11.249  19.082  48.709  1.00  0.00     0.176 C 
HETATM   16  C22 UNL     1      11.673  19.947  49.877  1.00  0.00     0.235 C 
HETATM   17  N3  UNL     1      11.183  21.237  49.488  1.00  0.00    -0.235 N 
HETATM   18  C24 UNL     1      10.886  22.372  50.343  1.00  0.00     0.272 C 
HETATM   19  O5  UNL     1      11.406  22.348  51.484  1.00  0.00    -0.269 OA
HETATM   20  N4  UNL     1       9.505  23.143  47.760  1.00  0.00     0.168 N 
ENDROOT
BRANCH  16  21
HETATM   21  C23 UNL     1      11.123  19.467  51.134  1.00  0.00     0.200 C 
HETATM   22  O3  UNL     1       9.972  19.152  51.401  1.00  0.00    -0.646 OA
HETATM   23  O4  UNL     1      12.058  19.346  52.204  1.00  0.00    -0.646 OA
ENDBRANCH  16  21
BRANCH   9  24
HETATM   24  C8  UNL     1      10.757  24.242  44.272  1.00  0.00     0.063 C 
BRANCH  24  25
HETATM   25  C9  UNL     1      12.207  24.203  43.890  1.00  0.00     0.024 A 
HETATM   26  C10 UNL     1      12.565  23.109  42.863  1.00  0.00     0.010 A 
HETATM   27  C11 UNL     1      12.707  24.581  42.570  1.00  0.00     0.010 A 
ENDBRANCH  24  25
ENDBRANCH   9  24
BRANCH  15  28
HETATM   28  S1  UNL     1      11.901  17.501  48.586  1.00  0.00    -0.147 SA
BRANCH  28  29
HETATM   29  C16 UNL     1      12.758  16.914  47.193  1.00  0.00     0.048 C 
HETATM   30  C17 UNL     1      13.812  15.834  47.506  1.00  0.00     0.015 C 
HETATM   31  C18 UNL     1      14.776  15.815  46.372  1.00  0.00     0.001 C 
HETATM   32  C19 UNL     1      14.367  16.609  45.177  1.00  0.00     0.000 C 
HETATM   33  C20 UNL     1      12.930  16.479  44.801  1.00  0.00     0.001 C 
HETATM   34  C21 UNL     1      11.997  16.410  46.017  1.00  0.00     0.015 C 
ENDBRANCH  28  29
ENDBRANCH  15  28
TORSDOF 5
ENDMDL
MODEL 2
REMARK VINA RESULT: -9.156811539      0.812      1.211
REMARK  5 active torsions:
REMARK  status: ('A' for Active; 'I' for Inactive)
REMARK    1  A    between atoms: N1_9  and  C8_10 
REMARK    2  A    between atoms: C8_10  and  C9_11 
REMARK    3  A    between atoms: C15_19  and  S1_20 
REMARK    4  A    between atoms: S1_20  and  C16_21 
REMARK    5  A    between atoms: C22_27  and  C23_28 
ROOT
HETATM    1  C1  UNL     1       7.263  25.756  49.644  1.00  0.00     0.099 C 
HETATM    2  C2  UNL     1       7.984  24.794  49.396  1.00  0.00    -0.143 C 
HETATM    3  C3  UNL     1       8.838  23.602  49.107  1.00  0.00     0.247 C 
HETATM    4  C4  UNL     1       7.957  22.448  49.415  1.00  0.00     0.066 C 
HETATM    5  C5  UNL     1      10.070  23.778  49.931  1.00  0.00     0.268 C 
HETATM    6  O1  UNL     1      10.882  24.553  49.055  1.00  0.00    -0.337 OA
HETATM    7  C6  UNL     1      10.073  24.997  48.011  1.00  0.00     0.382 C 
HETATM    8  C7  UNL     1      10.807  25.173  46.687  1.00  0.00     0.186 C 
HETATM    9  N1  UNL     1      10.239  24.428  45.603  1.00  0.00    -0.385 N 
HETATM   10  C12 UNL     1      10.235  22.979  45.790  1.00  0.00     0.181 C 
HETATM   11  C13 UNL     1      10.323  22.863  47.274  1.00  0.00     0.370 C 
HETATM   12  N2  UNL     1      10.465  21.557  47.820  1.00  0.00    -0.218 N 
HETATM   13  C14 UNL     1      10.454  20.293  47.196  1.00  0.00     0.257 C 
HETATM   14  O2  UNL     1      10.610  20.145  45.958  1.00  0.00    -0.270 OA
HETATM   15  C15 UNL     1      10.233  19.323  48.278  1.00  0.00     0.176 C 
HETATM   16  C22 UNL     1      10.916  19.968  49.465  1.00  0.00     0.235 C 
HETATM   17  N3  UNL     1      10.685  21.363  49.222  1.00  0.00    -0.235 N 
HETATM   18  C24 UNL     1      10.700  22.449  50.186  1.00  0.00     0.272 C 
HETATM   19  O5  UNL     1      11.286  22.210  51.269  1.00  0.00    -0.269 OA
HETATM   20  N4  UNL     1       9.328  23.727  47.808  1.00  0.00     0.168 N 
ENDROOT
BRANCH  16  21
HETATM   21  C23 UNL     1      10.371  19.495  50.727  1.00  0.00     0.200 C 
HETATM   22  O3  UNL     1       9.215  19.521  51.124  1.00  0.00    -0.646 OA
HETATM   23  O4  UNL     1      11.317  18.920  51.624  1.00  0.00    -0.646 OA
ENDBRANCH  16  21
BRANCH   9  24
HETATM   24  C8  UNL     1      10.525  24.869  44.314  1.00  0.00     0.063 C 
BRANCH  24  25
HETATM   25  C9  UNL     1      11.953  24.750  43.872  1.00  0.00     0.024 A 
HETATM   26  C10 UNL     1      12.217  23.605  42.873  1.00  0.00     0.010 A 
HETATM   27  C11 UNL     1      12.410  25.058  42.518  1.00  0.00     0.010 A 
ENDBRANCH  24  25
ENDBRANCH   9  24
BRANCH  15  28
HETATM   28  S1  UNL     1      10.523  17.660  47.974  1.00  0.00    -0.147 SA
BRANCH  28  29
HETATM   29  C16 UNL     1      12.065  17.019  47.498  1.00  0.00     0.048 C 
HETATM   30  C17 UNL     1      12.437  17.288  46.027  1.00  0.00     0.015 C 
HETATM   31  C18 UNL     1      13.467  16.286  45.641  1.00  0.00     0.001 C 
HETATM   32  C19 UNL     1      14.033  15.489  46.768  1.00  0.00     0.000 C 
HETATM   33  C20 UNL     1      14.331  16.272  48.000  1.00  0.00     0.001 C 
HETATM   34  C21 UNL     1      13.279  17.352  48.291  1.00  0.00     0.015 C 
ENDBRANCH  28  29
ENDBRANCH  15  28
TORSDOF 5
ENDMDL
MODEL 3
REMARK VINA RESULT: -9.072360993      2.381      3.853
REMARK  5 active torsions:
REMARK  status: ('A' for Active; 'I' for Inactive)
REMARK    1  A    between atoms: N1_9  and  C8_10 
REMARK    2  A    between atoms: C8_10  and  C9_11 
REMARK    3  A    between atoms: C15_19  and  S1_20 
REMARK    4  A    between atoms: S1_20  and  C16_21 
REMARK    5  A    between atoms: C22_27  and  C23_28 
ROOT
HETATM    1  C1  UNL     1       7.149  19.248  49.976  1.00  0.00     0.099 C 
HETATM    2  C2  UNL     1       8.256  19.174  49.451  1.00  0.00    -0.143 C 
HETATM    3  C3  UNL     1       9.598  19.053  48.805  1.00  0.00     0.247 C 
HETATM    4  C4  UNL     1       9.584  17.695  48.204  1.00  0.00     0.066 C 
HETATM    5  C5  UNL     1      10.593  19.327  49.883  1.00  0.00     0.268 C 
HETATM    6  O1  UNL     1      10.702  20.745  49.807  1.00  0.00    -0.337 OA
HETATM    7  C6  UNL     1       9.668  21.204  48.995  1.00  0.00     0.382 C 
HETATM    8  C7  UNL     1      10.004  22.472  48.218  1.00  0.00     0.186 C 
HETATM    9  N1  UNL     1       9.844  22.345  46.799  1.00  0.00    -0.385 N 
HETATM   10  C12 UNL     1      10.694  21.336  46.174  1.00  0.00     0.181 C 
HETATM   11  C13 UNL     1      11.009  20.444  47.326  1.00  0.00     0.370 C 
HETATM   12  N2  UNL     1      11.938  19.390  47.103  1.00  0.00    -0.218 N 
HETATM   13  C14 UNL     1      12.581  18.966  45.922  1.00  0.00     0.257 C 
HETATM   14  O2  UNL     1      12.646  19.679  44.891  1.00  0.00    -0.270 OA
HETATM   15  C15 UNL     1      13.088  17.617  46.214  1.00  0.00     0.176 C 
HETATM   16  C22 UNL     1      13.411  17.683  47.693  1.00  0.00     0.235 C 
HETATM   17  N3  UNL     1      12.394  18.567  48.183  1.00  0.00    -0.235 N 
HETATM   18  C24 UNL     1      11.897  18.685  49.542  1.00  0.00     0.272 C 
HETATM   19  O5  UNL     1      12.636  18.212  50.438  1.00  0.00    -0.269 OA
HETATM   20  N4  UNL     1       9.770  20.146  47.957  1.00  0.00     0.168 N 
ENDROOT
BRANCH  16  21
HETATM   21  C23 UNL     1      13.390  16.366  48.310  1.00  0.00     0.200 C 
HETATM   22  O3  UNL     1      14.197  15.864  49.079  1.00  0.00    -0.646 OA
HETATM   23  O4  UNL     1      12.272  15.550  47.971  1.00  0.00    -0.646 OA
ENDBRANCH  16  21
BRANCH   9  24
HETATM   24  C8  UNL     1       9.670  23.521  46.075  1.00  0.00     0.063 C 
BRANCH  24  25
HETATM   25  C9  UNL     1      10.916  24.164  45.542  1.00  0.00     0.024 A 
HETATM   26  C10 UNL     1      10.714  25.600  45.016  1.00  0.00     0.010 A 
HETATM   27  C11 UNL     1      11.594  25.280  46.197  1.00  0.00     0.010 A 
ENDBRANCH  24  25
ENDBRANCH   9  24
BRANCH  15  28
HETATM   28  S1  UNL     1      14.241  16.917  45.157  1.00  0.00    -0.147 SA
BRANCH  28  29
HETATM   29  C16 UNL     1      13.826  15.909  43.805  1.00  0.00     0.048 C 
HETATM   30  C17 UNL     1      13.013  16.623  42.708  1.00  0.00     0.015 C 
HETATM   31  C18 UNL     1      12.315  15.571  41.920  1.00  0.00     0.001 C 
HETATM   32  C19 UNL     1      12.747  14.172  42.203  1.00  0.00     0.000 C 
HETATM   33  C20 UNL     1      14.219  13.990  42.353  1.00  0.00     0.001 C 
HETATM   34  C21 UNL     1      14.893  15.154  43.093  1.00  0.00     0.015 C 
ENDBRANCH  28  29
ENDBRANCH  15  28
TORSDOF 5
ENDMDL
MODEL 4
REMARK VINA RESULT: -9.021029647      0.999      1.250
REMARK  5 active torsions:
REMARK  status: ('A' for Active; 'I' for Inactive)
REMARK    1  A    between atoms: N1_9  and  C8_10 
REMARK    2  A    between atoms: C8_10  and  C9_11 
REMARK    3  A    between atoms: C15_19  and  S1_20 
REMARK    4  A    between atoms: S1_20  and  C16_21 
REMARK    5  A    between atoms: C22_27  and  C23_28 
ROOT
HETATM    1  C1  UNL     1       7.291  25.912  49.653  1.00  0.00     0.099 C 
HETATM    2  C2  UNL     1       7.973  24.918  49.420  1.00  0.00    -0.143 C 
HETATM    3  C3  UNL     1       8.780  23.690  49.151  1.00  0.00     0.247 C 
HETATM    4  C4  UNL     1       7.865  22.577  49.507  1.00  0.00     0.066 C 
HETATM    5  C5  UNL     1      10.033  23.845  49.948  1.00  0.00     0.268 C 
HETATM    6  O1  UNL     1      10.855  24.567  49.036  1.00  0.00    -0.337 OA
HETATM    7  C6  UNL     1      10.042  25.010  47.994  1.00  0.00     0.382 C 
HETATM    8  C7  UNL     1      10.757  25.124  46.653  1.00  0.00     0.186 C 
HETATM    9  N1  UNL     1      10.145  24.369  45.600  1.00  0.00    -0.385 N 
HETATM   10  C12 UNL     1      10.094  22.927  45.829  1.00  0.00     0.181 C 
HETATM   11  C13 UNL     1      10.206  22.849  47.314  1.00  0.00     0.370 C 
HETATM   12  N2  UNL     1      10.312  21.554  47.894  1.00  0.00    -0.218 N 
HETATM   13  C14 UNL     1      10.246  20.274  47.306  1.00  0.00     0.257 C 
HETATM   14  O2  UNL     1      10.374  20.087  46.071  1.00  0.00    -0.270 OA
HETATM   15  C15 UNL     1      10.012  19.343  48.419  1.00  0.00     0.176 C 
HETATM   16  C22 UNL     1      10.739  19.997  49.575  1.00  0.00     0.235 C 
HETATM   17  N3  UNL     1      10.551  21.391  49.297  1.00  0.00    -0.235 N 
HETATM   18  C24 UNL     1      10.621  22.503  50.229  1.00  0.00     0.272 C 
HETATM   19  O5  UNL     1      11.218  22.274  51.308  1.00  0.00    -0.269 OA
HETATM   20  N4  UNL     1       9.251  23.761  47.840  1.00  0.00     0.168 N 
ENDROOT
BRANCH  16  21
HETATM   21  C23 UNL     1      10.200  19.579  50.860  1.00  0.00     0.200 C 
HETATM   22  O3  UNL     1      10.792  19.154  51.841  1.00  0.00    -0.646 OA
HETATM   23  O4  UNL     1       8.784  19.680  50.991  1.00  0.00    -0.646 OA
ENDBRANCH  16  21
BRANCH   9  24
HETATM   24  C8  UNL     1      10.422  24.763  44.295  1.00  0.00     0.063 C 
BRANCH  24  25
HETATM   25  C9  UNL     1      11.872  24.854  43.921  1.00  0.00     0.024 A 
HETATM   26  C10 UNL     1      12.361  23.721  42.996  1.00  0.00     0.010 A 
HETATM   27  C11 UNL     1      12.342  25.168  42.573  1.00  0.00     0.010 A 
ENDBRANCH  24  25
ENDBRANCH   9  24
BRANCH  15  28
HETATM   28  S1  UNL     1      10.239  17.664  48.158  1.00  0.00    -0.147 SA
BRANCH  28  29
HETATM   29  C16 UNL     1      11.778  16.939  47.809  1.00  0.00     0.048 C 
HETATM   30  C17 UNL     1      12.711  16.814  49.029  1.00  0.00     0.015 C 
HETATM   31  C18 UNL     1      14.100  16.680  48.511  1.00  0.00     0.001 C 
HETATM   32  C19 UNL     1      14.211  16.456  47.040  1.00  0.00     0.000 C 
HETATM   33  C20 UNL     1      13.221  15.495  46.477  1.00  0.00     0.001 C 
HETATM   34  C21 UNL     1      11.833  15.621  47.119  1.00  0.00     0.015 C 
ENDBRANCH  28  29
ENDBRANCH  15  28
TORSDOF 5
ENDMDL
MODEL 5
REMARK VINA RESULT: -8.982208881      2.073      2.882
REMARK  5 active torsions:
REMARK  status: ('A' for Active; 'I' for Inactive)
REMARK    1  A    between atoms: N1_9  and  C8_10 
REMARK    2  A    between atoms: C8_10  and  C9_11 
REMARK    3  A    between atoms: C15_19  and  S1_20 
REMARK    4  A    between atoms: S1_20  and  C16_21 
REMARK    5  A    between atoms: C22_27  and  C23_28 
ROOT
HETATM    1  C1  UNL     1       7.947  21.384  52.277  1.00  0.00     0.099 C 
HETATM    2  C2  UNL     1       8.758  21.182  51.377  1.00  0.00    -0.143 C 
HETATM    3  C3  UNL     1       9.735  20.903  50.282  1.00  0.00     0.247 C 
HETATM    4  C4  UNL     1       9.414  19.516  49.861  1.00  0.00     0.066 C 
HETATM    5  C5  UNL     1      11.084  21.159  50.867  1.00  0.00     0.268 C 
HETATM    6  O1  UNL     1      11.232  22.555  50.623  1.00  0.00    -0.337 OA
HETATM    7  C6  UNL     1       9.990  23.048  50.229  1.00  0.00     0.382 C 
HETATM    8  C7  UNL     1      10.067  24.229  49.268  1.00  0.00     0.186 C 
HETATM    9  N1  UNL     1       9.362  24.025  48.037  1.00  0.00    -0.385 N 
HETATM   10  C12 UNL     1       9.846  22.908  47.230  1.00  0.00     0.181 C 
HETATM   11  C13 UNL     1      10.534  22.068  48.253  1.00  0.00     0.370 C 
HETATM   12  N2  UNL     1      11.245  20.926  47.790  1.00  0.00    -0.218 N 
HETATM   13  C14 UNL     1      11.355  20.372  46.499  1.00  0.00     0.257 C 
HETATM   14  O2  UNL     1      11.053  21.008  45.459  1.00  0.00    -0.270 OA
HETATM   15  C15 UNL     1      11.861  19.007  46.699  1.00  0.00     0.176 C 
HETATM   16  C22 UNL     1      12.736  19.139  47.928  1.00  0.00     0.235 C 
HETATM   17  N3  UNL     1      12.039  20.138  48.685  1.00  0.00    -0.235 N 
HETATM   18  C24 UNL     1      12.116  20.387  50.114  1.00  0.00     0.272 C 
HETATM   19  O5  UNL     1      13.118  19.911  50.699  1.00  0.00    -0.269 OA
HETATM   20  N4  UNL     1       9.623  21.920  49.334  1.00  0.00     0.168 N 
ENDROOT
BRANCH  16  21
HETATM   21  C23 UNL     1      12.885  17.873  48.626  1.00  0.00     0.200 C 
HETATM   22  O3  UNL     1      12.023  17.074  48.964  1.00  0.00    -0.646 OA
HETATM   23  O4  UNL     1      14.223  17.514  48.962  1.00  0.00    -0.646 OA
ENDBRANCH  16  21
BRANCH   9  24
HETATM   24  C8  UNL     1       8.984  25.161  47.328  1.00  0.00     0.063 C 
BRANCH  24  25
HETATM   25  C9  UNL     1       9.841  25.527  46.152  1.00  0.00     0.024 A 
HETATM   26  C10 UNL     1      10.154  27.033  46.037  1.00  0.00     0.010 A 
HETATM   27  C11 UNL     1      11.221  25.993  46.270  1.00  0.00     0.010 A 
ENDBRANCH  24  25
ENDBRANCH   9  24
BRANCH  15  28
HETATM   28  S1  UNL     1      12.473  18.142  45.351  1.00  0.00    -0.147 SA
BRANCH  28  29
HETATM   29  C16 UNL     1      13.612  16.836  45.477  1.00  0.00     0.048 C 
HETATM   30  C17 UNL     1      13.128  15.654  46.339  1.00  0.00     0.015 C 
HETATM   31  C18 UNL     1      14.336  14.898  46.770  1.00  0.00     0.001 C 
HETATM   32  C19 UNL     1      15.607  15.293  46.096  1.00  0.00     0.000 C 
HETATM   33  C20 UNL     1      15.490  15.534  44.630  1.00  0.00     0.001 C 
HETATM   34  C21 UNL     1      14.180  16.232  44.241  1.00  0.00     0.015 C 
ENDBRANCH  28  29
ENDBRANCH  15  28
TORSDOF 5
ENDMDL
