MODEL 1
REMARK VINA RESULT: -7.469875195      0.000      0.000
REMARK  8 active torsions:
REMARK  status: ('A' for Active; 'I' for Inactive)
REMARK    1  A    between atoms: O1_2  and  C2_3 
REMARK    2  A    between atoms: C2_3  and  C3_4 
REMARK    3  A    between atoms: C3_4  and  N1_5 
REMARK       I    between atoms: N1_5  and  C5_8 
REMARK    4  A    between atoms: C5_8  and  C6_10 
REMARK    5  A    between atoms: C7_11  and  C8_12 
REMARK       I    between atoms: C8_12  and  N3_14 
REMARK    6  A    between atoms: N3_14  and  C9_16 
REMARK       I    between atoms: N5_23  and  C14_24 
REMARK    7  A    between atoms: C14_24  and  O5_26 
REMARK    8  A    between atoms: O5_26  and  C15_27 
REMARK       I    between atoms: N6_34  and  C22_35 
ROOT
HETATM    1  N1  UNL     1      12.205  17.264  47.011  1.00  0.00    -0.247 N 
HETATM    2  C4  UNL     1      12.458  16.925  45.652  1.00  0.00     0.187 C 
HETATM    3  N2  UNL     1      12.645  16.659  44.542  1.00  0.00    -0.172 NA
HETATM    4  C5  UNL     1      11.402  18.425  47.301  1.00  0.00     0.282 C 
HETATM    5  O2  UNL     1      10.990  19.023  46.241  1.00  0.00    -0.265 OA
ENDROOT
BRANCH   1   6
HETATM    6  C3  UNL     1      12.764  16.408  48.014  1.00  0.00     0.170 C 
BRANCH   6   7
HETATM    7  C2  UNL     1      14.257  16.302  47.935  1.00  0.00     0.188 C 
BRANCH   7   8
HETATM    8  O1  UNL     1      14.705  15.123  47.397  1.00  0.00    -0.394 OA
HETATM    9  C1  UNL     1      15.651  15.226  46.408  1.00  0.00     0.201 C 
ENDBRANCH   7   8
ENDBRANCH   6   7
ENDBRANCH   1   6
BRANCH   4  10
HETATM   10  C6  UNL     1      11.050  18.918  48.586  1.00  0.00     0.116 C 
HETATM   11  C7  UNL     1       9.882  19.883  48.686  1.00  0.00     0.238 C 
HETATM   12  N5  UNL     1       9.414  19.675  50.081  1.00  0.00    -0.307 N 
HETATM   13  C14 UNL     1       8.053  19.391  50.261  1.00  0.00     0.364 C 
HETATM   14  C19 UNL     1      10.322  19.764  51.156  1.00  0.00     0.154 C 
HETATM   15  O4  UNL     1       7.619  19.209  51.426  1.00  0.00    -0.238 OA
HETATM   16  C20 UNL     1      11.712  19.196  50.883  1.00  0.00     0.107 C 
HETATM   17  C21 UNL     1      12.626  19.627  51.946  1.00  0.00     0.034 C 
HETATM   18  N6  UNL     1      12.121  19.366  49.503  1.00  0.00    -0.309 N 
HETATM   19  C22 UNL     1      13.320  19.873  49.019  1.00  0.00     0.220 C 
HETATM   20  C23 UNL     1      14.493  20.379  49.756  1.00  0.00     0.117 C 
HETATM   21  O6  UNL     1      13.467  19.925  47.743  1.00  0.00    -0.273 OA
BRANCH  11  22
HETATM   22  C8  UNL     1      10.198  21.290  48.475  1.00  0.00     0.252 C 
HETATM   23  O3  UNL     1      10.716  21.631  47.373  1.00  0.00    -0.270 OA
HETATM   24  N3  UNL     1       9.968  22.285  49.417  1.00  0.00    -0.311 N 
ATOM     25  H3  UNL     1      10.117  21.990  50.383  1.00  0.00     0.170 HD
BRANCH  24  26
HETATM   26  C9  UNL     1       9.609  23.488  49.293  1.00  0.00     0.107 A 
HETATM   27  C10 UNL     1       8.698  24.169  50.054  1.00  0.00     0.048 A 
HETATM   28  C11 UNL     1       8.403  25.485  49.797  1.00  0.00     0.005 A 
HETATM   29  C12 UNL     1       9.023  26.174  48.751  1.00  0.00     0.017 A 
HETATM   30  C13 UNL     1       9.929  25.463  48.011  1.00  0.00     0.089 A 
HETATM   31  N4  UNL     1      10.202  24.187  48.275  1.00  0.00    -0.352 N 
ATOM     32  H4  UNL     1      10.886  23.707  47.690  1.00  0.00     0.166 HD
ENDBRANCH  24  26
ENDBRANCH  11  22
BRANCH  13  33
HETATM   33  O5  UNL     1       7.133  19.296  49.228  1.00  0.00    -0.294 OA
BRANCH  33  34
HETATM   34  C15 UNL     1       6.719  18.096  48.645  1.00  0.00     0.061 C 
HETATM   35  C16 UNL     1       5.828  18.454  47.450  1.00  0.00     0.046 C 
HETATM   36  C17 UNL     1       7.837  17.250  48.120  1.00  0.00     0.046 C 
HETATM   37  C18 UNL     1       5.870  17.252  49.576  1.00  0.00     0.046 C 
ENDBRANCH  33  34
ENDBRANCH  13  33
ENDBRANCH   4  10
TORSDOF 8
ENDMDL
MODEL 2
REMARK VINA RESULT: -7.443102871      2.469      5.901
REMARK  8 active torsions:
REMARK  status: ('A' for Active; 'I' for Inactive)
REMARK    1  A    between atoms: O1_2  and  C2_3 
REMARK    2  A    between atoms: C2_3  and  C3_4 
REMARK    3  A    between atoms: C3_4  and  N1_5 
REMARK       I    between atoms: N1_5  and  C5_8 
REMARK    4  A    between atoms: C5_8  and  C6_10 
REMARK    5  A    between atoms: C7_11  and  C8_12 
REMARK       I    between atoms: C8_12  and  N3_14 
REMARK    6  A    between atoms: N3_14  and  C9_16 
REMARK       I    between atoms: N5_23  and  C14_24 
REMARK    7  A    between atoms: C14_24  and  O5_26 
REMARK    8  A    between atoms: O5_26  and  C15_27 
REMARK       I    between atoms: N6_34  and  C22_35 
ROOT
HETATM    1  N1  UNL     1      12.120  20.171  49.724  1.00  0.00    -0.247 N 
HETATM    2  C4  UNL     1      12.048  19.973  51.132  1.00  0.00     0.187 C 
HETATM    3  N2  UNL     1      11.971  19.825  52.276  1.00  0.00    -0.172 NA
HETATM    4  C5  UNL     1      10.905  20.433  48.995  1.00  0.00     0.282 C 
HETATM    5  O2  UNL     1       9.867  20.468  49.751  1.00  0.00    -0.265 OA
ENDROOT
BRANCH   1   6
HETATM    6  C3  UNL     1      13.418  20.107  49.120  1.00  0.00     0.170 C 
BRANCH   6   7
HETATM    7  C2  UNL     1      14.192  18.885  49.511  1.00  0.00     0.188 C 
BRANCH   7   8
HETATM    8  O1  UNL     1      13.859  17.762  48.799  1.00  0.00    -0.394 OA
HETATM    9  C1  UNL     1      13.637  16.621  49.529  1.00  0.00     0.201 C 
ENDBRANCH   7   8
ENDBRANCH   6   7
ENDBRANCH   1   6
BRANCH   4  10
HETATM   10  C6  UNL     1      10.781  20.649  47.596  1.00  0.00     0.116 C 
HETATM   11  C7  UNL     1       9.530  21.343  47.088  1.00  0.00     0.238 C 
HETATM   12  N5  UNL     1       9.997  21.951  45.814  1.00  0.00    -0.307 N 
HETATM   13  C14 UNL     1       9.763  23.322  45.639  1.00  0.00     0.364 C 
HETATM   14  C19 UNL     1      10.644  21.158  44.844  1.00  0.00     0.154 C 
HETATM   15  O4  UNL     1      10.143  23.872  44.575  1.00  0.00    -0.238 OA
HETATM   16  C20 UNL     1      11.584  20.091  45.396  1.00  0.00     0.107 C 
HETATM   17  C21 UNL     1      11.939  19.157  44.323  1.00  0.00     0.034 C 
HETATM   18  N6  UNL     1      11.133  19.554  46.665  1.00  0.00    -0.309 N 
HETATM   19  C22 UNL     1      11.009  18.222  47.038  1.00  0.00     0.220 C 
HETATM   20  C23 UNL     1      11.289  16.999  46.264  1.00  0.00     0.117 C 
HETATM   21  O6  UNL     1      10.589  17.979  48.228  1.00  0.00    -0.273 OA
BRANCH  11  22
HETATM   22  C8  UNL     1       8.382  20.483  46.834  1.00  0.00     0.252 C 
HETATM   23  O3  UNL     1       8.116  20.171  45.638  1.00  0.00    -0.270 OA
HETATM   24  N3  UNL     1       7.554  19.984  47.833  1.00  0.00    -0.311 N 
ATOM     25  H3  UNL     1       7.399  20.628  48.609  1.00  0.00     0.170 HD
BRANCH  24  26
HETATM   26  C9  UNL     1       6.959  18.878  47.951  1.00  0.00     0.107 A 
HETATM   27  C10 UNL     1       7.339  17.803  48.708  1.00  0.00     0.048 A 
HETATM   28  C11 UNL     1       6.587  16.654  48.737  1.00  0.00     0.005 A 
HETATM   29  C12 UNL     1       5.408  16.543  47.993  1.00  0.00     0.017 A 
HETATM   30  C13 UNL     1       5.058  17.637  47.247  1.00  0.00     0.089 A 
HETATM   31  N4  UNL     1       5.800  18.742  47.233  1.00  0.00    -0.352 N 
ATOM     32  H4  UNL     1       5.490  19.526  46.659  1.00  0.00     0.166 HD
ENDBRANCH  24  26
ENDBRANCH  11  22
BRANCH  13  33
HETATM   33  O5  UNL     1       9.131  24.131  46.571  1.00  0.00    -0.294 OA
BRANCH  33  34
HETATM   34  C15 UNL     1       7.769  24.441  46.555  1.00  0.00     0.061 C 
HETATM   35  C16 UNL     1       7.646  25.934  46.232  1.00  0.00     0.046 C 
HETATM   36  C17 UNL     1       6.981  23.701  45.520  1.00  0.00     0.046 C 
HETATM   37  C18 UNL     1       7.105  24.238  47.904  1.00  0.00     0.046 C 
ENDBRANCH  33  34
ENDBRANCH  13  33
ENDBRANCH   4  10
TORSDOF 8
ENDMDL
MODEL 3
REMARK VINA RESULT: -7.430398395      2.601      6.892
REMARK  8 active torsions:
REMARK  status: ('A' for Active; 'I' for Inactive)
REMARK    1  A    between atoms: O1_2  and  C2_3 
REMARK    2  A    between atoms: C2_3  and  C3_4 
REMARK    3  A    between atoms: C3_4  and  N1_5 
REMARK       I    between atoms: N1_5  and  C5_8 
REMARK    4  A    between atoms: C5_8  and  C6_10 
REMARK    5  A    between atoms: C7_11  and  C8_12 
REMARK       I    between atoms: C8_12  and  N3_14 
REMARK    6  A    between atoms: N3_14  and  C9_16 
REMARK       I    between atoms: N5_23  and  C14_24 
REMARK    7  A    between atoms: C14_24  and  O5_26 
REMARK    8  A    between atoms: O5_26  and  C15_27 
REMARK       I    between atoms: N6_34  and  C22_35 
ROOT
HETATM    1  N1  UNL     1      11.214  24.551  45.375  1.00  0.00    -0.247 N 
HETATM    2  C4  UNL     1      11.318  24.789  43.975  1.00  0.00     0.187 C 
HETATM    3  N2  UNL     1      11.407  24.960  42.835  1.00  0.00    -0.172 NA
HETATM    4  C5  UNL     1      10.742  23.267  45.830  1.00  0.00     0.282 C 
HETATM    5  O2  UNL     1      10.478  22.463  44.864  1.00  0.00    -0.265 OA
ENDROOT
BRANCH   1   6
HETATM    6  C3  UNL     1      11.602  25.617  46.250  1.00  0.00     0.170 C 
BRANCH   6   7
HETATM    7  C2  UNL     1      10.918  26.914  45.941  1.00  0.00     0.188 C 
BRANCH   7   8
HETATM    8  O1  UNL     1       9.748  27.106  46.628  1.00  0.00    -0.394 OA
HETATM    9  C1  UNL     1       8.651  27.451  45.879  1.00  0.00     0.201 C 
ENDBRANCH   7   8
ENDBRANCH   6   7
ENDBRANCH   1   6
BRANCH   4  10
HETATM   10  C6  UNL     1      10.568  22.853  47.177  1.00  0.00     0.116 C 
HETATM   11  C7  UNL     1      10.594  21.364  47.476  1.00  0.00     0.238 C 
HETATM   12  N5  UNL     1      11.026  21.330  48.898  1.00  0.00    -0.307 N 
HETATM   13  C14 UNL     1      12.123  20.517  49.212  1.00  0.00     0.364 C 
HETATM   14  C19 UNL     1      10.342  22.096  49.865  1.00  0.00     0.154 C 
HETATM   15  O4  UNL     1      12.518  20.463  50.403  1.00  0.00    -0.238 OA
HETATM   16  C20 UNL     1       9.875  23.470  49.398  1.00  0.00     0.107 C 
HETATM   17  C21 UNL     1       8.929  24.017  50.376  1.00  0.00     0.034 C 
HETATM   18  N6  UNL     1       9.511  23.486  47.995  1.00  0.00    -0.309 N 
HETATM   19  C22 UNL     1       8.356  23.994  47.412  1.00  0.00     0.220 C 
HETATM   20  C23 UNL     1       7.192  24.643  48.044  1.00  0.00     0.117 C 
HETATM   21  O6  UNL     1       8.250  23.903  46.135  1.00  0.00    -0.273 OA
BRANCH  11  22
HETATM   22  C8  UNL     1       9.327  20.662  47.327  1.00  0.00     0.252 C 
HETATM   23  O3  UNL     1       9.032  20.186  46.193  1.00  0.00    -0.270 OA
HETATM   24  N3  UNL     1       8.412  20.487  48.359  1.00  0.00    -0.311 N 
ATOM     25  H3  UNL     1       8.351  21.276  49.003  1.00  0.00     0.170 HD
BRANCH  24  26
HETATM   26  C9  UNL     1       7.645  19.526  48.643  1.00  0.00     0.107 A 
HETATM   27  C10 UNL     1       7.566  18.843  49.826  1.00  0.00     0.048 A 
HETATM   28  C11 UNL     1       6.678  17.809  49.990  1.00  0.00     0.005 A 
HETATM   29  C12 UNL     1       5.824  17.419  48.954  1.00  0.00     0.017 A 
HETATM   30  C13 UNL     1       5.930  18.124  47.785  1.00  0.00     0.089 A 
HETATM   31  N4  UNL     1       6.797  19.124  47.645  1.00  0.00    -0.352 N 
ATOM     32  H4  UNL     1       6.832  19.614  46.751  1.00  0.00     0.166 HD
ENDBRANCH  24  26
ENDBRANCH  11  22
BRANCH  13  33
HETATM   33  O5  UNL     1      12.818  19.753  48.287  1.00  0.00    -0.294 OA
BRANCH  33  34
HETATM   34  C15 UNL     1      12.728  18.363  48.180  1.00  0.00     0.061 C 
HETATM   35  C16 UNL     1      13.066  17.994  46.732  1.00  0.00     0.046 C 
HETATM   36  C17 UNL     1      13.682  17.616  49.058  1.00  0.00     0.046 C 
HETATM   37  C18 UNL     1      11.326  17.844  48.439  1.00  0.00     0.046 C 
ENDBRANCH  33  34
ENDBRANCH  13  33
ENDBRANCH   4  10
TORSDOF 8
ENDMDL
MODEL 4
REMARK VINA RESULT: -7.342525408      2.236      6.202
REMARK  8 active torsions:
REMARK  status: ('A' for Active; 'I' for Inactive)
REMARK    1  A    between atoms: O1_2  and  C2_3 
REMARK    2  A    between atoms: C2_3  and  C3_4 
REMARK    3  A    between atoms: C3_4  and  N1_5 
REMARK       I    between atoms: N1_5  and  C5_8 
REMARK    4  A    between atoms: C5_8  and  C6_10 
REMARK    5  A    between atoms: C7_11  and  C8_12 
REMARK       I    between atoms: C8_12  and  N3_14 
REMARK    6  A    between atoms: N3_14  and  C9_16 
REMARK       I    between atoms: N5_23  and  C14_24 
REMARK    7  A    between atoms: C14_24  and  O5_26 
REMARK    8  A    between atoms: O5_26  and  C15_27 
REMARK       I    between atoms: N6_34  and  C22_35 
ROOT
HETATM    1  N1  UNL     1       7.399  18.554  48.975  1.00  0.00    -0.247 N 
HETATM    2  C4  UNL     1       6.326  17.884  48.321  1.00  0.00     0.187 C 
HETATM    3  N2  UNL     1       5.455  17.356  47.774  1.00  0.00    -0.172 NA
HETATM    4  C5  UNL     1       8.329  19.317  48.183  1.00  0.00     0.282 C 
HETATM    5  O2  UNL     1       8.046  19.302  46.930  1.00  0.00    -0.265 OA
ENDROOT
BRANCH   1   6
HETATM    6  C3  UNL     1       7.475  18.430  50.401  1.00  0.00     0.170 C 
BRANCH   6   7
HETATM    7  C2  UNL     1       7.453  19.750  51.110  1.00  0.00     0.188 C 
BRANCH   7   8
HETATM    8  O1  UNL     1       8.469  19.914  52.016  1.00  0.00    -0.394 OA
HETATM    9  C1  UNL     1       8.848  21.207  52.278  1.00  0.00     0.201 C 
ENDBRANCH   7   8
ENDBRANCH   6   7
ENDBRANCH   1   6
BRANCH   4  10
HETATM   10  C6  UNL     1       9.456  20.042  48.655  1.00  0.00     0.116 C 
HETATM   11  C7  UNL     1       9.893  21.270  47.878  1.00  0.00     0.238 C 
HETATM   12  N5  UNL     1      10.584  22.078  48.917  1.00  0.00    -0.307 N 
HETATM   13  C14 UNL     1      10.169  23.408  49.071  1.00  0.00     0.364 C 
HETATM   14  C19 UNL     1      11.607  21.503  49.699  1.00  0.00     0.154 C 
HETATM   15  O4  UNL     1      10.729  24.123  49.939  1.00  0.00    -0.238 OA
HETATM   16  C20 UNL     1      11.381  20.049  50.101  1.00  0.00     0.107 C 
HETATM   17  C21 UNL     1      12.631  19.494  50.630  1.00  0.00     0.034 C 
HETATM   18  N6  UNL     1      10.658  19.299  49.092  1.00  0.00    -0.309 N 
HETATM   19  C22 UNL     1      10.978  18.061  48.550  1.00  0.00     0.220 C 
HETATM   20  C23 UNL     1      12.123  17.177  48.835  1.00  0.00     0.117 C 
HETATM   21  O6  UNL     1      10.181  17.581  47.664  1.00  0.00    -0.273 OA
BRANCH  11  22
HETATM   22  C8  UNL     1      10.794  21.029  46.759  1.00  0.00     0.252 C 
HETATM   23  O3  UNL     1      12.013  21.336  46.891  1.00  0.00    -0.270 OA
HETATM   24  N3  UNL     1      10.392  20.483  45.545  1.00  0.00    -0.311 N 
ATOM     25  H3  UNL     1       9.460  20.770  45.245  1.00  0.00     0.170 HD
BRANCH  24  26
HETATM   26  C9  UNL     1      10.973  19.696  44.749  1.00  0.00     0.107 A 
HETATM   27  C10 UNL     1      10.943  19.721  43.381  1.00  0.00     0.048 A 
HETATM   28  C11 UNL     1      11.627  18.790  42.639  1.00  0.00     0.005 A 
HETATM   29  C12 UNL     1      12.377  17.784  43.256  1.00  0.00     0.017 A 
HETATM   30  C13 UNL     1      12.385  17.788  44.625  1.00  0.00     0.089 A 
HETATM   31  N4  UNL     1      11.715  18.700  45.327  1.00  0.00    -0.352 N 
ATOM     32  H4  UNL     1      11.757  18.654  46.345  1.00  0.00     0.166 HD
ENDBRANCH  24  26
ENDBRANCH  11  22
BRANCH  13  33
HETATM   33  O5  UNL     1       9.168  24.004  48.320  1.00  0.00    -0.294 OA
BRANCH  33  34
HETATM   34  C15 UNL     1       9.389  24.788  47.185  1.00  0.00     0.061 C 
HETATM   35  C16 UNL     1       8.943  26.215  47.523  1.00  0.00     0.046 C 
HETATM   36  C17 UNL     1      10.823  24.866  46.761  1.00  0.00     0.046 C 
HETATM   37  C18 UNL     1       8.557  24.349  45.996  1.00  0.00     0.046 C 
ENDBRANCH  33  34
ENDBRANCH  13  33
ENDBRANCH   4  10
TORSDOF 8
ENDMDL
MODEL 5
REMARK VINA RESULT: -7.276961570      1.267      1.707
REMARK  8 active torsions:
REMARK  status: ('A' for Active; 'I' for Inactive)
REMARK    1  A    between atoms: O1_2  and  C2_3 
REMARK    2  A    between atoms: C2_3  and  C3_4 
REMARK    3  A    between atoms: C3_4  and  N1_5 
REMARK       I    between atoms: N1_5  and  C5_8 
REMARK    4  A    between atoms: C5_8  and  C6_10 
REMARK    5  A    between atoms: C7_11  and  C8_12 
REMARK       I    between atoms: C8_12  and  N3_14 
REMARK    6  A    between atoms: N3_14  and  C9_16 
REMARK       I    between atoms: N5_23  and  C14_24 
REMARK    7  A    between atoms: C14_24  and  O5_26 
REMARK    8  A    between atoms: O5_26  and  C15_27 
REMARK       I    between atoms: N6_34  and  C22_35 
ROOT
HETATM    1  N1  UNL     1      12.094  17.312  46.901  1.00  0.00    -0.247 N 
HETATM    2  C4  UNL     1      12.351  16.994  45.537  1.00  0.00     0.187 C 
HETATM    3  N2  UNL     1      12.541  16.747  44.424  1.00  0.00    -0.172 NA
HETATM    4  C5  UNL     1      11.348  18.507  47.208  1.00  0.00     0.282 C 
HETATM    5  O2  UNL     1      10.985  19.152  46.158  1.00  0.00    -0.265 OA
ENDROOT
BRANCH   1   6
HETATM    6  C3  UNL     1      12.592  16.403  47.890  1.00  0.00     0.170 C 
BRANCH   6   7
HETATM    7  C2  UNL     1      14.088  16.361  47.954  1.00  0.00     0.188 C 
BRANCH   7   8
HETATM    8  O1  UNL     1      14.635  15.195  47.486  1.00  0.00    -0.394 OA
HETATM    9  C1  UNL     1      15.529  15.314  46.450  1.00  0.00     0.201 C 
ENDBRANCH   7   8
ENDBRANCH   6   7
ENDBRANCH   1   6
BRANCH   4  10
HETATM   10  C6  UNL     1      11.003  18.986  48.500  1.00  0.00     0.116 C 
HETATM   11  C7  UNL     1       9.835  19.948  48.617  1.00  0.00     0.238 C 
HETATM   12  N5  UNL     1       9.373  19.725  50.011  1.00  0.00    -0.307 N 
HETATM   13  C14 UNL     1       8.014  19.438  50.196  1.00  0.00     0.364 C 
HETATM   14  C19 UNL     1      10.287  19.804  51.083  1.00  0.00     0.154 C 
HETATM   15  O4  UNL     1       7.586  19.242  51.360  1.00  0.00    -0.238 OA
HETATM   16  C20 UNL     1      11.676  19.240  50.797  1.00  0.00     0.107 C 
HETATM   17  C21 UNL     1      12.595  19.660  51.860  1.00  0.00     0.034 C 
HETATM   18  N6  UNL     1      12.078  19.425  49.417  1.00  0.00    -0.309 N 
HETATM   19  C22 UNL     1      13.274  19.938  48.932  1.00  0.00     0.220 C 
HETATM   20  C23 UNL     1      14.450  20.438  49.668  1.00  0.00     0.117 C 
HETATM   21  O6  UNL     1      13.414  20.004  47.656  1.00  0.00    -0.273 OA
BRANCH  11  22
HETATM   22  C8  UNL     1      10.148  21.357  48.419  1.00  0.00     0.252 C 
HETATM   23  O3  UNL     1      10.814  21.957  49.311  1.00  0.00    -0.270 OA
HETATM   24  N3  UNL     1       9.753  22.089  47.305  1.00  0.00    -0.311 N 
ATOM     25  H3  UNL     1       8.833  21.836  46.942  1.00  0.00     0.170 HD
BRANCH  24  26
HETATM   26  C9  UNL     1      10.327  23.010  46.662  1.00  0.00     0.107 A 
HETATM   27  C10 UNL     1      10.801  22.961  45.379  1.00  0.00     0.048 A 
HETATM   28  C11 UNL     1      11.413  24.049  44.807  1.00  0.00     0.005 A 
HETATM   29  C12 UNL     1      11.572  25.244  45.516  1.00  0.00     0.017 A 
HETATM   30  C13 UNL     1      11.087  25.258  46.796  1.00  0.00     0.089 A 
HETATM   31  N4  UNL     1      10.496  24.192  47.333  1.00  0.00    -0.352 N 
ATOM     32  H4  UNL     1      10.153  24.260  48.291  1.00  0.00     0.166 HD
ENDBRANCH  24  26
ENDBRANCH  11  22
BRANCH  13  33
HETATM   33  O5  UNL     1       7.089  19.352  49.166  1.00  0.00    -0.294 OA
BRANCH  33  34
HETATM   34  C15 UNL     1       6.686  18.160  48.560  1.00  0.00     0.061 C 
HETATM   35  C16 UNL     1       5.876  18.533  47.314  1.00  0.00     0.046 C 
HETATM   36  C17 UNL     1       7.815  17.289  48.105  1.00  0.00     0.046 C 
HETATM   37  C18 UNL     1       5.766  17.336  49.440  1.00  0.00     0.046 C 
ENDBRANCH  33  34
ENDBRANCH  13  33
ENDBRANCH   4  10
TORSDOF 8
ENDMDL
