MODEL 1
REMARK VINA RESULT: -8.691215761      0.000      0.000
REMARK  5 active torsions:
REMARK  status: ('A' for Active; 'I' for Inactive)
REMARK    1  A    between atoms: C12_14  and  O3_15 
REMARK    2  A    between atoms: C17_22  and  C18_23 
REMARK    3  A    between atoms: N2_29  and  C21_30 
REMARK    4  A    between atoms: C21_30  and  C22_31 
REMARK    5  A    between atoms: C22_31  and  N3_32 
ROOT
HETATM    1  C1  UNL     1       9.113  23.674  46.479  1.00  0.00     0.037 C 
HETATM    2  C2  UNL     1       9.875  22.540  45.982  1.00  0.00    -0.017 C 
HETATM    3  C3  UNL     1      10.630  21.629  46.598  1.00  0.00     0.001 A 
HETATM    4  C4  UNL     1      10.852  21.622  48.035  1.00  0.00     0.038 A 
HETATM    5  C5  UNL     1      11.633  20.555  48.328  1.00  0.00     0.079 A 
HETATM    6  O1  UNL     1      11.944  20.346  49.699  1.00  0.00    -0.353 OA
HETATM    7  C6  UNL     1      11.164  19.853  50.725  1.00  0.00     0.178 C 
HETATM    8  C7  UNL     1       9.855  19.255  50.376  1.00  0.00     0.065 C 
HETATM    9  C8  UNL     1       8.683  20.188  50.699  1.00  0.00     0.063 A 
HETATM   10  C9  UNL     1       7.473  19.620  51.342  1.00  0.00     0.041 A 
HETATM   11  C10 UNL     1       8.394  20.591  52.074  1.00  0.00     0.041 A 
HETATM   12  O2  UNL     1       8.595  21.066  49.652  1.00  0.00    -0.374 OA
HETATM   13  C11 UNL     1       9.264  22.244  49.914  1.00  0.00     0.234 C 
HETATM   14  C12 UNL     1      10.507  22.499  49.191  1.00  0.00     0.080 C 
HETATM   15  C13 UNL     1      11.994  19.887  47.108  1.00  0.00     0.159 A 
HETATM   16  S1  UNL     1      12.003  18.104  47.009  1.00  0.00    -0.119 SA
HETATM   17  C14 UNL     1      12.823  18.054  45.389  1.00  0.00     0.204 C 
HETATM   18  C15 UNL     1      13.135  16.745  44.877  1.00  0.00    -0.030 C 
HETATM   19  C16 UNL     1      13.609  15.604  45.704  1.00  0.00     0.048 C 
HETATM   20  C17 UNL     1      12.908  16.781  43.568  1.00  0.00     0.084 C 
HETATM   21  C20 UNL     1      12.265  18.097  43.267  1.00  0.00     0.277 C 
HETATM   22  O5  UNL     1      11.973  18.357  42.080  1.00  0.00    -0.265 OA
HETATM   23  N1  UNL     1      12.101  18.839  44.452  1.00  0.00    -0.235 N 
HETATM   24  N2  UNL     1      11.353  20.005  44.765  1.00  0.00    -0.286 N 
HETATM   25  C25 UNL     1      11.300  20.484  45.980  1.00  0.00     0.060 A 
ENDROOT
BRANCH  24  26
HETATM   26  C21 UNL     1      10.679  20.616  43.651  1.00  0.00     0.168 C 
BRANCH  26  27
HETATM   27  C22 UNL     1      11.481  21.660  42.909  1.00  0.00     0.137 C 
BRANCH  27  28
HETATM   28  N3  UNL     1      10.677  22.292  41.912  1.00  0.00    -0.419 N 
HETATM   29  C23 UNL     1       9.539  22.995  42.264  1.00  0.00     0.142 C 
HETATM   30  C24 UNL     1      11.151  22.244  40.597  1.00  0.00     0.142 C 
ENDBRANCH  27  28
ENDBRANCH  26  27
ENDBRANCH  24  26
BRANCH  20  31
HETATM   31  C18 UNL     1      13.103  15.682  42.623  1.00  0.00     0.161 C 
HETATM   32  C19 UNL     1      14.396  15.119  42.241  1.00  0.00     0.097 C 
HETATM   33  O4  UNL     1      12.050  15.186  42.104  1.00  0.00    -0.293 OA
ENDBRANCH  20  31
BRANCH  14  34
HETATM   34  O3  UNL     1      10.715  23.826  48.930  1.00  0.00    -0.362 OA
ATOM     35  H3  UNL     1      10.593  24.375  49.695  1.00  0.00     0.217 HD
ENDBRANCH  14  34
TORSDOF 5
ENDMDL
MODEL 2
REMARK VINA RESULT: -8.321088296      1.694      2.077
REMARK  5 active torsions:
REMARK  status: ('A' for Active; 'I' for Inactive)
REMARK    1  A    between atoms: C12_14  and  O3_15 
REMARK    2  A    between atoms: C17_22  and  C18_23 
REMARK    3  A    between atoms: N2_29  and  C21_30 
REMARK    4  A    between atoms: C21_30  and  C22_31 
REMARK    5  A    between atoms: C22_31  and  N3_32 
ROOT
HETATM    1  C1  UNL     1       9.133  22.338  44.445  1.00  0.00     0.037 C 
HETATM    2  C2  UNL     1      10.044  21.229  44.219  1.00  0.00    -0.017 C 
HETATM    3  C3  UNL     1      10.849  20.550  45.037  1.00  0.00     0.001 A 
HETATM    4  C4  UNL     1      10.971  20.845  46.457  1.00  0.00     0.038 A 
HETATM    5  C5  UNL     1      11.841  19.955  46.991  1.00  0.00     0.079 A 
HETATM    6  O1  UNL     1      12.077  20.051  48.389  1.00  0.00    -0.353 OA
HETATM    7  C6  UNL     1      11.286  19.675  49.455  1.00  0.00     0.178 C 
HETATM    8  C7  UNL     1      10.076  18.869  49.172  1.00  0.00     0.065 C 
HETATM    9  C8  UNL     1       8.791  19.701  49.248  1.00  0.00     0.063 A 
HETATM   10  C9  UNL     1       7.608  19.126  49.935  1.00  0.00     0.041 A 
HETATM   11  C10 UNL     1       8.366  20.322  50.500  1.00  0.00     0.041 A 
HETATM   12  O2  UNL     1       8.681  20.345  48.045  1.00  0.00    -0.374 OA
HETATM   13  C11 UNL     1       9.200  21.622  48.099  1.00  0.00     0.234 C 
HETATM   14  C12 UNL     1      10.454  21.880  47.398  1.00  0.00     0.080 C 
HETATM   15  C13 UNL     1      12.354  19.113  45.946  1.00  0.00     0.159 A 
HETATM   16  S1  UNL     1      12.562  17.358  46.203  1.00  0.00    -0.119 SA
HETATM   17  C14 UNL     1      13.493  17.096  44.665  1.00  0.00     0.204 C 
HETATM   18  C15 UNL     1      13.978  15.760  44.438  1.00  0.00    -0.030 C 
HETATM   19  C16 UNL     1      14.515  14.864  45.497  1.00  0.00     0.048 C 
HETATM   20  C17 UNL     1      13.840  15.518  43.139  1.00  0.00     0.084 C 
HETATM   21  C20 UNL     1      13.081  16.665  42.553  1.00  0.00     0.277 C 
HETATM   22  O5  UNL     1      12.845  16.656  41.326  1.00  0.00    -0.265 OA
HETATM   23  N1  UNL     1      12.756  17.595  43.558  1.00  0.00    -0.235 N 
HETATM   24  N2  UNL     1      11.867  18.703  43.599  1.00  0.00    -0.286 N 
HETATM   25  C25 UNL     1      11.679  19.396  44.691  1.00  0.00     0.060 A 
ENDROOT
BRANCH  24  26
HETATM   26  C21 UNL     1      11.209  19.003  42.356  1.00  0.00     0.168 C 
BRANCH  26  27
HETATM   27  C22 UNL     1      11.856  20.095  41.535  1.00  0.00     0.137 C 
BRANCH  27  28
HETATM   28  N3  UNL     1      11.604  19.891  40.144  1.00  0.00    -0.419 N 
HETATM   29  C23 UNL     1      11.311  18.630  39.658  1.00  0.00     0.142 C 
HETATM   30  C24 UNL     1      11.574  21.032  39.335  1.00  0.00     0.142 C 
ENDBRANCH  27  28
ENDBRANCH  26  27
ENDBRANCH  24  26
BRANCH  20  31
HETATM   31  C18 UNL     1      14.217  14.288  42.441  1.00  0.00     0.161 C 
HETATM   32  C19 UNL     1      13.300  13.209  42.083  1.00  0.00     0.097 C 
HETATM   33  O4  UNL     1      15.447  14.168  42.128  1.00  0.00    -0.293 OA
ENDBRANCH  20  31
BRANCH  14  34
HETATM   34  O3  UNL     1      10.536  23.147  46.888  1.00  0.00    -0.362 OA
ATOM     35  H3  UNL     1       9.701  23.599  46.891  1.00  0.00     0.217 HD
ENDBRANCH  14  34
TORSDOF 5
ENDMDL
MODEL 3
REMARK VINA RESULT: -8.315938483      2.564      5.796
REMARK  5 active torsions:
REMARK  status: ('A' for Active; 'I' for Inactive)
REMARK    1  A    between atoms: C12_14  and  O3_15 
REMARK    2  A    between atoms: C17_22  and  C18_23 
REMARK    3  A    between atoms: N2_29  and  C21_30 
REMARK    4  A    between atoms: C21_30  and  C22_31 
REMARK    5  A    between atoms: C22_31  and  N3_32 
ROOT
HETATM    1  C1  UNL     1      10.193  23.610  49.503  1.00  0.00     0.037 C 
HETATM    2  C2  UNL     1      10.702  22.362  48.961  1.00  0.00    -0.017 C 
HETATM    3  C3  UNL     1      10.551  21.773  47.774  1.00  0.00     0.001 A 
HETATM    4  C4  UNL     1       9.751  22.343  46.701  1.00  0.00     0.038 A 
HETATM    5  C5  UNL     1       9.837  21.512  45.635  1.00  0.00     0.079 A 
HETATM    6  O1  UNL     1       9.146  21.908  44.458  1.00  0.00    -0.353 OA
HETATM    7  C6  UNL     1       9.455  22.875  43.525  1.00  0.00     0.178 C 
HETATM    8  C7  UNL     1      10.793  23.507  43.596  1.00  0.00     0.065 C 
HETATM    9  C8  UNL     1      10.742  24.915  44.199  1.00  0.00     0.063 A 
HETATM   10  C9  UNL     1      11.539  25.993  43.563  1.00  0.00     0.041 A 
HETATM   11  C10 UNL     1      10.014  25.994  43.536  1.00  0.00     0.041 A 
HETATM   12  O2  UNL     1      10.714  24.747  45.557  1.00  0.00    -0.374 OA
HETATM   13  C11 UNL     1       9.426  24.773  46.050  1.00  0.00     0.234 C 
HETATM   14  C12 UNL     1       8.851  23.519  46.526  1.00  0.00     0.080 C 
HETATM   15  C13 UNL     1      10.623  20.364  45.994  1.00  0.00     0.159 A 
HETATM   16  S1  UNL     1      11.820  19.682  44.859  1.00  0.00    -0.119 SA
HETATM   17  C14 UNL     1      12.115  18.183  45.844  1.00  0.00     0.204 C 
HETATM   18  C15 UNL     1      13.015  17.217  45.272  1.00  0.00    -0.030 C 
HETATM   19  C16 UNL     1      13.084  16.876  43.825  1.00  0.00     0.048 C 
HETATM   20  C17 UNL     1      13.739  16.727  46.273  1.00  0.00     0.084 C 
HETATM   21  C20 UNL     1      13.413  17.533  47.489  1.00  0.00     0.277 C 
HETATM   22  O5  UNL     1      13.974  17.237  48.565  1.00  0.00    -0.265 OA
HETATM   23  N1  UNL     1      12.478  18.536  47.170  1.00  0.00    -0.235 N 
HETATM   24  N2  UNL     1      12.025  19.690  47.864  1.00  0.00    -0.286 N 
HETATM   25  C25 UNL     1      11.179  20.529  47.326  1.00  0.00     0.060 A 
ENDROOT
BRANCH  24  26
HETATM   26  C21 UNL     1      12.554  19.852  49.191  1.00  0.00     0.168 C 
BRANCH  26  27
HETATM   27  C22 UNL     1      11.951  18.944  50.238  1.00  0.00     0.137 C 
BRANCH  27  28
HETATM   28  N3  UNL     1      10.933  19.629  50.967  1.00  0.00    -0.419 N 
HETATM   29  C23 UNL     1       9.596  19.399  50.700  1.00  0.00     0.142 C 
HETATM   30  C24 UNL     1      11.356  20.457  52.014  1.00  0.00     0.142 C 
ENDBRANCH  27  28
ENDBRANCH  26  27
ENDBRANCH  24  26
BRANCH  20  31
HETATM   31  C18 UNL     1      14.775  15.700  46.172  1.00  0.00     0.161 C 
HETATM   32  C19 UNL     1      15.974  15.792  45.343  1.00  0.00     0.097 C 
HETATM   33  O4  UNL     1      14.602  14.649  46.874  1.00  0.00    -0.293 OA
ENDBRANCH  20  31
BRANCH  14  34
HETATM   34  O3  UNL     1       7.988  23.685  47.574  1.00  0.00    -0.362 OA
ATOM     35  H3  UNL     1       7.131  23.989  47.300  1.00  0.00     0.217 HD
ENDBRANCH  14  34
TORSDOF 5
ENDMDL
MODEL 4
REMARK VINA RESULT: -8.147232119      2.578      5.600
REMARK  5 active torsions:
REMARK  status: ('A' for Active; 'I' for Inactive)
REMARK    1  A    between atoms: C12_14  and  O3_15 
REMARK    2  A    between atoms: C17_22  and  C18_23 
REMARK    3  A    between atoms: N2_29  and  C21_30 
REMARK    4  A    between atoms: C21_30  and  C22_31 
REMARK    5  A    between atoms: C22_31  and  N3_32 
ROOT
HETATM    1  C1  UNL     1      10.789  22.223  49.118  1.00  0.00     0.037 C 
HETATM    2  C2  UNL     1      11.123  21.147  48.200  1.00  0.00    -0.017 C 
HETATM    3  C3  UNL     1      10.782  20.914  46.931  1.00  0.00     0.001 A 
HETATM    4  C4  UNL     1       9.912  21.796  46.168  1.00  0.00     0.038 A 
HETATM    5  C5  UNL     1       9.799  21.285  44.919  1.00  0.00     0.079 A 
HETATM    6  O1  UNL     1       9.010  22.022  43.996  1.00  0.00    -0.353 OA
HETATM    7  C6  UNL     1       9.287  23.192  43.319  1.00  0.00     0.178 C 
HETATM    8  C7  UNL     1      10.672  23.713  43.371  1.00  0.00     0.065 C 
HETATM    9  C8  UNL     1      10.813  24.902  44.327  1.00  0.00     0.063 A 
HETATM   10  C9  UNL     1      11.617  26.073  43.896  1.00  0.00     0.041 A 
HETATM   11  C10 UNL     1      10.105  26.157  44.081  1.00  0.00     0.041 A 
HETATM   12  O2  UNL     1      10.933  24.371  45.582  1.00  0.00    -0.374 OA
HETATM   13  C11 UNL     1       9.719  24.324  46.237  1.00  0.00     0.234 C 
HETATM   14  C12 UNL     1       9.100  23.017  46.437  1.00  0.00     0.080 C 
HETATM   15  C13 UNL     1      10.522  20.046  44.849  1.00  0.00     0.159 A 
HETATM   16  S1  UNL     1      11.513  19.642  43.420  1.00  0.00    -0.119 SA
HETATM   17  C14 UNL     1      11.795  17.919  43.922  1.00  0.00     0.204 C 
HETATM   18  C15 UNL     1      12.536  17.103  42.996  1.00  0.00    -0.030 C 
HETATM   19  C16 UNL     1      12.403  17.169  41.516  1.00  0.00     0.048 C 
HETATM   20  C17 UNL     1      13.329  16.323  43.722  1.00  0.00     0.084 C 
HETATM   21  C20 UNL     1      13.220  16.779  45.141  1.00  0.00     0.277 C 
HETATM   22  O5  UNL     1      13.877  16.172  46.013  1.00  0.00    -0.265 OA
HETATM   23  N1  UNL     1      12.342  17.876  45.232  1.00  0.00    -0.235 N 
HETATM   24  N2  UNL     1      12.074  18.817  46.262  1.00  0.00    -0.286 N 
HETATM   25  C25 UNL     1      11.245  19.812  46.088  1.00  0.00     0.060 A 
ENDROOT
BRANCH  24  26
HETATM   26  C21 UNL     1      12.770  18.582  47.499  1.00  0.00     0.168 C 
BRANCH  26  27
HETATM   27  C22 UNL     1      12.046  17.693  48.484  1.00  0.00     0.137 C 
BRANCH  27  28
HETATM   28  N3  UNL     1      12.756  17.636  49.721  1.00  0.00    -0.419 N 
HETATM   29  C23 UNL     1      13.660  16.621  49.971  1.00  0.00     0.142 C 
HETATM   30  C24 UNL     1      12.562  18.701  50.608  1.00  0.00     0.142 C 
ENDBRANCH  27  28
ENDBRANCH  26  27
ENDBRANCH  24  26
BRANCH  20  31
HETATM   31  C18 UNL     1      14.256  15.312  43.211  1.00  0.00     0.161 C 
HETATM   32  C19 UNL     1      13.888  14.191  42.350  1.00  0.00     0.097 C 
HETATM   33  O4  UNL     1      15.477  15.438  43.553  1.00  0.00    -0.293 OA
ENDBRANCH  20  31
BRANCH  14  34
HETATM   34  O3  UNL     1       8.385  22.933  47.600  1.00  0.00    -0.362 OA
ATOM     35  H3  UNL     1       7.446  22.965  47.458  1.00  0.00     0.217 HD
ENDBRANCH  14  34
TORSDOF 5
ENDMDL
MODEL 5
REMARK VINA RESULT: -7.796673304      2.529      5.683
REMARK  5 active torsions:
REMARK  status: ('A' for Active; 'I' for Inactive)
REMARK    1  A    between atoms: C12_14  and  O3_15 
REMARK    2  A    between atoms: C17_22  and  C18_23 
REMARK    3  A    between atoms: N2_29  and  C21_30 
REMARK    4  A    between atoms: C21_30  and  C22_31 
REMARK    5  A    between atoms: C22_31  and  N3_32 
ROOT
HETATM    1  C1  UNL     1      10.140  23.372  50.760  1.00  0.00     0.037 C 
HETATM    2  C2  UNL     1      10.448  22.359  49.764  1.00  0.00    -0.017 C 
HETATM    3  C3  UNL     1      10.132  22.245  48.473  1.00  0.00     0.001 A 
HETATM    4  C4  UNL     1       9.322  23.225  47.766  1.00  0.00     0.038 A 
HETATM    5  C5  UNL     1       9.219  22.822  46.477  1.00  0.00     0.079 A 
HETATM    6  O1  UNL     1       8.488  23.667  45.599  1.00  0.00    -0.353 OA
HETATM    7  C6  UNL     1       8.834  24.873  45.027  1.00  0.00     0.178 C 
HETATM    8  C7  UNL     1      10.240  25.323  45.152  1.00  0.00     0.065 C 
HETATM    9  C8  UNL     1      10.409  26.424  46.205  1.00  0.00     0.063 A 
HETATM   10  C9  UNL     1      11.275  27.587  45.889  1.00  0.00     0.041 A 
HETATM   11  C10 UNL     1       9.764  27.726  46.046  1.00  0.00     0.041 A 
HETATM   12  O2  UNL     1      10.471  25.788  47.415  1.00  0.00    -0.374 OA
HETATM   13  C11 UNL     1       9.240  25.746  48.036  1.00  0.00     0.234 C 
HETATM   14  C12 UNL     1       8.558  24.457  48.115  1.00  0.00     0.080 C 
HETATM   15  C13 UNL     1       9.887  21.560  46.323  1.00  0.00     0.159 A 
HETATM   16  S1  UNL     1      10.896  21.227  44.888  1.00  0.00    -0.119 SA
HETATM   17  C14 UNL     1      11.088  19.457  45.254  1.00  0.00     0.204 C 
HETATM   18  C15 UNL     1      11.815  18.684  44.281  1.00  0.00    -0.030 C 
HETATM   19  C16 UNL     1      11.724  18.876  42.809  1.00  0.00     0.048 C 
HETATM   20  C17 UNL     1      12.553  17.812  44.959  1.00  0.00     0.084 C 
HETATM   21  C20 UNL     1      12.428  18.158  46.408  1.00  0.00     0.277 C 
HETATM   22  O5  UNL     1      13.034  17.452  47.241  1.00  0.00    -0.265 OA
HETATM   23  N1  UNL     1      11.598  19.284  46.568  1.00  0.00    -0.235 N 
HETATM   24  N2  UNL     1      11.345  20.150  47.665  1.00  0.00    -0.286 N 
HETATM   25  C25 UNL     1      10.566  21.194  47.554  1.00  0.00     0.060 A 
ENDROOT
BRANCH  24  26
HETATM   26  C21 UNL     1      11.997  19.785  48.894  1.00  0.00     0.168 C 
BRANCH  26  27
HETATM   27  C22 UNL     1      11.275  18.744  49.719  1.00  0.00     0.137 C 
BRANCH  27  28
HETATM   28  N3  UNL     1      10.943  19.268  51.005  1.00  0.00    -0.419 N 
HETATM   29  C23 UNL     1      11.931  19.713  51.862  1.00  0.00     0.142 C 
HETATM   30  C24 UNL     1       9.581  19.393  51.302  1.00  0.00     0.142 C 
ENDBRANCH  27  28
ENDBRANCH  26  27
ENDBRANCH  24  26
BRANCH  20  31
HETATM   31  C18 UNL     1      13.447  16.804  44.388  1.00  0.00     0.161 C 
HETATM   32  C19 UNL     1      13.137  15.959  43.238  1.00  0.00     0.097 C 
HETATM   33  O4  UNL     1      14.583  16.669  44.952  1.00  0.00    -0.293 OA
ENDBRANCH  20  31
BRANCH  14  34
HETATM   34  O3  UNL     1       7.810  24.313  49.251  1.00  0.00    -0.362 OA
ATOM     35  H3  UNL     1       8.339  24.278  50.038  1.00  0.00     0.217 HD
ENDBRANCH  14  34
TORSDOF 5
ENDMDL
