MODEL 1
REMARK VINA RESULT: -7.342309172      0.000      0.000
REMARK  5 active torsions:
REMARK  status: ('A' for Active; 'I' for Inactive)
REMARK    1  A    between atoms: O1_2  and  C2_3 
REMARK    2  A    between atoms: C2_3  and  C3_4 
REMARK    3  A    between atoms: C3_4  and  C4_5 
REMARK    4  A    between atoms: C4_5  and  C5_6 
REMARK       I    between atoms: N3_12  and  C7_14 
REMARK       I    between atoms: C7_14  and  N4_16 
REMARK       I    between atoms: N5_20  and  C11_21 
REMARK    5  A    between atoms: C11_21  and  C12_23 
ROOT
HETATM    1  C5  UNL     1      30.491   6.635  62.697  1.00  0.00     0.070 A 
HETATM    2  N1  UNL     1      30.316   5.481  63.322  1.00  0.00    -0.296 N 
ATOM      3  H1  UNL     1      29.374   5.109  63.445  1.00  0.00     0.187 HD
HETATM    4  N2  UNL     1      31.312   4.835  63.770  1.00  0.00    -0.279 N 
ATOM      5  H2  UNL     1      31.182   3.947  64.254  1.00  0.00     0.189 HD
HETATM    6  C6  UNL     1      32.538   5.345  63.592  1.00  0.00     0.169 A 
HETATM    7  N3  UNL     1      33.675   4.816  63.987  1.00  0.00    -0.288 N 
ATOM      8  H3  UNL     1      33.714   3.927  64.484  1.00  0.00     0.172 HD
HETATM    9  C7  UNL     1      34.860   5.564  63.675  1.00  0.00     0.324 C 
HETATM   10  O2  UNL     1      35.281   6.347  64.574  1.00  0.00    -0.247 OA
HETATM   11  N4  UNL     1      35.505   5.424  62.435  1.00  0.00    -0.332 N 
HETATM   12  C8  UNL     1      34.910   4.491  61.502  1.00  0.00     0.129 C 
HETATM   13  C9  UNL     1      36.018   3.903  60.622  1.00  0.00     0.040 C 
HETATM   14  C10 UNL     1      37.030   3.242  61.503  1.00  0.00     0.127 C 
HETATM   15  N5  UNL     1      38.035   4.122  62.043  1.00  0.00    -0.347 N 
HETATM   16  C11 UNL     1      39.356   3.620  61.976  1.00  0.00     0.274 C 
HETATM   17  O3  UNL     1      39.458   2.444  61.448  1.00  0.00    -0.268 OA
HETATM   18  C13 UNL     1      37.889   5.415  62.656  1.00  0.00     0.145 C 
HETATM   19  C14 UNL     1      36.682   6.201  62.190  1.00  0.00     0.147 C 
HETATM   20  S1  UNL     1      32.190   6.795  62.756  1.00  0.00    -0.038 SA
ENDROOT
BRANCH   1  21
HETATM   21  C4  UNL     1      29.459   7.556  62.094  1.00  0.00     0.068 C 
BRANCH  21  22
HETATM   22  C3  UNL     1      28.108   7.010  62.528  1.00  0.00     0.033 C 
BRANCH  22  23
HETATM   23  C2  UNL     1      27.206   8.094  63.033  1.00  0.00     0.167 C 
BRANCH  23  24
HETATM   24  O1  UNL     1      27.889   9.259  63.274  1.00  0.00    -0.396 OA
HETATM   25  C1  UNL     1      28.153   9.533  64.592  1.00  0.00     0.201 C 
ENDBRANCH  23  24
ENDBRANCH  22  23
ENDBRANCH  21  22
ENDBRANCH   1  21
BRANCH  16  26
HETATM   26  C12 UNL     1      40.591   4.265  62.425  1.00  0.00     0.269 C 
HETATM   27 CL1  UNL     1      40.908   5.847  61.705  1.00  0.00    -0.073 Cl
HETATM   28 CL2  UNL     1      40.517   4.402  64.219  1.00  0.00    -0.073 Cl
HETATM   29 CL3  UNL     1      41.984   3.223  61.981  1.00  0.00    -0.073 Cl
ENDBRANCH  16  26
TORSDOF 5
ENDMDL
MODEL 2
REMARK VINA RESULT: -7.298018080      1.969      2.402
REMARK  5 active torsions:
REMARK  status: ('A' for Active; 'I' for Inactive)
REMARK    1  A    between atoms: O1_2  and  C2_3 
REMARK    2  A    between atoms: C2_3  and  C3_4 
REMARK    3  A    between atoms: C3_4  and  C4_5 
REMARK    4  A    between atoms: C4_5  and  C5_6 
REMARK       I    between atoms: N3_12  and  C7_14 
REMARK       I    between atoms: C7_14  and  N4_16 
REMARK       I    between atoms: N5_20  and  C11_21 
REMARK    5  A    between atoms: C11_21  and  C12_23 
ROOT
HETATM    1  C5  UNL     1      31.359   6.583  63.918  1.00  0.00     0.070 A 
HETATM    2  N1  UNL     1      31.257   5.520  64.700  1.00  0.00    -0.296 N 
ATOM      3  H1  UNL     1      30.397   5.356  65.223  1.00  0.00     0.187 HD
HETATM    4  N2  UNL     1      32.223   4.703  64.803  1.00  0.00    -0.279 N 
ATOM      5  H2  UNL     1      32.150   3.884  65.406  1.00  0.00     0.189 HD
HETATM    6  C6  UNL     1      33.339   4.941  64.102  1.00  0.00     0.169 A 
HETATM    7  N3  UNL     1      34.430   4.207  64.087  1.00  0.00    -0.288 N 
ATOM      8  H3  UNL     1      34.514   3.352  64.637  1.00  0.00     0.172 HD
HETATM    9  C7  UNL     1      35.497   4.680  63.250  1.00  0.00     0.324 C 
HETATM   10  O2  UNL     1      36.372   5.399  63.812  1.00  0.00    -0.247 OA
HETATM   11  N4  UNL     1      35.551   4.354  61.885  1.00  0.00    -0.332 N 
HETATM   12  C8  UNL     1      34.480   3.523  61.379  1.00  0.00     0.129 C 
HETATM   13  C9  UNL     1      35.018   2.679  60.218  1.00  0.00     0.040 C 
HETATM   14  C10 UNL     1      36.172   1.864  60.713  1.00  0.00     0.127 C 
HETATM   15  N5  UNL     1      37.443   2.542  60.708  1.00  0.00    -0.347 N 
HETATM   16  C11 UNL     1      38.517   1.776  60.197  1.00  0.00     0.274 C 
HETATM   17  O3  UNL     1      38.195   0.581  59.820  1.00  0.00    -0.268 OA
HETATM   18  C13 UNL     1      37.781   3.864  61.164  1.00  0.00     0.145 C 
HETATM   19  C14 UNL     1      36.642   4.860  61.109  1.00  0.00     0.147 C 
HETATM   20  S1  UNL     1      32.937   6.392  63.293  1.00  0.00    -0.038 SA
ENDROOT
BRANCH   1  21
HETATM   21  C4  UNL     1      30.345   7.669  63.653  1.00  0.00     0.068 C 
BRANCH  21  22
HETATM   22  C3  UNL     1      29.678   7.303  62.336  1.00  0.00     0.033 C 
BRANCH  22  23
HETATM   23  C2  UNL     1      28.235   6.947  62.524  1.00  0.00     0.167 C 
BRANCH  23  24
HETATM   24  O1  UNL     1      28.032   5.591  62.493  1.00  0.00    -0.396 OA
HETATM   25  C1  UNL     1      29.014   4.856  61.879  1.00  0.00     0.201 C 
ENDBRANCH  23  24
ENDBRANCH  22  23
ENDBRANCH  21  22
ENDBRANCH   1  21
BRANCH  16  26
HETATM   26  C12 UNL     1      39.919   2.172  60.048  1.00  0.00     0.269 C 
HETATM   27 CL1  UNL     1      40.184   3.608  59.053  1.00  0.00    -0.073 Cl
HETATM   28 CL2  UNL     1      40.595   2.426  61.697  1.00  0.00    -0.073 Cl
HETATM   29 CL3  UNL     1      40.817   0.837  59.252  1.00  0.00    -0.073 Cl
ENDBRANCH  16  26
TORSDOF 5
ENDMDL
MODEL 3
REMARK VINA RESULT: -7.119574923      1.325      1.681
REMARK  5 active torsions:
REMARK  status: ('A' for Active; 'I' for Inactive)
REMARK    1  A    between atoms: O1_2  and  C2_3 
REMARK    2  A    between atoms: C2_3  and  C3_4 
REMARK    3  A    between atoms: C3_4  and  C4_5 
REMARK    4  A    between atoms: C4_5  and  C5_6 
REMARK       I    between atoms: N3_12  and  C7_14 
REMARK       I    between atoms: C7_14  and  N4_16 
REMARK       I    between atoms: N5_20  and  C11_21 
REMARK    5  A    between atoms: C11_21  and  C12_23 
ROOT
HETATM    1  C5  UNL     1      31.317   6.644  63.877  1.00  0.00     0.070 A 
HETATM    2  N1  UNL     1      31.104   5.426  64.348  1.00  0.00    -0.296 N 
ATOM      3  H1  UNL     1      30.151   5.118  64.545  1.00  0.00     0.187 HD
HETATM    4  N2  UNL     1      32.076   4.637  64.555  1.00  0.00    -0.279 N 
ATOM      5  H2  UNL     1      31.917   3.698  64.920  1.00  0.00     0.189 HD
HETATM    6  C6  UNL     1      33.316   5.065  64.286  1.00  0.00     0.169 A 
HETATM    7  N3  UNL     1      34.433   4.389  64.438  1.00  0.00    -0.288 N 
ATOM      8  H3  UNL     1      34.442   3.432  64.793  1.00  0.00     0.172 HD
HETATM    9  C7  UNL     1      35.641   5.076  64.077  1.00  0.00     0.324 C 
HETATM   10  O2  UNL     1      36.248   5.671  65.013  1.00  0.00    -0.247 OA
HETATM   11  N4  UNL     1      36.109   5.079  62.753  1.00  0.00    -0.332 N 
HETATM   12  C8  UNL     1      35.310   4.356  61.786  1.00  0.00     0.129 C 
HETATM   13  C9  UNL     1      36.234   3.823  60.686  1.00  0.00     0.040 C 
HETATM   14  C10 UNL     1      37.275   2.950  61.314  1.00  0.00     0.127 C 
HETATM   15  N5  UNL     1      38.424   3.649  61.831  1.00  0.00    -0.347 N 
HETATM   16  C11 UNL     1      39.668   3.057  61.511  1.00  0.00     0.274 C 
HETATM   17  O3  UNL     1      39.582   1.973  60.809  1.00  0.00    -0.268 OA
HETATM   18  C13 UNL     1      38.488   4.838  62.639  1.00  0.00     0.145 C 
HETATM   19  C14 UNL     1      37.320   5.784  62.462  1.00  0.00     0.147 C 
HETATM   20  S1  UNL     1      33.018   6.652  63.723  1.00  0.00    -0.038 SA
ENDROOT
BRANCH   1  21
HETATM   21  C4  UNL     1      30.319   7.731  63.562  1.00  0.00     0.068 C 
BRANCH  21  22
HETATM   22  C3  UNL     1      29.604   7.284  62.296  1.00  0.00     0.033 C 
BRANCH  22  23
HETATM   23  C2  UNL     1      28.177   6.914  62.565  1.00  0.00     0.167 C 
BRANCH  23  24
HETATM   24  O1  UNL     1      27.970   5.562  62.464  1.00  0.00    -0.396 OA
HETATM   25  C1  UNL     1      28.946   4.857  61.808  1.00  0.00     0.201 C 
ENDBRANCH  23  24
ENDBRANCH  22  23
ENDBRANCH  21  22
ENDBRANCH   1  21
BRANCH  16  26
HETATM   26  C12 UNL     1      41.009   3.519  61.873  1.00  0.00     0.269 C 
HETATM   27 CL1  UNL     1      41.329   5.221  61.520  1.00  0.00    -0.073 Cl
HETATM   28 CL2  UNL     1      41.246   3.192  63.627  1.00  0.00    -0.073 Cl
HETATM   29 CL3  UNL     1      42.218   2.577  60.939  1.00  0.00    -0.073 Cl
ENDBRANCH  16  26
TORSDOF 5
ENDMDL
MODEL 4
REMARK VINA RESULT: -7.091168429      0.777      1.055
REMARK  5 active torsions:
REMARK  status: ('A' for Active; 'I' for Inactive)
REMARK    1  A    between atoms: O1_2  and  C2_3 
REMARK    2  A    between atoms: C2_3  and  C3_4 
REMARK    3  A    between atoms: C3_4  and  C4_5 
REMARK    4  A    between atoms: C4_5  and  C5_6 
REMARK       I    between atoms: N3_12  and  C7_14 
REMARK       I    between atoms: C7_14  and  N4_16 
REMARK       I    between atoms: N5_20  and  C11_21 
REMARK    5  A    between atoms: C11_21  and  C12_23 
ROOT
HETATM    1  C5  UNL     1      31.044   7.113  63.384  1.00  0.00     0.070 A 
HETATM    2  N1  UNL     1      30.710   5.896  63.783  1.00  0.00    -0.296 N 
ATOM      3  H1  UNL     1      29.726   5.643  63.868  1.00  0.00     0.187 HD
HETATM    4  N2  UNL     1      31.607   5.042  64.060  1.00  0.00    -0.279 N 
ATOM      5  H2  UNL     1      31.355   4.104  64.370  1.00  0.00     0.189 HD
HETATM    6  C6  UNL     1      32.892   5.400  63.936  1.00  0.00     0.169 A 
HETATM    7  N3  UNL     1      33.945   4.651  64.177  1.00  0.00    -0.288 N 
ATOM      8  H3  UNL     1      33.859   3.685  64.494  1.00  0.00     0.172 HD
HETATM    9  C7  UNL     1      35.222   5.272  63.969  1.00  0.00     0.324 C 
HETATM   10  O2  UNL     1      35.761   5.797  64.985  1.00  0.00    -0.247 OA
HETATM   11  N4  UNL     1      35.826   5.288  62.701  1.00  0.00    -0.332 N 
HETATM   12  C8  UNL     1      35.093   4.647  61.630  1.00  0.00     0.129 C 
HETATM   13  C9  UNL     1      36.095   4.092  60.612  1.00  0.00     0.040 C 
HETATM   14  C10 UNL     1      37.010   3.137  61.310  1.00  0.00     0.127 C 
HETATM   15  N5  UNL     1      38.137   3.746  61.970  1.00  0.00    -0.347 N 
HETATM   16  C11 UNL     1      39.371   3.087  61.757  1.00  0.00     0.274 C 
HETATM   17  O3  UNL     1      39.296   2.034  61.010  1.00  0.00    -0.268 OA
HETATM   18  C13 UNL     1      38.186   4.902  62.825  1.00  0.00     0.145 C 
HETATM   19  C14 UNL     1      37.101   5.925  62.565  1.00  0.00     0.147 C 
HETATM   20  S1  UNL     1      32.749   7.020  63.407  1.00  0.00    -0.038 SA
ENDROOT
BRANCH   1  21
HETATM   21  C4  UNL     1      30.150   8.270  63.009  1.00  0.00     0.068 C 
BRANCH  21  22
HETATM   22  C3  UNL     1      29.121   8.379  64.123  1.00  0.00     0.033 C 
BRANCH  22  23
HETATM   23  C2  UNL     1      28.094   9.430  63.830  1.00  0.00     0.167 C 
BRANCH  23  24
HETATM   24  O1  UNL     1      27.148   8.990  62.940  1.00  0.00    -0.396 OA
HETATM   25  C1  UNL     1      26.987   7.630  62.866  1.00  0.00     0.201 C 
ENDBRANCH  23  24
ENDBRANCH  22  23
ENDBRANCH  21  22
ENDBRANCH   1  21
BRANCH  16  26
HETATM   26  C12 UNL     1      40.691   3.453  62.274  1.00  0.00     0.269 C 
HETATM   27 CL1  UNL     1      41.196   5.109  61.919  1.00  0.00    -0.073 Cl
HETATM   28 CL2  UNL     1      40.681   3.173  64.052  1.00  0.00    -0.073 Cl
HETATM   29 CL3  UNL     1      41.923   2.383  61.525  1.00  0.00    -0.073 Cl
ENDBRANCH  16  26
TORSDOF 5
ENDMDL
MODEL 5
REMARK VINA RESULT: -7.013343432      1.998      2.434
REMARK  5 active torsions:
REMARK  status: ('A' for Active; 'I' for Inactive)
REMARK    1  A    between atoms: O1_2  and  C2_3 
REMARK    2  A    between atoms: C2_3  and  C3_4 
REMARK    3  A    between atoms: C3_4  and  C4_5 
REMARK    4  A    between atoms: C4_5  and  C5_6 
REMARK       I    between atoms: N3_12  and  C7_14 
REMARK       I    between atoms: C7_14  and  N4_16 
REMARK       I    between atoms: N5_20  and  C11_21 
REMARK    5  A    between atoms: C11_21  and  C12_23 
ROOT
HETATM    1  C5  UNL     1      30.924   6.570  61.893  1.00  0.00     0.070 A 
HETATM    2  N1  UNL     1      31.171   7.625  62.653  1.00  0.00    -0.296 N 
ATOM      3  H1  UNL     1      30.399   8.200  62.989  1.00  0.00     0.187 HD
HETATM    4  N2  UNL     1      32.363   7.925  62.967  1.00  0.00    -0.279 N 
ATOM      5  H2  UNL     1      32.560   8.738  63.551  1.00  0.00     0.189 HD
HETATM    6  C6  UNL     1      33.359   7.151  62.515  1.00  0.00     0.169 A 
HETATM    7  N3  UNL     1      34.644   7.310  62.739  1.00  0.00    -0.288 N 
ATOM      8  H3  UNL     1      35.002   8.078  63.308  1.00  0.00     0.172 HD
HETATM    9  C7  UNL     1      35.515   6.340  62.137  1.00  0.00     0.324 C 
HETATM   10  O2  UNL     1      35.999   6.647  61.010  1.00  0.00    -0.247 OA
HETATM   11  N4  UNL     1      35.802   5.123  62.775  1.00  0.00    -0.332 N 
HETATM   12  C8  UNL     1      35.176   4.908  64.063  1.00  0.00     0.129 C 
HETATM   13  C9  UNL     1      36.090   4.019  64.912  1.00  0.00     0.040 C 
HETATM   14  C10 UNL     1      37.422   4.688  65.044  1.00  0.00     0.127 C 
HETATM   15  N5  UNL     1      38.334   4.450  63.955  1.00  0.00    -0.347 N 
HETATM   16  C11 UNL     1      39.657   4.145  64.349  1.00  0.00     0.274 C 
HETATM   17  O3  UNL     1      39.848   4.134  65.628  1.00  0.00    -0.268 OA
HETATM   18  C13 UNL     1      38.102   4.502  62.535  1.00  0.00     0.145 C 
HETATM   19  C14 UNL     1      36.678   4.202  62.118  1.00  0.00     0.147 C 
HETATM   20  S1  UNL     1      32.501   5.976  61.617  1.00  0.00    -0.038 SA
ENDROOT
BRANCH   1  21
HETATM   21  C4  UNL     1      29.598   6.039  61.405  1.00  0.00     0.068 C 
BRANCH  21  22
HETATM   22  C3  UNL     1      28.652   6.125  62.593  1.00  0.00     0.033 C 
BRANCH  22  23
HETATM   23  C2  UNL     1      27.656   7.232  62.430  1.00  0.00     0.167 C 
BRANCH  23  24
HETATM   24  O1  UNL     1      28.229   8.467  62.592  1.00  0.00    -0.396 OA
HETATM   25  C1  UNL     1      28.079   9.037  63.830  1.00  0.00     0.201 C 
ENDBRANCH  23  24
ENDBRANCH  22  23
ENDBRANCH  21  22
ENDBRANCH   1  21
BRANCH  16  26
HETATM   26  C12 UNL     1      40.809   3.846  63.495  1.00  0.00     0.269 C 
HETATM   27 CL1  UNL     1      40.455   2.815  62.104  1.00  0.00    -0.073 Cl
HETATM   28 CL2  UNL     1      41.506   5.412  62.948  1.00  0.00    -0.073 Cl
HETATM   29 CL3  UNL     1      42.039   2.971  64.467  1.00  0.00    -0.073 Cl
ENDBRANCH  16  26
TORSDOF 5
ENDMDL
