MODEL 1
REMARK VINA RESULT: -7.585212140      0.000      0.000
REMARK  8 active torsions:
REMARK  status: ('A' for Active; 'I' for Inactive)
REMARK    1  A    between atoms: C2_2  and  O1_3 
REMARK    2  A    between atoms: O1_3  and  C3_4 
REMARK       I    between atoms: C3_4  and  N1_6 
REMARK    3  A    between atoms: C4_7  and  C5_8 
REMARK    4  A    between atoms: C5_8  and  C6_10 
REMARK    5  A    between atoms: N3_15  and  C7_16 
REMARK    6  A    between atoms: C7_16  and  C8_17 
REMARK    7  A    between atoms: C8_17  and  C9_18 
REMARK    8  A    between atoms: C9_18  and  C10_20 
REMARK       I    between atoms: N4_24  and  C14_26 
ROOT
HETATM    1  C3  UNL     1      46.280   7.033  64.983  1.00  0.00     0.365 C 
HETATM    2  O2  UNL     1      47.182   6.351  65.539  1.00  0.00    -0.238 OA
HETATM    3  N1  UNL     1      45.205   6.481  64.245  1.00  0.00    -0.290 N 
HETATM    4  C4  UNL     1      44.238   7.341  63.643  1.00  0.00     0.284 C 
HETATM    5  N2  UNL     1      42.879   6.828  63.840  1.00  0.00    -0.103 NA
HETATM    6  N3  UNL     1      42.785   5.475  63.670  1.00  0.00    -0.279 N 
HETATM    7  C16 UNL     1      43.870   4.615  63.364  1.00  0.00     0.176 C 
HETATM    8  C17 UNL     1      45.092   5.053  64.132  1.00  0.00     0.050 C 
HETATM    9  C18 UNL     1      46.276   4.399  63.439  1.00  0.00     0.040 C 
HETATM   10  C19 UNL     1      45.041   4.407  65.523  1.00  0.00     0.040 C 
ENDROOT
BRANCH   6  11
HETATM   11  C7  UNL     1      41.453   4.864  63.813  1.00  0.00     0.104 C 
HETATM   12  N4  UNL     1      41.324   4.192  64.856  1.00  0.00    -0.316 N 
HETATM   13  C14 UNL     1      40.465   3.436  65.555  1.00  0.00     0.218 C 
ATOM     14  H4  UNL     1      42.204   4.233  65.372  1.00  0.00     0.170 HD
HETATM   15  C15 UNL     1      39.951   3.898  66.892  1.00  0.00     0.117 C 
HETATM   16  O5  UNL     1      40.028   2.321  65.179  1.00  0.00    -0.274 OA
BRANCH  11  17
HETATM   17  C8  UNL     1      40.510   5.126  62.721  1.00  0.00     0.157 C 
BRANCH  17  18
HETATM   18  C9  UNL     1      39.381   4.232  62.543  1.00  0.00     0.141 C 
HETATM   19  O4  UNL     1      39.572   3.062  62.260  1.00  0.00    -0.297 OA
BRANCH  18  20
HETATM   20  C10 UNL     1      37.962   4.667  62.691  1.00  0.00     0.010 C 
HETATM   21  C11 UNL     1      37.014   3.641  62.060  1.00  0.00     0.022 C 
HETATM   22  C12 UNL     1      37.517   4.816  64.114  1.00  0.00     0.022 C 
HETATM   23  C13 UNL     1      37.777   5.969  61.954  1.00  0.00     0.022 C 
ENDBRANCH  18  20
ENDBRANCH  17  18
ENDBRANCH  11  17
ENDBRANCH   6  11
BRANCH   4  24
HETATM   24  C5  UNL     1      44.417   7.605  62.207  1.00  0.00     0.272 C 
HETATM   25  O3  UNL     1      45.560   7.458  61.737  1.00  0.00    -0.284 OA
BRANCH  24  26
HETATM   26  C6  UNL     1      43.392   8.024  61.245  1.00  0.00     0.454 C 
HETATM   27  F1  UNL     1      44.065   8.531  60.119  1.00  0.00    -0.163 F 
HETATM   28  F2  UNL     1      42.558   7.048  60.797  1.00  0.00    -0.163 F 
HETATM   29  F3  UNL     1      42.634   9.089  61.713  1.00  0.00    -0.163 F 
ENDBRANCH  24  26
ENDBRANCH   4  24
BRANCH   1  30
HETATM   30  O1  UNL     1      46.417   8.422  65.151  1.00  0.00    -0.304 OA
BRANCH  30  31
HETATM   31  C2  UNL     1      46.812   8.973  66.388  1.00  0.00     0.176 C 
HETATM   32  C1  UNL     1      47.593  10.236  66.097  1.00  0.00     0.034 C 
ENDBRANCH  30  31
ENDBRANCH   1  30
TORSDOF 8
ENDMDL
MODEL 2
REMARK VINA RESULT: -7.463904788      1.150      1.375
REMARK  8 active torsions:
REMARK  status: ('A' for Active; 'I' for Inactive)
REMARK    1  A    between atoms: C2_2  and  O1_3 
REMARK    2  A    between atoms: O1_3  and  C3_4 
REMARK       I    between atoms: C3_4  and  N1_6 
REMARK    3  A    between atoms: C4_7  and  C5_8 
REMARK    4  A    between atoms: C5_8  and  C6_10 
REMARK    5  A    between atoms: N3_15  and  C7_16 
REMARK    6  A    between atoms: C7_16  and  C8_17 
REMARK    7  A    between atoms: C8_17  and  C9_18 
REMARK    8  A    between atoms: C9_18  and  C10_20 
REMARK       I    between atoms: N4_24  and  C14_26 
ROOT
HETATM    1  C3  UNL     1      46.079   6.989  64.849  1.00  0.00     0.365 C 
HETATM    2  O2  UNL     1      47.126   6.381  65.201  1.00  0.00    -0.238 OA
HETATM    3  N1  UNL     1      45.026   6.396  64.113  1.00  0.00    -0.290 N 
HETATM    4  C4  UNL     1      43.883   7.174  63.753  1.00  0.00     0.284 C 
HETATM    5  N2  UNL     1      42.644   6.420  63.962  1.00  0.00    -0.103 NA
HETATM    6  N3  UNL     1      42.733   5.117  63.562  1.00  0.00    -0.279 N 
HETATM    7  C16 UNL     1      43.893   4.507  63.022  1.00  0.00     0.176 C 
HETATM    8  C17 UNL     1      45.112   5.007  63.756  1.00  0.00     0.050 C 
HETATM    9  C18 UNL     1      46.299   4.678  62.865  1.00  0.00     0.040 C 
HETATM   10  C19 UNL     1      45.305   4.143  65.010  1.00  0.00     0.040 C 
ENDROOT
BRANCH   6  11
HETATM   11  C7  UNL     1      41.528   4.281  63.699  1.00  0.00     0.104 C 
HETATM   12  N4  UNL     1      41.343   3.863  64.860  1.00  0.00    -0.316 N 
HETATM   13  C14 UNL     1      40.526   3.125  65.624  1.00  0.00     0.218 C 
ATOM     14  H4  UNL     1      42.098   4.215  65.449  1.00  0.00     0.170 HD
HETATM   15  C15 UNL     1      39.713   3.765  66.717  1.00  0.00     0.117 C 
HETATM   16  O5  UNL     1      40.369   1.885  65.509  1.00  0.00    -0.274 OA
BRANCH  11  17
HETATM   17  C8  UNL     1      40.757   4.065  62.470  1.00  0.00     0.157 C 
BRANCH  17  18
HETATM   18  C9  UNL     1      39.823   5.090  62.041  1.00  0.00     0.141 C 
HETATM   19  O4  UNL     1      40.236   6.094  61.487  1.00  0.00    -0.297 OA
BRANCH  18  20
HETATM   20  C10 UNL     1      38.348   4.986  62.239  1.00  0.00     0.010 C 
HETATM   21  C11 UNL     1      37.808   3.700  61.604  1.00  0.00     0.022 C 
HETATM   22  C12 UNL     1      37.928   4.941  63.677  1.00  0.00     0.022 C 
HETATM   23  C13 UNL     1      37.685   6.148  61.544  1.00  0.00     0.022 C 
ENDBRANCH  18  20
ENDBRANCH  17  18
ENDBRANCH  11  17
ENDBRANCH   6  11
BRANCH   4  24
HETATM   24  C5  UNL     1      43.868   7.694  62.377  1.00  0.00     0.272 C 
HETATM   25  O3  UNL     1      42.786   8.127  61.941  1.00  0.00    -0.284 OA
BRANCH  24  26
HETATM   26  C6  UNL     1      44.997   7.770  61.442  1.00  0.00     0.454 C 
HETATM   27  F1  UNL     1      44.733   8.836  60.562  1.00  0.00    -0.163 F 
HETATM   28  F2  UNL     1      46.216   8.009  61.994  1.00  0.00    -0.163 F 
HETATM   29  F3  UNL     1      45.079   6.650  60.625  1.00  0.00    -0.163 F 
ENDBRANCH  24  26
ENDBRANCH   4  24
BRANCH   1  30
HETATM   30  O1  UNL     1      46.027   8.335  65.250  1.00  0.00    -0.304 OA
BRANCH  30  31
HETATM   31  C2  UNL     1      46.685   8.775  66.419  1.00  0.00     0.176 C 
HETATM   32  C1  UNL     1      47.509   9.988  66.049  1.00  0.00     0.034 C 
ENDBRANCH  30  31
ENDBRANCH   1  30
TORSDOF 8
ENDMDL
MODEL 3
REMARK VINA RESULT: -7.244628348      8.123     11.098
REMARK  8 active torsions:
REMARK  status: ('A' for Active; 'I' for Inactive)
REMARK    1  A    between atoms: C2_2  and  O1_3 
REMARK    2  A    between atoms: O1_3  and  C3_4 
REMARK       I    between atoms: C3_4  and  N1_6 
REMARK    3  A    between atoms: C4_7  and  C5_8 
REMARK    4  A    between atoms: C5_8  and  C6_10 
REMARK    5  A    between atoms: N3_15  and  C7_16 
REMARK    6  A    between atoms: C7_16  and  C8_17 
REMARK    7  A    between atoms: C8_17  and  C9_18 
REMARK    8  A    between atoms: C9_18  and  C10_20 
REMARK       I    between atoms: N4_24  and  C14_26 
ROOT
HETATM    1  C3  UNL     1      35.967   3.735  61.202  1.00  0.00     0.365 C 
HETATM    2  O2  UNL     1      36.808   3.881  60.274  1.00  0.00    -0.238 OA
HETATM    3  N1  UNL     1      34.908   4.637  61.464  1.00  0.00    -0.290 N 
HETATM    4  C4  UNL     1      34.012   4.388  62.548  1.00  0.00     0.284 C 
HETATM    5  N2  UNL     1      32.624   4.643  62.155  1.00  0.00    -0.103 NA
HETATM    6  N3  UNL     1      32.478   5.771  61.398  1.00  0.00    -0.279 N 
HETATM    7  C16 UNL     1      33.537   6.620  60.987  1.00  0.00     0.176 C 
HETATM    8  C17 UNL     1      34.736   5.784  60.617  1.00  0.00     0.050 C 
HETATM    9  C18 UNL     1      35.924   6.733  60.625  1.00  0.00     0.040 C 
HETATM   10  C19 UNL     1      34.586   5.351  59.152  1.00  0.00     0.040 C 
ENDROOT
BRANCH   6  11
HETATM   11  C7  UNL     1      31.114   6.136  60.979  1.00  0.00     0.104 C 
HETATM   12  N4  UNL     1      30.314   6.243  61.931  1.00  0.00    -0.316 N 
HETATM   13  C14 UNL     1      29.041   6.520  62.245  1.00  0.00     0.218 C 
ATOM     14  H4  UNL     1      30.820   6.045  62.795  1.00  0.00     0.170 HD
HETATM   15  C15 UNL     1      28.697   7.760  63.026  1.00  0.00     0.117 C 
HETATM   16  O5  UNL     1      28.058   5.804  61.935  1.00  0.00    -0.274 OA
BRANCH  11  17
HETATM   17  C8  UNL     1      30.911   6.300  59.536  1.00  0.00     0.157 C 
BRANCH  17  18
HETATM   18  C9  UNL     1      30.344   5.198  58.780  1.00  0.00     0.141 C 
HETATM   19  O4  UNL     1      29.892   4.229  59.365  1.00  0.00    -0.297 OA
BRANCH  18  20
HETATM   20  C10 UNL     1      30.275   5.179  57.290  1.00  0.00     0.010 C 
HETATM   21  C11 UNL     1      31.485   4.445  56.703  1.00  0.00     0.022 C 
HETATM   22  C12 UNL     1      29.067   4.480  56.745  1.00  0.00     0.022 C 
HETATM   23  C13 UNL     1      30.319   6.600  56.787  1.00  0.00     0.022 C 
ENDBRANCH  18  20
ENDBRANCH  17  18
ENDBRANCH  11  17
ENDBRANCH   6  11
BRANCH   4  24
HETATM   24  C5  UNL     1      34.277   5.137  63.785  1.00  0.00     0.272 C 
HETATM   25  O3  UNL     1      33.301   5.646  64.366  1.00  0.00    -0.284 OA
BRANCH  24  26
HETATM   26  C6  UNL     1      35.576   5.358  64.432  1.00  0.00     0.454 C 
HETATM   27  F1  UNL     1      36.060   4.098  64.828  1.00  0.00    -0.163 F 
HETATM   28  F2  UNL     1      36.540   5.924  63.658  1.00  0.00    -0.163 F 
HETATM   29  F3  UNL     1      35.460   6.079  65.613  1.00  0.00    -0.163 F 
ENDBRANCH  24  26
ENDBRANCH   4  24
BRANCH   1  30
HETATM   30  O1  UNL     1      36.158   2.581  61.981  1.00  0.00    -0.304 OA
BRANCH  30  31
HETATM   31  C2  UNL     1      35.614   1.338  61.592  1.00  0.00     0.176 C 
HETATM   32  C1  UNL     1      34.845   0.787  62.773  1.00  0.00     0.034 C 
ENDBRANCH  30  31
ENDBRANCH   1  30
TORSDOF 8
ENDMDL
MODEL 4
REMARK VINA RESULT: -7.238225907      8.120     11.101
REMARK  8 active torsions:
REMARK  status: ('A' for Active; 'I' for Inactive)
REMARK    1  A    between atoms: C2_2  and  O1_3 
REMARK    2  A    between atoms: O1_3  and  C3_4 
REMARK       I    between atoms: C3_4  and  N1_6 
REMARK    3  A    between atoms: C4_7  and  C5_8 
REMARK    4  A    between atoms: C5_8  and  C6_10 
REMARK    5  A    between atoms: N3_15  and  C7_16 
REMARK    6  A    between atoms: C7_16  and  C8_17 
REMARK    7  A    between atoms: C8_17  and  C9_18 
REMARK    8  A    between atoms: C9_18  and  C10_20 
REMARK       I    between atoms: N4_24  and  C14_26 
ROOT
HETATM    1  C3  UNL     1      35.982   3.725  61.252  1.00  0.00     0.365 C 
HETATM    2  O2  UNL     1      36.832   3.880  60.334  1.00  0.00    -0.238 OA
HETATM    3  N1  UNL     1      34.921   4.626  61.513  1.00  0.00    -0.290 N 
HETATM    4  C4  UNL     1      34.014   4.366  62.584  1.00  0.00     0.284 C 
HETATM    5  N2  UNL     1      32.630   4.628  62.180  1.00  0.00    -0.103 NA
HETATM    6  N3  UNL     1      32.494   5.765  61.434  1.00  0.00    -0.279 N 
HETATM    7  C16 UNL     1      33.559   6.616  61.044  1.00  0.00     0.176 C 
HETATM    8  C17 UNL     1      34.760   5.783  60.677  1.00  0.00     0.050 C 
HETATM    9  C18 UNL     1      35.949   6.730  60.708  1.00  0.00     0.040 C 
HETATM   10  C19 UNL     1      34.624   5.367  59.206  1.00  0.00     0.040 C 
ENDROOT
BRANCH   6  11
HETATM   11  C7  UNL     1      31.135   6.137  61.005  1.00  0.00     0.104 C 
HETATM   12  N4  UNL     1      30.331   6.256  61.952  1.00  0.00    -0.316 N 
HETATM   13  C14 UNL     1      29.058   6.544  62.257  1.00  0.00     0.218 C 
ATOM     14  H4  UNL     1      30.830   6.060  62.820  1.00  0.00     0.170 HD
HETATM   15  C15 UNL     1      28.718   7.791  63.028  1.00  0.00     0.117 C 
HETATM   16  O5  UNL     1      28.072   5.833  61.946  1.00  0.00    -0.274 OA
BRANCH  11  17
HETATM   17  C8  UNL     1      30.941   6.292  59.560  1.00  0.00     0.157 C 
BRANCH  17  18
HETATM   18  C9  UNL     1      30.381   5.186  58.806  1.00  0.00     0.141 C 
HETATM   19  O4  UNL     1      29.875   4.245  59.393  1.00  0.00    -0.297 OA
BRANCH  18  20
HETATM   20  C10 UNL     1      30.384   5.128  57.315  1.00  0.00     0.010 C 
HETATM   21  C11 UNL     1      30.333   6.540  56.721  1.00  0.00     0.022 C 
HETATM   22  C12 UNL     1      31.604   4.481  56.734  1.00  0.00     0.022 C 
HETATM   23  C13 UNL     1      29.146   4.399  56.859  1.00  0.00     0.022 C 
ENDBRANCH  18  20
ENDBRANCH  17  18
ENDBRANCH  11  17
ENDBRANCH   6  11
BRANCH   4  24
HETATM   24  C5  UNL     1      34.266   5.101  63.833  1.00  0.00     0.272 C 
HETATM   25  O3  UNL     1      33.298   5.671  64.367  1.00  0.00    -0.284 OA
BRANCH  24  26
HETATM   26  C6  UNL     1      35.545   5.242  64.539  1.00  0.00     0.454 C 
HETATM   27  F1  UNL     1      35.335   6.143  65.599  1.00  0.00    -0.163 F 
HETATM   28  F2  UNL     1      36.054   4.106  65.086  1.00  0.00    -0.163 F 
HETATM   29  F3  UNL     1      36.518   5.843  63.752  1.00  0.00    -0.163 F 
ENDBRANCH  24  26
ENDBRANCH   4  24
BRANCH   1  30
HETATM   30  O1  UNL     1      36.162   2.562  62.019  1.00  0.00    -0.304 OA
BRANCH  30  31
HETATM   31  C2  UNL     1      35.608   1.328  61.618  1.00  0.00     0.176 C 
HETATM   32  C1  UNL     1      34.847   0.764  62.798  1.00  0.00     0.034 C 
ENDBRANCH  30  31
ENDBRANCH   1  30
TORSDOF 8
ENDMDL
MODEL 5
REMARK VINA RESULT: -7.186958449      6.928      9.780
REMARK  8 active torsions:
REMARK  status: ('A' for Active; 'I' for Inactive)
REMARK    1  A    between atoms: C2_2  and  O1_3 
REMARK    2  A    between atoms: O1_3  and  C3_4 
REMARK       I    between atoms: C3_4  and  N1_6 
REMARK    3  A    between atoms: C4_7  and  C5_8 
REMARK    4  A    between atoms: C5_8  and  C6_10 
REMARK    5  A    between atoms: N3_15  and  C7_16 
REMARK    6  A    between atoms: C7_16  and  C8_17 
REMARK    7  A    between atoms: C8_17  and  C9_18 
REMARK    8  A    between atoms: C9_18  and  C10_20 
REMARK       I    between atoms: N4_24  and  C14_26 
ROOT
HETATM    1  C3  UNL     1      36.962   4.328  62.721  1.00  0.00     0.365 C 
HETATM    2  O2  UNL     1      37.468   3.175  62.657  1.00  0.00    -0.238 OA
HETATM    3  N1  UNL     1      35.965   4.809  61.839  1.00  0.00    -0.290 N 
HETATM    4  C4  UNL     1      35.461   6.137  61.988  1.00  0.00     0.284 C 
HETATM    5  N2  UNL     1      34.003   6.169  61.843  1.00  0.00    -0.103 NA
HETATM    6  N3  UNL     1      33.547   5.380  60.825  1.00  0.00    -0.279 N 
HETATM    7  C16 UNL     1      34.362   4.573  59.991  1.00  0.00     0.176 C 
HETATM    8  C17 UNL     1      35.454   3.940  60.815  1.00  0.00     0.050 C 
HETATM    9  C18 UNL     1      36.510   3.479  59.823  1.00  0.00     0.040 C 
HETATM   10  C19 UNL     1      34.901   2.649  61.433  1.00  0.00     0.040 C 
ENDROOT
BRANCH   6  11
HETATM   11  C7  UNL     1      32.096   5.368  60.574  1.00  0.00     0.104 C 
HETATM   12  N4  UNL     1      31.412   5.530  61.605  1.00  0.00    -0.316 N 
HETATM   13  C14 UNL     1      30.156   5.618  62.064  1.00  0.00     0.218 C 
ATOM     14  H4  UNL     1      32.048   5.634  62.395  1.00  0.00     0.170 HD
HETATM   15  C15 UNL     1      29.638   6.911  62.634  1.00  0.00     0.117 C 
HETATM   16  O5  UNL     1      29.330   4.673  62.066  1.00  0.00    -0.274 OA
BRANCH  11  17
HETATM   17  C8  UNL     1      31.691   5.160  59.180  1.00  0.00     0.157 C 
BRANCH  17  18
HETATM   18  C9  UNL     1      31.102   6.267  58.449  1.00  0.00     0.141 C 
HETATM   19  O4  UNL     1      30.297   6.998  58.999  1.00  0.00    -0.297 OA
BRANCH  18  20
HETATM   20  C10 UNL     1      31.434   6.577  57.028  1.00  0.00     0.010 C 
HETATM   21  C11 UNL     1      31.745   5.291  56.254  1.00  0.00     0.022 C 
HETATM   22  C12 UNL     1      30.326   7.250  56.277  1.00  0.00     0.022 C 
HETATM   23  C13 UNL     1      32.673   7.434  56.998  1.00  0.00     0.022 C 
ENDBRANCH  18  20
ENDBRANCH  17  18
ENDBRANCH  11  17
ENDBRANCH   6  11
BRANCH   4  24
HETATM   24  C5  UNL     1      36.028   7.145  61.079  1.00  0.00     0.272 C 
HETATM   25  O3  UNL     1      37.188   6.957  60.668  1.00  0.00    -0.284 OA
BRANCH  24  26
HETATM   26  C6  UNL     1      35.379   8.365  60.587  1.00  0.00     0.454 C 
HETATM   27  F1  UNL     1      36.399   9.228  60.147  1.00  0.00    -0.163 F 
HETATM   28  F2  UNL     1      34.521   8.207  59.544  1.00  0.00    -0.163 F 
HETATM   29  F3  UNL     1      34.737   9.065  61.600  1.00  0.00    -0.163 F 
ENDBRANCH  24  26
ENDBRANCH   4  24
BRANCH   1  30
HETATM   30  O1  UNL     1      37.470   5.127  63.759  1.00  0.00    -0.304 OA
BRANCH  30  31
HETATM   31  C2  UNL     1      37.347   4.737  65.110  1.00  0.00     0.176 C 
HETATM   32  C1  UNL     1      35.961   5.124  65.574  1.00  0.00     0.034 C 
ENDBRANCH  30  31
ENDBRANCH   1  30
TORSDOF 8
ENDMDL
