MODEL 1
REMARK VINA RESULT: -7.086880582      0.000      0.000
REMARK  7 active torsions:
REMARK  status: ('A' for Active; 'I' for Inactive)
REMARK    1  A    between atoms: C1_2  and  O2_3 
REMARK    2  A    between atoms: C1_2  and  C9_16 
REMARK    3  A    between atoms: O2_3  and  C2_4 
REMARK    4  A    between atoms: C2_4  and  C3_5 
REMARK    5  A    between atoms: C3_5  and  N1_6 
REMARK    6  A    between atoms: C3_5  and  C8_12 
REMARK    7  A    between atoms: C15_22  and  O4_23 
ROOT
HETATM    1  O1  UNL     1      38.476   3.469  64.624  1.00  0.00    -0.264 OA
HETATM    2  C1  UNL     1      38.155   4.443  63.863  1.00  0.00     0.268 C 
ENDROOT
BRANCH   2   3
HETATM    3  O2  UNL     1      39.190   5.119  63.278  1.00  0.00    -0.315 OA
BRANCH   3   4
HETATM    4  C2  UNL     1      40.468   4.644  62.976  1.00  0.00     0.238 C 
BRANCH   4   5
HETATM    5  C3  UNL     1      41.626   5.405  63.506  1.00  0.00     0.096 C 
BRANCH   5   6
HETATM    6  N1  UNL     1      42.569   5.815  62.504  1.00  0.00    -0.356 N 
HETATM    7  C4  UNL     1      43.168   7.098  62.827  1.00  0.00     0.154 C 
HETATM    8  C5  UNL     1      42.891   8.200  61.881  1.00  0.00     0.188 C 
HETATM    9  O3  UNL     1      42.849   7.825  60.556  1.00  0.00    -0.385 OA
HETATM   10  C6  UNL     1      41.790   6.923  60.441  1.00  0.00     0.212 C 
HETATM   11  C7  UNL     1      42.235   5.665  61.151  1.00  0.00     0.090 C 
ENDBRANCH   5   6
BRANCH   5  12
HETATM   12  C8  UNL     1      42.248   4.869  64.764  1.00  0.00     0.340 C 
HETATM   13  F1  UNL     1      41.446   4.043  65.506  1.00  0.00    -0.186 F 
HETATM   14  F2  UNL     1      42.839   5.833  65.556  1.00  0.00    -0.186 F 
HETATM   15 BR1  UNL     1      43.744   3.741  64.142  1.00  0.00    -0.004 Br
ENDBRANCH   5  12
ENDBRANCH   4   5
ENDBRANCH   3   4
ENDBRANCH   2   3
BRANCH   2  16
HETATM   16  C9  UNL     1      36.724   4.771  63.668  1.00  0.00     0.051 C 
HETATM   17  C10 UNL     1      36.636   5.830  62.591  1.00  0.00     0.024 C 
HETATM   18  C11 UNL     1      35.227   6.184  62.242  1.00  0.00    -0.010 C 
HETATM   19  C12 UNL     1      34.564   6.707  63.504  1.00  0.00     0.009 C 
HETATM   20  C16 UNL     1      34.540   4.931  61.736  1.00  0.00     0.042 C 
HETATM   21  C13 UNL     1      34.621   5.621  64.554  1.00  0.00    -0.010 C 
HETATM   22  C14 UNL     1      33.832   4.446  64.053  1.00  0.00     0.042 C 
HETATM   23  C18 UNL     1      36.035   5.280  64.896  1.00  0.00     0.024 C 
HETATM   24  C15 UNL     1      34.559   3.909  62.828  1.00  0.00     0.060 C 
HETATM   25  C17 UNL     1      35.942   3.525  63.235  1.00  0.00     0.057 C 
BRANCH  24  26
HETATM   26  O4  UNL     1      33.917   2.741  62.367  1.00  0.00    -0.390 OA
ATOM     27  H4  UNL     1      33.935   2.717  61.417  1.00  0.00     0.210 HD
ENDBRANCH  24  26
ENDBRANCH   2  16
TORSDOF 7
ENDMDL
MODEL 2
REMARK VINA RESULT: -6.868687116      4.964      8.192
REMARK  7 active torsions:
REMARK  status: ('A' for Active; 'I' for Inactive)
REMARK    1  A    between atoms: C1_2  and  O2_3 
REMARK    2  A    between atoms: C1_2  and  C9_16 
REMARK    3  A    between atoms: O2_3  and  C2_4 
REMARK    4  A    between atoms: C2_4  and  C3_5 
REMARK    5  A    between atoms: C3_5  and  N1_6 
REMARK    6  A    between atoms: C3_5  and  C8_12 
REMARK    7  A    between atoms: C15_22  and  O4_23 
ROOT
HETATM    1  O1  UNL     1      34.699  10.043  61.696  1.00  0.00    -0.264 OA
HETATM    2  C1  UNL     1      34.864   8.925  61.099  1.00  0.00     0.268 C 
ENDROOT
BRANCH   2   3
HETATM    3  O2  UNL     1      34.131   7.872  61.573  1.00  0.00    -0.315 OA
BRANCH   3   4
HETATM    4  C2  UNL     1      33.963   7.468  62.899  1.00  0.00     0.238 C 
BRANCH   4   5
HETATM    5  C3  UNL     1      33.958   6.011  63.176  1.00  0.00     0.096 C 
BRANCH   5   6
HETATM    6  N1  UNL     1      32.646   5.439  63.298  1.00  0.00    -0.356 N 
HETATM    7  C4  UNL     1      31.995   5.313  62.006  1.00  0.00     0.154 C 
HETATM    8  C5  UNL     1      30.763   6.110  61.820  1.00  0.00     0.188 C 
HETATM    9  O3  UNL     1      29.962   6.203  62.937  1.00  0.00    -0.385 OA
HETATM   10  C6  UNL     1      30.722   6.861  63.906  1.00  0.00     0.212 C 
HETATM   11  C7  UNL     1      31.801   5.887  64.323  1.00  0.00     0.090 C 
ENDBRANCH   5   6
BRANCH   5  12
HETATM   12  C8  UNL     1      34.943   5.530  64.203  1.00  0.00     0.340 C 
HETATM   13  F1  UNL     1      34.704   4.276  64.700  1.00  0.00    -0.186 F 
HETATM   14  F2  UNL     1      35.182   6.431  65.221  1.00  0.00    -0.186 F 
HETATM   15 BR1  UNL     1      36.657   5.400  63.232  1.00  0.00    -0.004 Br
ENDBRANCH   5  12
ENDBRANCH   4   5
ENDBRANCH   3   4
ENDBRANCH   2   3
BRANCH   2  16
HETATM   16  C9  UNL     1      35.812   8.843  59.964  1.00  0.00     0.051 C 
HETATM   17  C10 UNL     1      36.443  10.208  59.790  1.00  0.00     0.024 C 
HETATM   18  C11 UNL     1      37.487  10.231  58.723  1.00  0.00    -0.010 C 
HETATM   19  C12 UNL     1      36.817   9.828  57.421  1.00  0.00     0.009 C 
HETATM   20  C16 UNL     1      38.575   9.248  59.110  1.00  0.00     0.042 C 
HETATM   21  C13 UNL     1      36.231   8.446  57.598  1.00  0.00    -0.010 C 
HETATM   22  C14 UNL     1      37.360   7.492  57.866  1.00  0.00     0.042 C 
HETATM   23  C18 UNL     1      35.186   8.438  58.665  1.00  0.00     0.024 C 
HETATM   24  C15 UNL     1      37.967   7.885  59.207  1.00  0.00     0.060 C 
HETATM   25  C17 UNL     1      36.900   7.802  60.247  1.00  0.00     0.057 C 
BRANCH  24  26
HETATM   26  O4  UNL     1      38.973   6.963  59.562  1.00  0.00    -0.390 OA
ATOM     27  H4  UNL     1      39.820   7.394  59.559  1.00  0.00     0.210 HD
ENDBRANCH  24  26
ENDBRANCH   2  16
TORSDOF 7
ENDMDL
MODEL 3
REMARK VINA RESULT: -6.817305024      5.271      8.335
REMARK  7 active torsions:
REMARK  status: ('A' for Active; 'I' for Inactive)
REMARK    1  A    between atoms: C1_2  and  O2_3 
REMARK    2  A    between atoms: C1_2  and  C9_16 
REMARK    3  A    between atoms: O2_3  and  C2_4 
REMARK    4  A    between atoms: C2_4  and  C3_5 
REMARK    5  A    between atoms: C3_5  and  N1_6 
REMARK    6  A    between atoms: C3_5  and  C8_12 
REMARK    7  A    between atoms: C15_22  and  O4_23 
ROOT
HETATM    1  O1  UNL     1      34.694   9.963  61.558  1.00  0.00    -0.264 OA
HETATM    2  C1  UNL     1      34.983   8.886  60.936  1.00  0.00     0.268 C 
ENDROOT
BRANCH   2   3
HETATM    3  O2  UNL     1      34.331   7.756  61.348  1.00  0.00    -0.315 OA
BRANCH   3   4
HETATM    4  C2  UNL     1      33.881   7.441  62.632  1.00  0.00     0.238 C 
BRANCH   4   5
HETATM    5  C3  UNL     1      33.845   6.008  63.013  1.00  0.00     0.096 C 
BRANCH   5   6
HETATM    6  N1  UNL     1      32.522   5.479  63.189  1.00  0.00    -0.356 N 
HETATM    7  C4  UNL     1      31.799   5.416  61.931  1.00  0.00     0.154 C 
HETATM    8  C5  UNL     1      30.588   6.260  61.835  1.00  0.00     0.188 C 
HETATM    9  O3  UNL     1      29.852   6.346  62.997  1.00  0.00    -0.385 OA
HETATM   10  C6  UNL     1      30.685   6.947  63.941  1.00  0.00     0.212 C 
HETATM   11  C7  UNL     1      31.749   5.924  64.271  1.00  0.00     0.090 C 
ENDBRANCH   5   6
BRANCH   5  12
HETATM   12  C8  UNL     1      34.831   5.578  64.062  1.00  0.00     0.340 C 
HETATM   13  F1  UNL     1      34.618   4.331  64.587  1.00  0.00    -0.186 F 
HETATM   14  F2  UNL     1      35.035   6.510  65.060  1.00  0.00    -0.186 F 
HETATM   15 BR1  UNL     1      36.558   5.469  63.112  1.00  0.00    -0.004 Br
ENDBRANCH   5  12
ENDBRANCH   4   5
ENDBRANCH   3   4
ENDBRANCH   2   3
BRANCH   2  16
HETATM   16  C9  UNL     1      35.977   8.927  59.838  1.00  0.00     0.051 C 
HETATM   17  C10 UNL     1      37.011   7.855  60.113  1.00  0.00     0.024 C 
HETATM   18  C11 UNL     1      38.027   7.741  59.024  1.00  0.00    -0.010 C 
HETATM   19  C12 UNL     1      38.725   9.084  58.910  1.00  0.00     0.009 C 
HETATM   20  C16 UNL     1      37.301   7.386  57.740  1.00  0.00     0.042 C 
HETATM   21  C13 UNL     1      37.686  10.134  58.593  1.00  0.00    -0.010 C 
HETATM   22  C14 UNL     1      37.078   9.800  57.261  1.00  0.00     0.042 C 
HETATM   23  C18 UNL     1      36.679  10.241  59.691  1.00  0.00     0.024 C 
HETATM   24  C15 UNL     1      36.332   8.483  57.428  1.00  0.00     0.060 C 
HETATM   25  C17 UNL     1      35.299   8.659  58.490  1.00  0.00     0.057 C 
BRANCH  24  26
HETATM   26  O4  UNL     1      35.656   8.163  56.232  1.00  0.00    -0.390 OA
ATOM     27  H4  UNL     1      34.725   8.077  56.403  1.00  0.00     0.210 HD
ENDBRANCH  24  26
ENDBRANCH   2  16
TORSDOF 7
ENDMDL
MODEL 4
REMARK VINA RESULT: -6.816562985      3.047      3.862
REMARK  7 active torsions:
REMARK  status: ('A' for Active; 'I' for Inactive)
REMARK    1  A    between atoms: C1_2  and  O2_3 
REMARK    2  A    between atoms: C1_2  and  C9_16 
REMARK    3  A    between atoms: O2_3  and  C2_4 
REMARK    4  A    between atoms: C2_4  and  C3_5 
REMARK    5  A    between atoms: C3_5  and  N1_6 
REMARK    6  A    between atoms: C3_5  and  C8_12 
REMARK    7  A    between atoms: C15_22  and  O4_23 
ROOT
HETATM    1  O1  UNL     1      36.018   2.456  62.435  1.00  0.00    -0.264 OA
HETATM    2  C1  UNL     1      36.092   3.532  63.120  1.00  0.00     0.268 C 
ENDROOT
BRANCH   2   3
HETATM    3  O2  UNL     1      37.060   3.569  64.085  1.00  0.00    -0.315 OA
BRANCH   3   4
HETATM    4  C2  UNL     1      38.146   4.442  64.183  1.00  0.00     0.238 C 
BRANCH   4   5
HETATM    5  C3  UNL     1      39.219   4.318  63.166  1.00  0.00     0.096 C 
BRANCH   5   6
HETATM    6  N1  UNL     1      40.520   4.056  63.713  1.00  0.00    -0.356 N 
HETATM    7  C4  UNL     1      41.274   3.134  62.883  1.00  0.00     0.154 C 
HETATM    8  C5  UNL     1      41.627   1.840  63.505  1.00  0.00     0.188 C 
HETATM    9  O3  UNL     1      41.951   1.913  64.843  1.00  0.00    -0.385 OA
HETATM   10  C6  UNL     1      40.805   2.372  65.495  1.00  0.00     0.212 C 
HETATM   11  C7  UNL     1      40.646   3.820  65.089  1.00  0.00     0.090 C 
ENDBRANCH   5   6
BRANCH   5  12
HETATM   12  C8  UNL     1      39.202   5.335  62.060  1.00  0.00     0.340 C 
HETATM   13  F1  UNL     1      40.391   5.980  61.843  1.00  0.00    -0.186 F 
HETATM   14  F2  UNL     1      38.155   6.231  62.135  1.00  0.00    -0.186 F 
HETATM   15 BR1  UNL     1      38.856   4.289  60.422  1.00  0.00    -0.004 Br
ENDBRANCH   5  12
ENDBRANCH   4   5
ENDBRANCH   3   4
ENDBRANCH   2   3
BRANCH   2  16
HETATM   16  C9  UNL     1      35.150   4.639  62.834  1.00  0.00     0.051 C 
HETATM   17  C10 UNL     1      35.386   5.088  61.408  1.00  0.00     0.024 C 
HETATM   18  C11 UNL     1      34.432   6.151  60.972  1.00  0.00    -0.010 C 
HETATM   19  C12 UNL     1      34.616   7.338  61.900  1.00  0.00     0.009 C 
HETATM   20  C16 UNL     1      33.027   5.588  61.068  1.00  0.00     0.042 C 
HETATM   21  C13 UNL     1      34.334   6.882  63.313  1.00  0.00    -0.010 C 
HETATM   22  C14 UNL     1      32.900   6.443  63.383  1.00  0.00     0.042 C 
HETATM   23  C18 UNL     1      35.298   5.823  63.738  1.00  0.00     0.024 C 
HETATM   24  C15 UNL     1      32.765   5.215  62.493  1.00  0.00     0.060 C 
HETATM   25  C17 UNL     1      33.701   4.166  62.995  1.00  0.00     0.057 C 
BRANCH  24  26
HETATM   26  O4  UNL     1      31.458   4.694  62.593  1.00  0.00    -0.390 OA
ATOM     27  H4  UNL     1      30.841   5.297  62.195  1.00  0.00     0.210 HD
ENDBRANCH  24  26
ENDBRANCH   2  16
TORSDOF 7
ENDMDL
MODEL 5
REMARK VINA RESULT: -6.791638317      3.104      7.364
REMARK  7 active torsions:
REMARK  status: ('A' for Active; 'I' for Inactive)
REMARK    1  A    between atoms: C1_2  and  O2_3 
REMARK    2  A    between atoms: C1_2  and  C9_16 
REMARK    3  A    between atoms: O2_3  and  C2_4 
REMARK    4  A    between atoms: C2_4  and  C3_5 
REMARK    5  A    between atoms: C3_5  and  N1_6 
REMARK    6  A    between atoms: C3_5  and  C8_12 
REMARK    7  A    between atoms: C15_22  and  O4_23 
ROOT
HETATM    1  O1  UNL     1      41.535   2.880  65.226  1.00  0.00    -0.264 OA
HETATM    2  C1  UNL     1      41.666   3.780  64.330  1.00  0.00     0.268 C 
ENDROOT
BRANCH   2   3
HETATM    3  O2  UNL     1      40.635   3.901  63.438  1.00  0.00    -0.315 OA
BRANCH   3   4
HETATM    4  C2  UNL     1      39.520   4.737  63.520  1.00  0.00     0.238 C 
BRANCH   4   5
HETATM    5  C3  UNL     1      38.211   4.106  63.821  1.00  0.00     0.096 C 
BRANCH   5   6
HETATM    6  N1  UNL     1      37.118   4.617  63.041  1.00  0.00    -0.356 N 
HETATM    7  C4  UNL     1      36.374   3.548  62.400  1.00  0.00     0.154 C 
HETATM    8  C5  UNL     1      36.386   3.545  60.921  1.00  0.00     0.188 C 
HETATM    9  O3  UNL     1      36.344   4.795  60.342  1.00  0.00    -0.385 OA
HETATM   10  C6  UNL     1      37.507   5.451  60.751  1.00  0.00     0.212 C 
HETATM   11  C7  UNL     1      37.329   5.737  62.225  1.00  0.00     0.090 C 
ENDBRANCH   5   6
BRANCH   5  12
HETATM   12  C8  UNL     1      37.895   3.903  65.276  1.00  0.00     0.340 C 
HETATM   13  F1  UNL     1      38.865   4.320  66.148  1.00  0.00    -0.186 F 
HETATM   14  F2  UNL     1      37.461   2.629  65.585  1.00  0.00    -0.186 F 
HETATM   15 BR1  UNL     1      36.336   5.064  65.617  1.00  0.00    -0.004 Br
ENDBRANCH   5  12
ENDBRANCH   4   5
ENDBRANCH   3   4
ENDBRANCH   2   3
BRANCH   2  16
HETATM   16  C9  UNL     1      42.890   4.614  64.313  1.00  0.00     0.051 C 
HETATM   17  C10 UNL     1      42.951   5.316  62.973  1.00  0.00     0.024 C 
HETATM   18  C11 UNL     1      44.105   6.258  62.867  1.00  0.00    -0.010 C 
HETATM   19  C12 UNL     1      45.375   5.448  63.058  1.00  0.00     0.009 C 
HETATM   20  C16 UNL     1      43.954   7.309  63.950  1.00  0.00     0.042 C 
HETATM   21  C13 UNL     1      45.317   4.790  64.418  1.00  0.00    -0.010 C 
HETATM   22  C14 UNL     1      45.283   5.872  65.458  1.00  0.00     0.042 C 
HETATM   23  C18 UNL     1      44.161   3.847  64.509  1.00  0.00     0.024 C 
HETATM   24  C15 UNL     1      43.970   6.623  65.279  1.00  0.00     0.060 C 
HETATM   25  C17 UNL     1      42.849   5.652  65.440  1.00  0.00     0.057 C 
BRANCH  24  26
HETATM   26  O4  UNL     1      43.834   7.594  66.292  1.00  0.00    -0.390 OA
ATOM     27  H4  UNL     1      44.270   7.298  67.083  1.00  0.00     0.210 HD
ENDBRANCH  24  26
ENDBRANCH   2  16
TORSDOF 7
ENDMDL
