MODEL 1
REMARK VINA RESULT: -8.566123883      0.000      0.000
REMARK  4 active torsions:
REMARK  status: ('A' for Active; 'I' for Inactive)
REMARK    1  A    between atoms: C2_2  and  N1_4 
REMARK       I    between atoms: N2_9  and  C8_10 
REMARK    2  A    between atoms: C8_10  and  C9_12 
REMARK    3  A    between atoms: C9_12  and  N3_13 
REMARK    4  A    between atoms: C9_12  and  C14_22 
REMARK       I    between atoms: N3_13  and  C10_15 
REMARK       I    between atoms: C10_15  and  N4_17 
ROOT
HETATM    1  C9  UNL     1      30.338   5.947  62.547  1.00  0.00     0.190 C 
ENDROOT
BRANCH   1   2
HETATM    2  C8  UNL     1      31.575   5.904  63.332  1.00  0.00     0.244 C 
HETATM    3  N2  UNL     1      32.892   6.136  62.877  1.00  0.00    -0.325 N 
HETATM    4  C7  UNL     1      33.179   6.496  61.520  1.00  0.00     0.128 C 
HETATM    5  C19 UNL     1      33.901   5.965  63.947  1.00  0.00     0.400 C 
HETATM    6  C6  UNL     1      34.417   7.364  61.399  1.00  0.00     0.022 C 
HETATM    7  C5  UNL     1      35.619   6.822  62.080  1.00  0.00     0.032 C 
HETATM    8  C4  UNL     1      35.595   5.353  62.368  1.00  0.00     0.275 C 
HETATM    9  N1  UNL     1      34.808   4.960  63.490  1.00  0.00     0.109 N 
HETATM   10  O1  UNL     1      31.420   5.622  64.583  1.00  0.00    -0.271 OA
BRANCH   9  11
HETATM   11  C2  UNL     1      35.559   4.328  64.541  1.00  0.00     0.217 C 
HETATM   12  C1  UNL     1      35.848   5.374  65.600  1.00  0.00     0.042 C 
HETATM   13  C3  UNL     1      36.838   3.686  64.052  1.00  0.00     0.042 C 
ENDBRANCH   9  11
ENDBRANCH   1   2
BRANCH   1  14
HETATM   14  N3  UNL     1      30.619   6.174  61.123  1.00  0.00    -0.329 N 
HETATM   15  C10 UNL     1      30.102   5.316  60.120  1.00  0.00     0.319 C 
HETATM   16  O2  UNL     1      29.390   4.347  60.470  1.00  0.00    -0.247 OA
HETATM   17  N4  UNL     1      30.372   5.535  58.755  1.00  0.00    -0.325 N 
HETATM   18  C11 UNL     1      29.900   4.729  57.676  1.00  0.00     0.138 C 
HETATM   19  C13 UNL     1      31.189   6.640  58.273  1.00  0.00     0.201 C 
HETATM   20  C12 UNL     1      29.136   5.656  56.719  1.00  0.00     0.095 C 
HETATM   21  S1  UNL     1      30.328   7.057  56.703  1.00  0.00    -0.147 SA
ATOM     22  H3  UNL     1      31.200   6.967  60.850  1.00  0.00     0.165 HD
ENDBRANCH   1  14
BRANCH   1  23
HETATM   23  C14 UNL     1      29.390   7.006  63.054  1.00  0.00     0.114 C 
HETATM   24  C15 UNL     1      27.997   6.817  62.426  1.00  0.00     0.180 C 
HETATM   25  O3  UNL     1      27.255   7.995  62.503  1.00  0.00    -0.390 OA
HETATM   26  C16 UNL     1      27.526   8.625  63.708  1.00  0.00     0.173 C 
HETATM   27  C17 UNL     1      28.882   9.300  63.609  1.00  0.00     0.105 C 
HETATM   28  C18 UNL     1      29.792   8.411  62.732  1.00  0.00     0.253 C 
HETATM   29  F1  UNL     1      31.075   8.739  63.034  1.00  0.00    -0.206 F 
HETATM   30  F2  UNL     1      29.518   8.776  61.429  1.00  0.00    -0.206 F 
ENDBRANCH   1  23
TORSDOF 4
ENDMDL
MODEL 2
REMARK VINA RESULT: -8.329698413      2.114      2.940
REMARK  4 active torsions:
REMARK  status: ('A' for Active; 'I' for Inactive)
REMARK    1  A    between atoms: C2_2  and  N1_4 
REMARK       I    between atoms: N2_9  and  C8_10 
REMARK    2  A    between atoms: C8_10  and  C9_12 
REMARK    3  A    between atoms: C9_12  and  N3_13 
REMARK    4  A    between atoms: C9_12  and  C14_22 
REMARK       I    between atoms: N3_13  and  C10_15 
REMARK       I    between atoms: C10_15  and  N4_17 
ROOT
HETATM    1  C9  UNL     1      32.009   5.836  60.733  1.00  0.00     0.190 C 
ENDROOT
BRANCH   1   2
HETATM    2  C8  UNL     1      33.444   5.985  60.991  1.00  0.00     0.244 C 
HETATM    3  N2  UNL     1      34.423   4.967  61.022  1.00  0.00    -0.325 N 
HETATM    4  C7  UNL     1      34.108   3.596  60.753  1.00  0.00     0.128 C 
HETATM    5  C19 UNL     1      35.769   5.485  61.357  1.00  0.00     0.400 C 
HETATM    6  C6  UNL     1      35.272   2.842  60.137  1.00  0.00     0.022 C 
HETATM    7  C5  UNL     1      36.550   2.967  60.881  1.00  0.00     0.032 C 
HETATM    8  C4  UNL     1      36.429   3.389  62.312  1.00  0.00     0.275 C 
HETATM    9  N1  UNL     1      36.194   4.780  62.524  1.00  0.00     0.109 N 
HETATM   10  O1  UNL     1      33.838   7.195  61.211  1.00  0.00    -0.271 OA
BRANCH   9  11
HETATM   11  C2  UNL     1      37.234   5.445  63.264  1.00  0.00     0.217 C 
HETATM   12  C1  UNL     1      38.452   5.543  62.366  1.00  0.00     0.042 C 
HETATM   13  C3  UNL     1      37.575   4.750  64.563  1.00  0.00     0.042 C 
ENDBRANCH   9  11
ENDBRANCH   1   2
BRANCH   1  14
HETATM   14  N3  UNL     1      31.656   6.319  59.392  1.00  0.00    -0.329 N 
HETATM   15  C10 UNL     1      31.074   5.461  58.425  1.00  0.00     0.319 C 
HETATM   16  O2  UNL     1      30.860   4.267  58.736  1.00  0.00    -0.247 OA
HETATM   17  N4  UNL     1      30.736   5.926  57.139  1.00  0.00    -0.325 N 
HETATM   18  C11 UNL     1      30.150   5.142  56.101  1.00  0.00     0.138 C 
HETATM   19  C13 UNL     1      30.953   7.300  56.707  1.00  0.00     0.201 C 
HETATM   20  C12 UNL     1      28.849   5.843  55.683  1.00  0.00     0.095 C 
HETATM   21  S1  UNL     1      29.485   7.569  55.633  1.00  0.00    -0.147 SA
ATOM     22  H3  UNL     1      31.835   7.294  59.150  1.00  0.00     0.165 HD
ENDBRANCH   1  14
BRANCH   1  23
HETATM   23  C14 UNL     1      31.178   6.554  61.768  1.00  0.00     0.114 C 
HETATM   24  C15 UNL     1      31.824   6.415  63.158  1.00  0.00     0.180 C 
HETATM   25  O3  UNL     1      30.890   6.654  64.166  1.00  0.00    -0.390 OA
HETATM   26  C16 UNL     1      30.036   7.669  63.763  1.00  0.00     0.173 C 
HETATM   27  C17 UNL     1      29.047   7.102  62.761  1.00  0.00     0.105 C 
HETATM   28  C18 UNL     1      29.781   6.036  61.918  1.00  0.00     0.253 C 
HETATM   29  F1  UNL     1      29.081   5.893  60.763  1.00  0.00    -0.206 F 
HETATM   30  F2  UNL     1      29.704   4.870  62.651  1.00  0.00    -0.206 F 
ENDBRANCH   1  23
TORSDOF 4
ENDMDL
MODEL 3
REMARK VINA RESULT: -7.874625742      2.939      6.032
REMARK  4 active torsions:
REMARK  status: ('A' for Active; 'I' for Inactive)
REMARK    1  A    between atoms: C2_2  and  N1_4 
REMARK       I    between atoms: N2_9  and  C8_10 
REMARK    2  A    between atoms: C8_10  and  C9_12 
REMARK    3  A    between atoms: C9_12  and  N3_13 
REMARK    4  A    between atoms: C9_12  and  C14_22 
REMARK       I    between atoms: N3_13  and  C10_15 
REMARK       I    between atoms: C10_15  and  N4_17 
ROOT
HETATM    1  C9  UNL     1      32.600   5.452  61.708  1.00  0.00     0.190 C 
ENDROOT
BRANCH   1   2
HETATM    2  C8  UNL     1      32.990   5.510  60.296  1.00  0.00     0.244 C 
HETATM    3  N2  UNL     1      33.901   6.404  59.690  1.00  0.00    -0.325 N 
HETATM    4  C7  UNL     1      34.617   7.390  60.442  1.00  0.00     0.128 C 
HETATM    5  C19 UNL     1      34.015   6.194  58.229  1.00  0.00     0.400 C 
HETATM    6  C6  UNL     1      35.970   7.713  59.838  1.00  0.00     0.022 C 
HETATM    7  C5  UNL     1      35.935   8.054  58.394  1.00  0.00     0.032 C 
HETATM    8  C4  UNL     1      34.605   8.487  57.862  1.00  0.00     0.275 C 
HETATM    9  N1  UNL     1      33.671   7.437  57.615  1.00  0.00     0.109 N 
HETATM   10  O1  UNL     1      32.423   4.633  59.535  1.00  0.00    -0.271 OA
BRANCH   9  11
HETATM   11  C2  UNL     1      33.272   7.319  56.238  1.00  0.00     0.217 C 
HETATM   12  C1  UNL     1      33.131   8.720  55.674  1.00  0.00     0.042 C 
HETATM   13  C3  UNL     1      31.993   6.533  56.057  1.00  0.00     0.042 C 
ENDBRANCH   9  11
ENDBRANCH   1   2
BRANCH   1  14
HETATM   14  N3  UNL     1      31.689   6.551  62.054  1.00  0.00    -0.329 N 
HETATM   15  C10 UNL     1      30.282   6.403  61.963  1.00  0.00     0.319 C 
HETATM   16  O2  UNL     1      29.820   5.305  61.578  1.00  0.00    -0.247 OA
HETATM   17  N4  UNL     1      29.409   7.458  62.295  1.00  0.00    -0.325 N 
HETATM   18  C11 UNL     1      27.985   7.407  62.234  1.00  0.00     0.138 C 
HETATM   19  C13 UNL     1      29.874   8.761  62.751  1.00  0.00     0.201 C 
HETATM   20  C12 UNL     1      27.459   7.767  63.631  1.00  0.00     0.095 C 
HETATM   21  S1  UNL     1      28.568   9.194  63.970  1.00  0.00    -0.147 SA
ATOM     22  H3  UNL     1      32.078   7.441  62.366  1.00  0.00     0.165 HD
ENDBRANCH   1  14
BRANCH   1  23
HETATM   23  C14 UNL     1      33.801   5.479  62.621  1.00  0.00     0.114 C 
HETATM   24  C15 UNL     1      34.759   4.325  62.274  1.00  0.00     0.180 C 
HETATM   25  O3  UNL     1      35.609   4.047  63.344  1.00  0.00    -0.390 OA
HETATM   26  C16 UNL     1      35.958   5.235  63.967  1.00  0.00     0.173 C 
HETATM   27  C17 UNL     1      34.788   5.702  64.813  1.00  0.00     0.105 C 
HETATM   28  C18 UNL     1      33.486   5.320  64.075  1.00  0.00     0.253 C 
HETATM   29  F1  UNL     1      32.506   6.129  64.556  1.00  0.00    -0.206 F 
HETATM   30  F2  UNL     1      33.225   4.015  64.440  1.00  0.00    -0.206 F 
ENDBRANCH   1  23
TORSDOF 4
ENDMDL
MODEL 4
REMARK VINA RESULT: -7.408929588      2.786      5.023
REMARK  4 active torsions:
REMARK  status: ('A' for Active; 'I' for Inactive)
REMARK    1  A    between atoms: C2_2  and  N1_4 
REMARK       I    between atoms: N2_9  and  C8_10 
REMARK    2  A    between atoms: C8_10  and  C9_12 
REMARK    3  A    between atoms: C9_12  and  N3_13 
REMARK    4  A    between atoms: C9_12  and  C14_22 
REMARK       I    between atoms: N3_13  and  C10_15 
REMARK       I    between atoms: C10_15  and  N4_17 
ROOT
HETATM    1  C9  UNL     1      32.431   6.180  60.495  1.00  0.00     0.190 C 
ENDROOT
BRANCH   1   2
HETATM    2  C8  UNL     1      33.282   5.221  61.206  1.00  0.00     0.244 C 
HETATM    3  N2  UNL     1      34.692   5.217  61.287  1.00  0.00    -0.325 N 
HETATM    4  C7  UNL     1      35.495   6.232  60.674  1.00  0.00     0.128 C 
HETATM    5  C19 UNL     1      35.212   4.066  62.060  1.00  0.00     0.400 C 
HETATM    6  C6  UNL     1      36.791   6.478  61.423  1.00  0.00     0.022 C 
HETATM    7  C5  UNL     1      37.585   5.255  61.701  1.00  0.00     0.032 C 
HETATM    8  C4  UNL     1      37.273   4.070  60.840  1.00  0.00     0.275 C 
HETATM    9  N1  UNL     1      36.089   3.355  61.185  1.00  0.00     0.109 N 
HETATM   10  O1  UNL     1      32.648   4.281  61.825  1.00  0.00    -0.271 OA
BRANCH   9  11
HETATM   11  C2  UNL     1      36.321   1.989  61.572  1.00  0.00     0.217 C 
HETATM   12  C1  UNL     1      36.682   1.208  60.323  1.00  0.00     0.042 C 
HETATM   13  C3  UNL     1      35.138   1.363  62.277  1.00  0.00     0.042 C 
ENDBRANCH   9  11
ENDBRANCH   1   2
BRANCH   1  14
HETATM   14  N3  UNL     1      31.144   6.359  61.180  1.00  0.00    -0.329 N 
HETATM   15  C10 UNL     1      31.019   7.207  62.310  1.00  0.00     0.319 C 
HETATM   16  O2  UNL     1      32.036   7.810  62.721  1.00  0.00    -0.247 OA
HETATM   17  N4  UNL     1      29.784   7.378  62.966  1.00  0.00    -0.325 N 
HETATM   18  C11 UNL     1      29.559   8.205  64.107  1.00  0.00     0.138 C 
HETATM   19  C13 UNL     1      28.559   6.711  62.544  1.00  0.00     0.201 C 
HETATM   20  C12 UNL     1      28.444   9.194  63.737  1.00  0.00     0.095 C 
HETATM   21  S1  UNL     1      27.309   8.011  62.902  1.00  0.00    -0.147 SA
ATOM     22  H3  UNL     1      30.322   5.863  60.836  1.00  0.00     0.165 HD
ENDBRANCH   1  14
BRANCH   1  23
HETATM   23  C14 UNL     1      32.192   5.762  59.065  1.00  0.00     0.114 C 
HETATM   24  C15 UNL     1      32.902   6.731  58.102  1.00  0.00     0.180 C 
HETATM   25  O3  UNL     1      32.348   6.657  56.825  1.00  0.00    -0.390 OA
HETATM   26  C16 UNL     1      32.011   5.340  56.552  1.00  0.00     0.173 C 
HETATM   27  C17 UNL     1      30.733   5.001  57.298  1.00  0.00     0.105 C 
HETATM   28  C18 UNL     1      30.756   5.756  58.645  1.00  0.00     0.253 C 
HETATM   29  F1  UNL     1      29.903   5.104  59.478  1.00  0.00    -0.206 F 
HETATM   30  F2  UNL     1      30.259   7.014  58.371  1.00  0.00    -0.206 F 
ENDBRANCH   1  23
TORSDOF 4
ENDMDL
MODEL 5
REMARK VINA RESULT: -7.396269310      7.823     12.182
REMARK  4 active torsions:
REMARK  status: ('A' for Active; 'I' for Inactive)
REMARK    1  A    between atoms: C2_2  and  N1_4 
REMARK       I    between atoms: N2_9  and  C8_10 
REMARK    2  A    between atoms: C8_10  and  C9_12 
REMARK    3  A    between atoms: C9_12  and  N3_13 
REMARK    4  A    between atoms: C9_12  and  C14_22 
REMARK       I    between atoms: N3_13  and  C10_15 
REMARK       I    between atoms: C10_15  and  N4_17 
ROOT
HETATM    1  C9  UNL     1      41.385   4.466  63.833  1.00  0.00     0.190 C 
ENDROOT
BRANCH   1   2
HETATM    2  C8  UNL     1      40.151   4.959  63.214  1.00  0.00     0.244 C 
HETATM    3  N2  UNL     1      38.830   4.810  63.691  1.00  0.00    -0.325 N 
HETATM    4  C7  UNL     1      38.534   4.150  64.927  1.00  0.00     0.128 C 
HETATM    5  C19 UNL     1      37.826   5.403  62.778  1.00  0.00     0.400 C 
HETATM    6  C6  UNL     1      37.284   4.694  65.593  1.00  0.00     0.022 C 
HETATM    7  C5  UNL     1      36.091   4.750  64.711  1.00  0.00     0.032 C 
HETATM    8  C4  UNL     1      36.136   3.868  63.502  1.00  0.00     0.275 C 
HETATM    9  N1  UNL     1      36.931   4.349  62.421  1.00  0.00     0.109 N 
HETATM   10  O1  UNL     1      40.313   5.603  62.106  1.00  0.00    -0.271 OA
BRANCH   9  11
HETATM   11  C2  UNL     1      36.192   4.593  61.211  1.00  0.00     0.217 C 
HETATM   12  C1  UNL     1      36.155   6.092  60.984  1.00  0.00     0.042 C 
HETATM   13  C3  UNL     1      34.794   4.017  61.245  1.00  0.00     0.042 C 
ENDBRANCH   9  11
ENDBRANCH   1   2
BRANCH   1  14
HETATM   14  N3  UNL     1      42.491   5.413  63.641  1.00  0.00    -0.329 N 
HETATM   15  C10 UNL     1      43.114   6.058  64.739  1.00  0.00     0.319 C 
HETATM   16  O2  UNL     1      42.701   5.803  65.894  1.00  0.00    -0.247 OA
HETATM   17  N4  UNL     1      44.175   6.965  64.554  1.00  0.00    -0.325 N 
HETATM   18  C11 UNL     1      44.861   7.662  65.593  1.00  0.00     0.138 C 
HETATM   19  C13 UNL     1      44.708   7.308  63.242  1.00  0.00     0.201 C 
HETATM   20  C12 UNL     1      46.353   7.326  65.454  1.00  0.00     0.095 C 
HETATM   21  S1  UNL     1      46.495   7.504  63.629  1.00  0.00    -0.147 SA
ATOM     22  H3  UNL     1      42.819   5.612  62.695  1.00  0.00     0.165 HD
ENDBRANCH   1  14
BRANCH   1  23
HETATM   23  C14 UNL     1      41.776   3.111  63.297  1.00  0.00     0.114 C 
HETATM   24  C15 UNL     1      41.573   2.034  64.378  1.00  0.00     0.180 C 
HETATM   25  O3  UNL     1      42.326   0.896  64.093  1.00  0.00    -0.390 OA
HETATM   26  C16 UNL     1      42.328   0.684  62.723  1.00  0.00     0.173 C 
HETATM   27  C17 UNL     1      43.284   1.672  62.079  1.00  0.00     0.105 C 
HETATM   28  C18 UNL     1      43.207   2.994  62.875  1.00  0.00     0.253 C 
HETATM   29  F1  UNL     1      43.659   3.977  62.053  1.00  0.00    -0.206 F 
HETATM   30  F2  UNL     1      44.081   2.840  63.931  1.00  0.00    -0.206 F 
ENDBRANCH   1  23
TORSDOF 4
ENDMDL
