MODEL 1
REMARK VINA RESULT: -7.295207351      0.000      0.000
REMARK  6 active torsions:
REMARK  status: ('A' for Active; 'I' for Inactive)
REMARK       I    between atoms: C2_2  and  N1_4 
REMARK    1  A    between atoms: N2_7  and  C5_8 
REMARK    2  A    between atoms: C5_8  and  C6_9 
REMARK    3  A    between atoms: C6_9  and  N3_10 
REMARK    4  A    between atoms: C10_14  and  N4_15 
REMARK       I    between atoms: N4_15  and  C11_17 
REMARK    5  A    between atoms: C11_17  and  O3_19 
REMARK    6  A    between atoms: O3_19  and  C12_20 
ROOT
HETATM    1  N3  UNL     1      35.733   4.941  62.669  1.00  0.00    -0.349 N 
HETATM    2  C7  UNL     1      35.626   6.156  63.435  1.00  0.00     0.126 C 
HETATM    3  C8  UNL     1      35.102   5.856  64.801  1.00  0.00     0.022 C 
HETATM    4  C9  UNL     1      35.756   4.749  65.535  1.00  0.00     0.037 C 
HETATM    5  C10 UNL     1      36.718   3.904  64.776  1.00  0.00     0.179 C 
HETATM    6  C16 UNL     1      36.391   3.860  63.304  1.00  0.00     0.242 C 
HETATM    7  O4  UNL     1      36.735   2.818  62.687  1.00  0.00    -0.271 OA
ENDROOT
BRANCH   1   8
HETATM    8  C6  UNL     1      35.221   4.783  61.339  1.00  0.00     0.145 C 
BRANCH   8   9
HETATM    9  C5  UNL     1      34.696   6.067  60.745  1.00  0.00     0.142 C 
BRANCH   9  10
HETATM   10  N2  UNL     1      35.596   6.579  59.745  1.00  0.00    -0.347 N 
HETATM   11  C4  UNL     1      36.856   5.932  59.667  1.00  0.00     0.142 C 
HETATM   12  C3  UNL     1      37.875   6.804  60.418  1.00  0.00     0.146 C 
HETATM   13  N1  UNL     1      38.074   7.950  59.558  1.00  0.00    -0.334 N 
HETATM   14  C2  UNL     1      39.376   8.370  59.270  1.00  0.00     0.216 C 
HETATM   15  C18 UNL     1      36.867   8.574  59.064  1.00  0.00     0.114 C 
HETATM   16  C1  UNL     1      40.531   7.658  59.834  1.00  0.00     0.117 C 
HETATM   17  O1  UNL     1      39.581   9.351  58.533  1.00  0.00    -0.274 OA
HETATM   18  C17 UNL     1      35.625   7.994  59.644  1.00  0.00     0.344 C 
HETATM   19  C19 UNL     1      36.800   8.617  57.565  1.00  0.00     0.047 C 
HETATM   20  C20 UNL     1      36.930  10.037  59.530  1.00  0.00     0.047 C 
HETATM   21  F1  UNL     1      34.555   8.376  58.826  1.00  0.00    -0.180 F 
HETATM   22  F2  UNL     1      35.354   8.591  60.881  1.00  0.00    -0.180 F 
ENDBRANCH   9  10
ENDBRANCH   8   9
ENDBRANCH   1   8
BRANCH   5  23
HETATM   23  N4  UNL     1      38.086   4.374  64.917  1.00  0.00    -0.324 N 
HETATM   24  C11 UNL     1      39.094   3.553  65.492  1.00  0.00     0.362 C 
HETATM   25  O2  UNL     1      38.812   2.380  65.897  1.00  0.00    -0.238 OA
ATOM     26  H4  UNL     1      38.328   5.312  64.597  1.00  0.00     0.165 HD
BRANCH  24  27
HETATM   27  O3  UNL     1      40.398   3.965  65.639  1.00  0.00    -0.294 OA
BRANCH  27  28
HETATM   28  C12 UNL     1      41.277   3.984  64.531  1.00  0.00     0.061 C 
HETATM   29  C13 UNL     1      41.690   2.588  64.108  1.00  0.00     0.046 C 
HETATM   30  C14 UNL     1      42.526   4.746  64.982  1.00  0.00     0.046 C 
HETATM   31  C15 UNL     1      40.674   4.678  63.344  1.00  0.00     0.046 C 
ENDBRANCH  27  28
ENDBRANCH  24  27
ENDBRANCH   5  23
TORSDOF 6
ENDMDL
MODEL 2
REMARK VINA RESULT: -7.255908503      5.070      8.630
REMARK  6 active torsions:
REMARK  status: ('A' for Active; 'I' for Inactive)
REMARK       I    between atoms: C2_2  and  N1_4 
REMARK    1  A    between atoms: N2_7  and  C5_8 
REMARK    2  A    between atoms: C5_8  and  C6_9 
REMARK    3  A    between atoms: C6_9  and  N3_10 
REMARK    4  A    between atoms: C10_14  and  N4_15 
REMARK       I    between atoms: N4_15  and  C11_17 
REMARK    5  A    between atoms: C11_17  and  O3_19 
REMARK    6  A    between atoms: O3_19  and  C12_20 
ROOT
HETATM    1  N3  UNL     1      42.228   4.754  64.358  1.00  0.00    -0.349 N 
HETATM    2  C7  UNL     1      42.046   5.501  63.139  1.00  0.00     0.126 C 
HETATM    3  C8  UNL     1      41.610   4.588  62.041  1.00  0.00     0.022 C 
HETATM    4  C9  UNL     1      40.491   3.669  62.345  1.00  0.00     0.037 C 
HETATM    5  C10 UNL     1      40.046   3.583  63.763  1.00  0.00     0.179 C 
HETATM    6  C16 UNL     1      41.167   3.891  64.725  1.00  0.00     0.242 C 
HETATM    7  O4  UNL     1      41.101   3.340  65.855  1.00  0.00    -0.271 OA
ENDROOT
BRANCH   1   8
HETATM    8  C6  UNL     1      43.395   4.844  65.187  1.00  0.00     0.145 C 
BRANCH   8   9
HETATM    9  C5  UNL     1      44.556   4.031  64.674  1.00  0.00     0.142 C 
BRANCH   9  10
HETATM   10  N2  UNL     1      45.794   4.754  64.812  1.00  0.00    -0.347 N 
HETATM   11  C4  UNL     1      45.944   5.484  66.019  1.00  0.00     0.142 C 
HETATM   12  C3  UNL     1      45.612   6.955  65.720  1.00  0.00     0.146 C 
HETATM   13  N1  UNL     1      46.737   7.428  64.942  1.00  0.00    -0.334 N 
HETATM   14  C2  UNL     1      47.343   8.639  65.287  1.00  0.00     0.216 C 
HETATM   15  C18 UNL     1      47.136   6.577  63.844  1.00  0.00     0.114 C 
HETATM   16  C1  UNL     1      46.847   9.425  66.426  1.00  0.00     0.117 C 
HETATM   17  O1  UNL     1      48.314   9.074  64.640  1.00  0.00    -0.274 OA
HETATM   18  C17 UNL     1      46.224   5.420  63.635  1.00  0.00     0.344 C 
HETATM   19  C19 UNL     1      48.568   6.132  63.939  1.00  0.00     0.047 C 
HETATM   20  C20 UNL     1      47.042   7.447  62.582  1.00  0.00     0.047 C 
HETATM   21  F1  UNL     1      46.902   4.480  62.849  1.00  0.00    -0.180 F 
HETATM   22  F2  UNL     1      45.131   5.812  62.852  1.00  0.00    -0.180 F 
ENDBRANCH   9  10
ENDBRANCH   8   9
ENDBRANCH   1   8
BRANCH   5  23
HETATM   23  N4  UNL     1      38.950   4.493  64.048  1.00  0.00    -0.324 N 
HETATM   24  C11 UNL     1      37.784   4.054  64.733  1.00  0.00     0.362 C 
HETATM   25  O2  UNL     1      37.681   2.844  65.112  1.00  0.00    -0.238 OA
ATOM     26  H4  UNL     1      39.018   5.466  63.750  1.00  0.00     0.165 HD
BRANCH  24  27
HETATM   27  O3  UNL     1      36.728   4.888  65.020  1.00  0.00    -0.294 OA
BRANCH  27  28
HETATM   28  C12 UNL     1      35.781   5.218  64.023  1.00  0.00     0.061 C 
HETATM   29  C13 UNL     1      36.430   5.852  62.808  1.00  0.00     0.046 C 
HETATM   30  C14 UNL     1      34.827   6.238  64.653  1.00  0.00     0.046 C 
HETATM   31  C15 UNL     1      34.998   4.020  63.570  1.00  0.00     0.046 C 
ENDBRANCH  27  28
ENDBRANCH  24  27
ENDBRANCH   5  23
TORSDOF 6
ENDMDL
MODEL 3
REMARK VINA RESULT: -7.199135998      3.757      7.506
REMARK  6 active torsions:
REMARK  status: ('A' for Active; 'I' for Inactive)
REMARK       I    between atoms: C2_2  and  N1_4 
REMARK    1  A    between atoms: N2_7  and  C5_8 
REMARK    2  A    between atoms: C5_8  and  C6_9 
REMARK    3  A    between atoms: C6_9  and  N3_10 
REMARK    4  A    between atoms: C10_14  and  N4_15 
REMARK       I    between atoms: N4_15  and  C11_17 
REMARK    5  A    between atoms: C11_17  and  O3_19 
REMARK    6  A    between atoms: O3_19  and  C12_20 
ROOT
HETATM    1  N3  UNL     1      36.332   4.979  62.049  1.00  0.00    -0.349 N 
HETATM    2  C7  UNL     1      35.784   3.942  62.884  1.00  0.00     0.126 C 
HETATM    3  C8  UNL     1      35.719   4.408  64.302  1.00  0.00     0.022 C 
HETATM    4  C9  UNL     1      35.116   5.739  64.537  1.00  0.00     0.037 C 
HETATM    5  C10 UNL     1      34.829   6.578  63.341  1.00  0.00     0.179 C 
HETATM    6  C16 UNL     1      35.762   6.267  62.197  1.00  0.00     0.242 C 
HETATM    7  O4  UNL     1      35.998   7.210  61.397  1.00  0.00    -0.271 OA
ENDROOT
BRANCH   1   8
HETATM    8  C6  UNL     1      37.393   4.772  61.105  1.00  0.00     0.145 C 
BRANCH   8   9
HETATM    9  C5  UNL     1      38.255   3.577  61.428  1.00  0.00     0.142 C 
BRANCH   9  10
HETATM   10  N2  UNL     1      39.566   3.988  61.856  1.00  0.00    -0.347 N 
HETATM   11  C4  UNL     1      40.651   3.358  61.193  1.00  0.00     0.142 C 
HETATM   12  C3  UNL     1      41.170   2.236  62.107  1.00  0.00     0.146 C 
HETATM   13  N1  UNL     1      41.841   2.930  63.185  1.00  0.00    -0.334 N 
HETATM   14  C2  UNL     1      43.120   2.519  63.568  1.00  0.00     0.216 C 
HETATM   15  C18 UNL     1      41.098   4.017  63.783  1.00  0.00     0.114 C 
HETATM   16  C1  UNL     1      43.778   1.395  62.888  1.00  0.00     0.117 C 
HETATM   17  O1  UNL     1      43.726   3.095  64.491  1.00  0.00    -0.274 OA
HETATM   18  C17 UNL     1      39.710   4.139  63.259  1.00  0.00     0.344 C 
HETATM   19  C19 UNL     1      41.824   5.330  63.715  1.00  0.00     0.047 C 
HETATM   20  C20 UNL     1      40.978   3.672  65.275  1.00  0.00     0.047 C 
HETATM   21  F1  UNL     1      39.242   5.416  63.591  1.00  0.00    -0.180 F 
HETATM   22  F2  UNL     1      38.863   3.263  63.949  1.00  0.00    -0.180 F 
ENDBRANCH   9  10
ENDBRANCH   8   9
ENDBRANCH   1   8
BRANCH   5  23
HETATM   23  N4  UNL     1      33.466   6.403  62.866  1.00  0.00    -0.324 N 
HETATM   24  C11 UNL     1      32.643   7.519  62.553  1.00  0.00     0.362 C 
HETATM   25  O2  UNL     1      33.092   8.703  62.686  1.00  0.00    -0.238 OA
ATOM     26  H4  UNL     1      33.093   5.460  62.755  1.00  0.00     0.165 HD
BRANCH  24  27
HETATM   27  O3  UNL     1      31.351   7.390  62.102  1.00  0.00    -0.294 OA
BRANCH  27  28
HETATM   28  C12 UNL     1      30.266   7.414  63.009  1.00  0.00     0.061 C 
HETATM   29  C13 UNL     1      30.651   6.875  64.372  1.00  0.00     0.046 C 
HETATM   30  C14 UNL     1      29.185   6.507  62.414  1.00  0.00     0.046 C 
HETATM   31  C15 UNL     1      29.709   8.797  63.187  1.00  0.00     0.046 C 
ENDBRANCH  27  28
ENDBRANCH  24  27
ENDBRANCH   5  23
TORSDOF 6
ENDMDL
MODEL 4
REMARK VINA RESULT: -7.189153294      3.990      7.749
REMARK  6 active torsions:
REMARK  status: ('A' for Active; 'I' for Inactive)
REMARK       I    between atoms: C2_2  and  N1_4 
REMARK    1  A    between atoms: N2_7  and  C5_8 
REMARK    2  A    between atoms: C5_8  and  C6_9 
REMARK    3  A    between atoms: C6_9  and  N3_10 
REMARK    4  A    between atoms: C10_14  and  N4_15 
REMARK       I    between atoms: N4_15  and  C11_17 
REMARK    5  A    between atoms: C11_17  and  O3_19 
REMARK    6  A    between atoms: O3_19  and  C12_20 
ROOT
HETATM    1  N3  UNL     1      35.149   6.291  62.033  1.00  0.00    -0.349 N 
HETATM    2  C7  UNL     1      34.651   7.195  61.029  1.00  0.00     0.126 C 
HETATM    3  C8  UNL     1      33.692   6.485  60.132  1.00  0.00     0.022 C 
HETATM    4  C9  UNL     1      32.632   5.689  60.790  1.00  0.00     0.037 C 
HETATM    5  C10 UNL     1      32.742   5.492  62.261  1.00  0.00     0.179 C 
HETATM    6  C16 UNL     1      34.175   5.535  62.730  1.00  0.00     0.242 C 
HETATM    7  O4  UNL     1      34.445   4.867  63.762  1.00  0.00    -0.271 OA
ENDROOT
BRANCH   1   8
HETATM    8  C6  UNL     1      36.539   6.129  62.350  1.00  0.00     0.145 C 
BRANCH   8   9
HETATM    9  C5  UNL     1      37.320   5.430  61.266  1.00  0.00     0.142 C 
BRANCH   9  10
HETATM   10  N2  UNL     1      38.194   4.431  61.823  1.00  0.00    -0.347 N 
HETATM   11  C4  UNL     1      37.764   3.854  63.045  1.00  0.00     0.142 C 
HETATM   12  C3  UNL     1      38.530   4.547  64.184  1.00  0.00     0.146 C 
HETATM   13  N1  UNL     1      39.880   4.038  64.073  1.00  0.00    -0.334 N 
HETATM   14  C2  UNL     1      40.528   3.569  65.219  1.00  0.00     0.216 C 
HETATM   15  C18 UNL     1      40.448   4.068  62.744  1.00  0.00     0.114 C 
HETATM   16  C1  UNL     1      39.850   3.591  66.522  1.00  0.00     0.117 C 
HETATM   17  O1  UNL     1      41.689   3.123  65.157  1.00  0.00    -0.274 OA
HETATM   18  C17 UNL     1      39.576   4.744  61.746  1.00  0.00     0.344 C 
HETATM   19  C19 UNL     1      40.880   2.713  62.261  1.00  0.00     0.047 C 
HETATM   20  C20 UNL     1      41.729   4.909  62.854  1.00  0.00     0.047 C 
HETATM   21  F1  UNL     1      40.018   4.369  60.472  1.00  0.00    -0.180 F 
HETATM   22  F2  UNL     1      39.781   6.129  61.797  1.00  0.00    -0.180 F 
ENDBRANCH   9  10
ENDBRANCH   8   9
ENDBRANCH   1   8
BRANCH   5  23
HETATM   23  N4  UNL     1      31.998   6.497  63.003  1.00  0.00    -0.324 N 
HETATM   24  C11 UNL     1      30.630   6.306  63.339  1.00  0.00     0.362 C 
HETATM   25  O2  UNL     1      30.028   5.240  62.990  1.00  0.00    -0.238 OA
ATOM     26  H4  UNL     1      32.468   7.356  63.289  1.00  0.00     0.165 HD
BRANCH  24  27
HETATM   27  O3  UNL     1      29.897   7.234  64.040  1.00  0.00    -0.294 OA
BRANCH  27  28
HETATM   28  C12 UNL     1      28.979   8.079  63.373  1.00  0.00     0.061 C 
HETATM   29  C13 UNL     1      29.600   8.755  62.167  1.00  0.00     0.046 C 
HETATM   30  C14 UNL     1      28.574   9.159  64.381  1.00  0.00     0.046 C 
HETATM   31  C15 UNL     1      27.755   7.337  62.921  1.00  0.00     0.046 C 
ENDBRANCH  27  28
ENDBRANCH  24  27
ENDBRANCH   5  23
TORSDOF 6
ENDMDL
MODEL 5
REMARK VINA RESULT: -7.187447879      4.443      7.694
REMARK  6 active torsions:
REMARK  status: ('A' for Active; 'I' for Inactive)
REMARK       I    between atoms: C2_2  and  N1_4 
REMARK    1  A    between atoms: N2_7  and  C5_8 
REMARK    2  A    between atoms: C5_8  and  C6_9 
REMARK    3  A    between atoms: C6_9  and  N3_10 
REMARK    4  A    between atoms: C10_14  and  N4_15 
REMARK       I    between atoms: N4_15  and  C11_17 
REMARK    5  A    between atoms: C11_17  and  O3_19 
REMARK    6  A    between atoms: O3_19  and  C12_20 
ROOT
HETATM    1  N3  UNL     1      41.117   3.017  63.785  1.00  0.00    -0.349 N 
HETATM    2  C7  UNL     1      40.829   2.158  64.905  1.00  0.00     0.126 C 
HETATM    3  C8  UNL     1      40.450   2.977  66.094  1.00  0.00     0.022 C 
HETATM    4  C9  UNL     1      39.432   4.030  65.879  1.00  0.00     0.037 C 
HETATM    5  C10 UNL     1      39.040   4.320  64.472  1.00  0.00     0.179 C 
HETATM    6  C16 UNL     1      40.155   4.017  63.502  1.00  0.00     0.242 C 
HETATM    7  O4  UNL     1      40.174   4.696  62.443  1.00  0.00    -0.271 OA
ENDROOT
BRANCH   1   8
HETATM    8  C6  UNL     1      42.294   2.909  62.972  1.00  0.00     0.145 C 
BRANCH   8   9
HETATM    9  C5  UNL     1      43.566   3.228  63.717  1.00  0.00     0.142 C 
BRANCH   9  10
HETATM   10  N2  UNL     1      44.103   4.497  63.301  1.00  0.00    -0.347 N 
HETATM   11  C4  UNL     1      45.386   4.451  62.699  1.00  0.00     0.142 C 
HETATM   12  C3  UNL     1      46.418   4.846  63.768  1.00  0.00     0.146 C 
HETATM   13  N1  UNL     1      46.225   6.268  63.949  1.00  0.00    -0.334 N 
HETATM   14  C2  UNL     1      47.337   7.114  63.943  1.00  0.00     0.216 C 
HETATM   15  C18 UNL     1      44.854   6.692  64.127  1.00  0.00     0.114 C 
HETATM   16  C1  UNL     1      48.689   6.569  63.757  1.00  0.00     0.117 C 
HETATM   17  O1  UNL     1      47.205   8.343  64.095  1.00  0.00    -0.274 OA
HETATM   18  C17 UNL     1      43.895   5.557  64.222  1.00  0.00     0.344 C 
HETATM   19  C19 UNL     1      44.413   7.694  63.099  1.00  0.00     0.047 C 
HETATM   20  C20 UNL     1      44.812   7.420  65.479  1.00  0.00     0.047 C 
HETATM   21  F1  UNL     1      42.612   6.065  63.990  1.00  0.00    -0.180 F 
HETATM   22  F2  UNL     1      43.853   5.080  65.538  1.00  0.00    -0.180 F 
ENDBRANCH   9  10
ENDBRANCH   8   9
ENDBRANCH   1   8
BRANCH   5  23
HETATM   23  N4  UNL     1      37.871   3.560  64.063  1.00  0.00    -0.324 N 
HETATM   24  C11 UNL     1      36.733   4.200  63.500  1.00  0.00     0.362 C 
HETATM   25  O2  UNL     1      36.720   5.463  63.345  1.00  0.00    -0.238 OA
ATOM     26  H4  UNL     1      37.867   2.547  64.183  1.00  0.00     0.165 HD
BRANCH  24  27
HETATM   27  O3  UNL     1      35.611   3.512  63.102  1.00  0.00    -0.294 OA
BRANCH  27  28
HETATM   28  C12 UNL     1      35.539   2.937  61.811  1.00  0.00     0.061 C 
HETATM   29  C13 UNL     1      34.451   3.568  60.966  1.00  0.00     0.046 C 
HETATM   30  C14 UNL     1      35.201   1.457  62.015  1.00  0.00     0.046 C 
HETATM   31  C15 UNL     1      36.840   3.051  61.070  1.00  0.00     0.046 C 
ENDBRANCH  27  28
ENDBRANCH  24  27
ENDBRANCH   5  23
TORSDOF 6
ENDMDL
