MODEL 1
REMARK VINA RESULT: -3.113008854      0.000      0.000
REMARK  1 active torsions:
REMARK  status: ('A' for Active; 'I' for Inactive)
REMARK    1  A    between atoms: N2_8  and  C6_9 
ROOT
HETATM    1  C1  UNL     1     -22.453  60.431   0.334  1.00  0.00     0.050 C 
HETATM    2  C2  UNL     1     -21.227  60.454   1.145  1.00  0.00    -0.033 A 
HETATM    3  C3  UNL     1     -20.116  61.191   0.747  1.00  0.00     0.024 A 
HETATM    4  C4  UNL     1     -19.004  61.243   1.527  1.00  0.00     0.011 A 
HETATM    5  C5  UNL     1     -17.850  61.988   1.416  1.00  0.00     0.121 A 
HETATM    6  N1  UNL     1     -17.167  61.781   2.479  1.00  0.00    -0.304 N 
ATOM      7  H1  UNL     1     -16.262  62.211   2.666  1.00  0.00     0.186 HD
HETATM    8  N2  UNL     1     -17.805  60.896   3.353  1.00  0.00    -0.255 N 
HETATM    9  C12 UNL     1     -18.912  60.561   2.763  1.00  0.00     0.083 A 
HETATM   10  C13 UNL     1     -19.999  59.799   3.193  1.00  0.00     0.050 A 
HETATM   11  C14 UNL     1     -21.128  59.792   2.339  1.00  0.00     0.065 A 
HETATM   12  N3  UNL     1     -22.269  58.997   2.653  1.00  0.00    -0.275 N 
HETATM   13  C15 UNL     1     -22.966  58.308   1.642  1.00  0.00     0.170 C 
HETATM   14  S1  UNL     1     -22.669  58.883   4.370  1.00  0.00     0.267 S 
HETATM   15  O1  UNL     1     -23.199  60.155   4.896  1.00  0.00    -0.200 OA
HETATM   16  O2  UNL     1     -23.574  57.721   4.515  1.00  0.00    -0.200 OA
HETATM   17  C16 UNL     1     -21.074  58.467   5.016  1.00  0.00     0.108 A 
HETATM   18  C17 UNL     1     -21.031  57.573   5.989  1.00  0.00     0.041 A 
HETATM   19  C18 UNL     1     -19.827  57.225   6.551  1.00  0.00    -0.008 A 
HETATM   20  C19 UNL     1     -19.710  56.301   7.548  1.00  0.00     0.014 A 
HETATM   21  C20 UNL     1     -18.492  55.951   8.095  1.00  0.00     0.001 A 
HETATM   22  C21 UNL     1     -17.345  56.557   7.618  1.00  0.00     0.002 A 
HETATM   23  C22 UNL     1     -17.481  57.490   6.607  1.00  0.00     0.030 A 
HETATM   24  C23 UNL     1     -18.706  57.851   6.050  1.00  0.00     0.043 A 
HETATM   25  N4  UNL     1     -18.840  58.751   5.059  1.00  0.00    -0.353 N 
ATOM     26  H4  UNL     1     -17.981  59.187   4.724  1.00  0.00     0.166 HD
HETATM   27  C24 UNL     1     -19.973  59.136   4.464  1.00  0.00     0.071 A 
ENDROOT
BRANCH   8  28
HETATM   28  C6  UNL     1     -17.101  60.853   4.554  1.00  0.00     0.057 A 
HETATM   29  C7  UNL     1     -17.153  61.787   5.593  1.00  0.00     0.031 A 
HETATM   30  C8  UNL     1     -16.312  61.824   6.660  1.00  0.00     0.002 A 
HETATM   31  C9  UNL     1     -15.327  60.850   6.710  1.00  0.00     0.000 A 
HETATM   32  C10 UNL     1     -15.202  59.896   5.738  1.00  0.00     0.002 A 
HETATM   33  C11 UNL     1     -16.070  59.893   4.681  1.00  0.00     0.031 A 
ENDBRANCH   8  28
TORSDOF 1
ENDMDL
MODEL 2
REMARK VINA RESULT: -3.055410625      2.193      4.932
REMARK  1 active torsions:
REMARK  status: ('A' for Active; 'I' for Inactive)
REMARK    1  A    between atoms: N2_8  and  C6_9 
ROOT
HETATM    1  C1  UNL     1     -24.513  58.902   1.437  1.00  0.00     0.050 C 
HETATM    2  C2  UNL     1     -23.524  58.582   2.478  1.00  0.00    -0.033 A 
HETATM    3  C3  UNL     1     -23.770  57.586   3.419  1.00  0.00     0.024 A 
HETATM    4  C4  UNL     1     -22.832  57.266   4.349  1.00  0.00     0.011 A 
HETATM    5  C5  UNL     1     -22.786  56.255   5.284  1.00  0.00     0.121 A 
HETATM    6  N1  UNL     1     -21.626  56.297   5.824  1.00  0.00    -0.304 N 
ATOM      7  H1  UNL     1     -21.315  55.656   6.554  1.00  0.00     0.186 HD
HETATM    8  N2  UNL     1     -20.835  57.323   5.299  1.00  0.00    -0.255 N 
HETATM    9  C12 UNL     1     -21.577  57.918   4.415  1.00  0.00     0.083 A 
HETATM   10  C13 UNL     1     -21.297  58.932   3.500  1.00  0.00     0.050 A 
HETATM   11  C14 UNL     1     -22.312  59.211   2.553  1.00  0.00     0.065 A 
HETATM   12  N3  UNL     1     -22.153  60.270   1.611  1.00  0.00    -0.275 N 
HETATM   13  C15 UNL     1     -23.239  61.100   1.273  1.00  0.00     0.170 C 
HETATM   14  S1  UNL     1     -20.514  60.499   0.992  1.00  0.00     0.267 S 
HETATM   15  O1  UNL     1     -20.111  59.406   0.088  1.00  0.00    -0.200 OA
HETATM   16  O2  UNL     1     -20.477  61.853   0.393  1.00  0.00    -0.200 OA
HETATM   17  C16 UNL     1     -19.622  60.510   2.521  1.00  0.00     0.108 A 
HETATM   18  C17 UNL     1     -18.629  61.376   2.634  1.00  0.00     0.041 A 
HETATM   19  C18 UNL     1     -17.881  61.418   3.785  1.00  0.00    -0.008 A 
HETATM   20  C19 UNL     1     -16.852  62.295   3.973  1.00  0.00     0.014 A 
HETATM   21  C20 UNL     1     -16.116  62.334   5.140  1.00  0.00     0.001 A 
HETATM   22  C21 UNL     1     -16.430  61.457   6.159  1.00  0.00     0.002 A 
HETATM   23  C22 UNL     1     -17.475  60.576   5.953  1.00  0.00     0.030 A 
HETATM   24  C23 UNL     1     -18.222  60.526   4.779  1.00  0.00     0.043 A 
HETATM   25  N4  UNL     1     -19.247  59.678   4.580  1.00  0.00    -0.353 N 
ATOM     26  H4  UNL     1     -19.459  59.037   5.344  1.00  0.00     0.166 HD
HETATM   27  C24 UNL     1     -20.018  59.581   3.492  1.00  0.00     0.071 A 
ENDROOT
BRANCH   8  28
HETATM   28  C6  UNL     1     -19.540  57.202   5.797  1.00  0.00     0.057 A 
HETATM   29  C7  UNL     1     -18.386  56.894   5.072  1.00  0.00     0.031 A 
HETATM   30  C8  UNL     1     -17.176  56.587   5.612  1.00  0.00     0.002 A 
HETATM   31  C9  UNL     1     -17.095  56.584   6.995  1.00  0.00     0.000 A 
HETATM   32  C10 UNL     1     -18.173  56.874   7.784  1.00  0.00     0.002 A 
HETATM   33  C11 UNL     1     -19.373  57.178   7.202  1.00  0.00     0.031 A 
ENDBRANCH   8  28
TORSDOF 1
ENDMDL
MODEL 3
REMARK VINA RESULT: -2.932656719      3.031      5.456
REMARK  1 active torsions:
REMARK  status: ('A' for Active; 'I' for Inactive)
REMARK    1  A    between atoms: N2_8  and  C6_9 
ROOT
HETATM    1  C1  UNL     1     -16.320  63.488   4.560  1.00  0.00     0.050 C 
HETATM    2  C2  UNL     1     -17.496  62.610   4.463  1.00  0.00    -0.033 A 
HETATM    3  C3  UNL     1     -18.620  62.993   3.738  1.00  0.00     0.024 A 
HETATM    4  C4  UNL     1     -19.683  62.155   3.616  1.00  0.00     0.011 A 
HETATM    5  C5  UNL     1     -20.833  62.249   2.863  1.00  0.00     0.121 A 
HETATM    6  N1  UNL     1     -21.454  61.136   2.987  1.00  0.00    -0.304 N 
ATOM      7  H1  UNL     1     -22.342  60.926   2.531  1.00  0.00     0.186 HD
HETATM    8  N2  UNL     1     -20.776  60.242   3.820  1.00  0.00    -0.255 N 
HETATM    9  C12 UNL     1     -19.709  60.871   4.211  1.00  0.00     0.083 A 
HETATM   10  C13 UNL     1     -18.608  60.454   4.959  1.00  0.00     0.050 A 
HETATM   11  C14 UNL     1     -17.531  61.369   5.040  1.00  0.00     0.065 A 
HETATM   12  N3  UNL     1     -16.382  61.068   5.830  1.00  0.00    -0.275 N 
HETATM   13  C15 UNL     1     -15.755  62.069   6.597  1.00  0.00     0.170 C 
HETATM   14  S1  UNL     1     -15.883  59.374   5.833  1.00  0.00     0.267 S 
HETATM   15  O1  UNL     1     -15.309  58.969   4.536  1.00  0.00    -0.200 OA
HETATM   16  O2  UNL     1     -14.984  59.202   6.996  1.00  0.00    -0.200 OA
HETATM   17  C16 UNL     1     -17.441  58.609   6.180  1.00  0.00     0.108 A 
HETATM   18  C17 UNL     1     -17.437  57.576   7.005  1.00  0.00     0.041 A 
HETATM   19  C18 UNL     1     -18.609  56.922   7.295  1.00  0.00    -0.008 A 
HETATM   20  C19 UNL     1     -18.678  55.859   8.147  1.00  0.00     0.014 A 
HETATM   21  C20 UNL     1     -19.865  55.219   8.440  1.00  0.00     0.001 A 
HETATM   22  C21 UNL     1     -21.031  55.669   7.851  1.00  0.00     0.002 A 
HETATM   23  C22 UNL     1     -20.944  56.748   6.991  1.00  0.00     0.030 A 
HETATM   24  C23 UNL     1     -19.751  57.399   6.688  1.00  0.00     0.043 A 
HETATM   25  N4  UNL     1     -19.666  58.456   5.860  1.00  0.00    -0.353 N 
ATOM     26  H4  UNL     1     -20.538  58.769   5.434  1.00  0.00     0.166 HD
HETATM   27  C24 UNL     1     -18.566  59.140   5.532  1.00  0.00     0.071 A 
ENDROOT
BRANCH   8  28
HETATM   28  C6  UNL     1     -21.407  59.002   3.770  1.00  0.00     0.057 A 
HETATM   29  C7  UNL     1     -20.895  57.819   3.230  1.00  0.00     0.031 A 
HETATM   30  C8  UNL     1     -21.607  56.680   3.016  1.00  0.00     0.002 A 
HETATM   31  C9  UNL     1     -22.947  56.708   3.367  1.00  0.00     0.000 A 
HETATM   32  C10 UNL     1     -23.532  57.821   3.903  1.00  0.00     0.002 A 
HETATM   33  C11 UNL     1     -22.781  58.948   4.103  1.00  0.00     0.031 A 
ENDBRANCH   8  28
TORSDOF 1
ENDMDL
MODEL 4
REMARK VINA RESULT: -2.908107495      2.555      6.958
REMARK  1 active torsions:
REMARK  status: ('A' for Active; 'I' for Inactive)
REMARK    1  A    between atoms: N2_8  and  C6_9 
ROOT
HETATM    1  C1  UNL     1     -15.055  59.963   7.296  1.00  0.00     0.050 C 
HETATM    2  C2  UNL     1     -16.285  59.403   6.716  1.00  0.00    -0.033 A 
HETATM    3  C3  UNL     1     -16.829  58.216   7.194  1.00  0.00     0.024 A 
HETATM    4  C4  UNL     1     -17.991  57.731   6.682  1.00  0.00     0.011 A 
HETATM    5  C5  UNL     1     -18.781  56.669   7.065  1.00  0.00     0.121 A 
HETATM    6  N1  UNL     1     -19.842  56.713   6.350  1.00  0.00    -0.304 N 
ATOM      7  H1  UNL     1     -20.607  56.043   6.425  1.00  0.00     0.186 HD
HETATM    8  N2  UNL     1     -19.830  57.786   5.454  1.00  0.00    -0.255 N 
HETATM    9  C12 UNL     1     -18.698  58.391   5.649  1.00  0.00     0.083 A 
HETATM   10  C13 UNL     1     -18.179  59.578   5.131  1.00  0.00     0.050 A 
HETATM   11  C14 UNL     1     -16.972  60.033   5.713  1.00  0.00     0.065 A 
HETATM   12  N3  UNL     1     -16.324  61.202   5.216  1.00  0.00    -0.275 N 
HETATM   13  C15 UNL     1     -14.921  61.254   5.106  1.00  0.00     0.170 C 
HETATM   14  S1  UNL     1     -17.397  62.502   4.687  1.00  0.00     0.267 S 
HETATM   15  O1  UNL     1     -18.073  63.152   5.824  1.00  0.00    -0.200 OA
HETATM   16  O2  UNL     1     -16.580  63.404   3.844  1.00  0.00    -0.200 OA
HETATM   17  C16 UNL     1     -18.496  61.572   3.656  1.00  0.00     0.108 A 
HETATM   18  C17 UNL     1     -18.889  62.139   2.527  1.00  0.00     0.041 A 
HETATM   19  C18 UNL     1     -19.761  61.482   1.695  1.00  0.00    -0.008 A 
HETATM   20  C19 UNL     1     -20.197  62.002   0.511  1.00  0.00     0.014 A 
HETATM   21  C20 UNL     1     -21.064  61.325  -0.322  1.00  0.00     0.001 A 
HETATM   22  C21 UNL     1     -21.510  60.072   0.052  1.00  0.00     0.002 A 
HETATM   23  C22 UNL     1     -21.060  59.559   1.254  1.00  0.00     0.030 A 
HETATM   24  C23 UNL     1     -20.186  60.235   2.103  1.00  0.00     0.043 A 
HETATM   25  N4  UNL     1     -19.737  59.733   3.267  1.00  0.00    -0.353 N 
ATOM     26  H4  UNL     1     -20.082  58.809   3.525  1.00  0.00     0.166 HD
HETATM   27  C24 UNL     1     -18.890  60.311   4.124  1.00  0.00     0.071 A 
ENDROOT
BRANCH   8  28
HETATM   28  C6  UNL     1     -21.077  57.881   4.839  1.00  0.00     0.057 A 
HETATM   29  C7  UNL     1     -21.608  57.016   3.879  1.00  0.00     0.031 A 
HETATM   30  C8  UNL     1     -22.736  57.243   3.155  1.00  0.00     0.002 A 
HETATM   31  C9  UNL     1     -23.403  58.433   3.398  1.00  0.00     0.000 A 
HETATM   32  C10 UNL     1     -22.956  59.338   4.320  1.00  0.00     0.002 A 
HETATM   33  C11 UNL     1     -21.817  59.072   5.029  1.00  0.00     0.031 A 
ENDBRANCH   8  28
TORSDOF 1
ENDMDL
MODEL 5
REMARK VINA RESULT: -1.354035981      2.239      4.847
REMARK  1 active torsions:
REMARK  status: ('A' for Active; 'I' for Inactive)
REMARK    1  A    between atoms: N2_8  and  C6_9 
ROOT
HETATM    1  C1  UNL     1     -24.521  58.432   1.513  1.00  0.00     0.050 C 
HETATM    2  C2  UNL     1     -23.462  58.263   2.519  1.00  0.00    -0.033 A 
HETATM    3  C3  UNL     1     -23.594  57.340   3.552  1.00  0.00     0.024 A 
HETATM    4  C4  UNL     1     -22.591  57.158   4.451  1.00  0.00     0.011 A 
HETATM    5  C5  UNL     1     -22.432  56.237   5.463  1.00  0.00     0.121 A 
HETATM    6  N1  UNL     1     -21.251  56.394   5.931  1.00  0.00    -0.304 N 
ATOM      7  H1  UNL     1     -20.862  55.839   6.693  1.00  0.00     0.186 HD
HETATM    8  N2  UNL     1     -20.556  57.415   5.278  1.00  0.00    -0.255 N 
HETATM    9  C12 UNL     1     -21.379  57.886   4.391  1.00  0.00     0.083 A 
HETATM   10  C13 UNL     1     -21.211  58.831   3.379  1.00  0.00     0.050 A 
HETATM   11  C14 UNL     1     -22.289  58.967   2.472  1.00  0.00     0.065 A 
HETATM   12  N3  UNL     1     -22.247  59.947   1.437  1.00  0.00    -0.275 N 
HETATM   13  C15 UNL     1     -23.400  60.679   1.093  1.00  0.00     0.170 C 
HETATM   14  S1  UNL     1     -20.661  60.218   0.708  1.00  0.00     0.267 S 
HETATM   15  O1  UNL     1     -20.236  59.076  -0.122  1.00  0.00    -0.200 OA
HETATM   16  O2  UNL     1     -20.741  61.514  -0.002  1.00  0.00    -0.200 OA
HETATM   17  C16 UNL     1     -19.693  60.415   2.178  1.00  0.00     0.108 A 
HETATM   18  C17 UNL     1     -18.753  61.345   2.162  1.00  0.00     0.041 A 
HETATM   19  C18 UNL     1     -17.950  61.531   3.261  1.00  0.00    -0.008 A 
HETATM   20  C19 UNL     1     -16.971  62.479   3.316  1.00  0.00     0.014 A 
HETATM   21  C20 UNL     1     -16.180  62.664   4.431  1.00  0.00     0.001 A 
HETATM   22  C21 UNL     1     -16.384  61.861   5.537  1.00  0.00     0.002 A 
HETATM   23  C22 UNL     1     -17.380  60.905   5.465  1.00  0.00     0.030 A 
HETATM   24  C23 UNL     1     -18.182  60.710   4.343  1.00  0.00     0.043 A 
HETATM   25  N4  UNL     1     -19.160  59.788   4.275  1.00  0.00    -0.353 N 
ATOM     26  H4  UNL     1     -19.291  59.205   5.101  1.00  0.00     0.166 HD
HETATM   27  C24 UNL     1     -19.978  59.552   3.245  1.00  0.00     0.071 A 
ENDROOT
BRANCH   8  28
HETATM   28  C6  UNL     1     -19.231  57.415   5.710  1.00  0.00     0.057 A 
HETATM   29  C7  UNL     1     -18.712  58.065   6.833  1.00  0.00     0.031 A 
HETATM   30  C8  UNL     1     -17.391  58.211   7.116  1.00  0.00     0.002 A 
HETATM   31  C9  UNL     1     -16.495  57.665   6.209  1.00  0.00     0.000 A 
HETATM   32  C10 UNL     1     -16.914  57.011   5.084  1.00  0.00     0.002 A 
HETATM   33  C11 UNL     1     -18.253  56.885   4.835  1.00  0.00     0.031 A 
ENDBRANCH   8  28
TORSDOF 1
ENDMDL
