MODEL 1
REMARK VINA RESULT: 1.770687557      0.000      0.000
REMARK  1 active torsions:
REMARK  status: ('A' for Active; 'I' for Inactive)
REMARK    1  A    between atoms: N1_6  and  C4_8 
ROOT
HETATM    1  S1  UNL     1     -15.658  60.734   4.493  1.00  0.00    -0.072 SA
HETATM    2  C1  UNL     1     -16.671  59.614   5.083  1.00  0.00     0.079 C 
HETATM    3  S2  UNL     1     -16.100  58.533   6.374  1.00  0.00    -0.111 SA
HETATM    4  C2  UNL     1     -17.378  57.265   6.606  1.00  0.00     0.138 C 
HETATM    5  C3  UNL     1     -18.690  57.905   6.373  1.00  0.00     0.030 C 
HETATM    6  N1  UNL     1     -19.687  57.821   7.220  1.00  0.00    -0.358 N 
ATOM      7  H1  UNL     1     -20.587  58.269   7.042  1.00  0.00     0.166 HD
HETATM    8  C10 UNL     1     -18.985  58.691   5.166  1.00  0.00     0.001 A 
HETATM    9  C11 UNL     1     -20.262  58.625   4.616  1.00  0.00     0.026 A 
HETATM   10  C12 UNL     1     -20.606  59.335   3.487  1.00  0.00    -0.021 A 
HETATM   11  C13 UNL     1     -21.883  59.284   2.916  1.00  0.00     0.045 A 
HETATM   12  C14 UNL     1     -22.215  59.998   1.788  1.00  0.00     0.072 A 
HETATM   13  C15 UNL     1     -23.486  59.920   1.257  1.00  0.00     0.036 A 
HETATM   14  C16 UNL     1     -24.475  59.140   1.814  1.00  0.00     0.103 A 
HETATM   15  N2  UNL     1     -25.684  59.145   1.202  1.00  0.00    -0.374 N 
ATOM     16  H2  UNL     1     -26.432  58.574   1.598  1.00  0.00     0.164 HD
HETATM   17  C17 UNL     1     -25.940  59.859   0.112  1.00  0.00     0.090 A 
HETATM   18  C18 UNL     1     -24.970  60.637  -0.451  1.00  0.00     0.049 A 
HETATM   19  C19 UNL     1     -23.722  60.680   0.116  1.00  0.00     0.064 A 
HETATM   20  N3  UNL     1     -22.728  61.433  -0.403  1.00  0.00    -0.285 N 
ATOM     21  H3  UNL     1     -22.901  61.989  -1.240  1.00  0.00     0.188 HD
HETATM   22  N4  UNL     1     -21.539  61.458   0.159  1.00  0.00    -0.236 N 
ATOM     23  H4  UNL     1     -20.813  62.039  -0.260  1.00  0.00     0.209 HD
HETATM   24  N5  UNL     1     -21.245  60.767   1.237  1.00  0.00    -0.252 N 
HETATM   25  C20 UNL     1     -19.995  60.836   1.771  1.00  0.00     0.130 A 
HETATM   26  C21 UNL     1     -19.650  60.127   2.898  1.00  0.00    -0.007 A 
HETATM   27  C22 UNL     1     -18.361  60.217   3.423  1.00  0.00     0.028 A 
HETATM   28  C23 UNL     1     -18.020  59.497   4.564  1.00  0.00     0.005 A 
ENDROOT
BRANCH   6  29
HETATM   29  C4  UNL     1     -19.441  57.067   8.400  1.00  0.00     0.032 A 
HETATM   30  C5  UNL     1     -19.321  57.650   9.644  1.00  0.00     0.029 A 
HETATM   31  C6  UNL     1     -19.084  56.948  10.806  1.00  0.00     0.002 A 
HETATM   32  C7  UNL     1     -18.954  55.580  10.743  1.00  0.00     0.000 A 
HETATM   33  C8  UNL     1     -19.066  54.960   9.522  1.00  0.00     0.002 A 
HETATM   34  C9  UNL     1     -19.306  55.681   8.361  1.00  0.00     0.029 A 
ENDBRANCH   6  29
TORSDOF 1
ENDMDL
MODEL 2
REMARK VINA RESULT: 2.615527724      2.920      4.308
REMARK  1 active torsions:
REMARK  status: ('A' for Active; 'I' for Inactive)
REMARK    1  A    between atoms: N1_6  and  C4_8 
ROOT
HETATM    1  S1  UNL     1     -17.715  55.513   4.224  1.00  0.00    -0.072 SA
HETATM    2  C1  UNL     1     -17.779  56.970   4.933  1.00  0.00     0.079 C 
HETATM    3  S2  UNL     1     -16.486  57.435   6.060  1.00  0.00    -0.111 SA
HETATM    4  C2  UNL     1     -17.003  58.988   6.847  1.00  0.00     0.138 C 
HETATM    5  C3  UNL     1     -17.755  59.769   5.842  1.00  0.00     0.030 C 
HETATM    6  N1  UNL     1     -17.484  61.019   5.559  1.00  0.00    -0.358 N 
ATOM      7  H1  UNL     1     -18.014  61.544   4.862  1.00  0.00     0.166 HD
HETATM    8  C10 UNL     1     -18.876  59.204   5.076  1.00  0.00     0.001 A 
HETATM    9  C11 UNL     1     -19.961  60.021   4.770  1.00  0.00     0.026 A 
HETATM   10  C12 UNL     1     -21.043  59.556   4.055  1.00  0.00    -0.021 A 
HETATM   11  C13 UNL     1     -22.145  60.359   3.736  1.00  0.00     0.045 A 
HETATM   12  C14 UNL     1     -23.220  59.884   3.021  1.00  0.00     0.072 A 
HETATM   13  C15 UNL     1     -24.287  60.708   2.727  1.00  0.00     0.036 A 
HETATM   14  C16 UNL     1     -24.335  62.027   3.123  1.00  0.00     0.103 A 
HETATM   15  N2  UNL     1     -25.435  62.737   2.775  1.00  0.00    -0.374 N 
ATOM     16  H2  UNL     1     -25.492  63.715   3.058  1.00  0.00     0.164 HD
HETATM   17  C17 UNL     1     -26.442  62.217   2.082  1.00  0.00     0.090 A 
HETATM   18  C18 UNL     1     -26.408  60.912   1.683  1.00  0.00     0.049 A 
HETATM   19  C19 UNL     1     -25.324  60.133   2.000  1.00  0.00     0.064 A 
HETATM   20  N3  UNL     1     -25.242  58.837   1.630  1.00  0.00    -0.285 N 
ATOM     21  H3  UNL     1     -26.004  58.416   1.098  1.00  0.00     0.188 HD
HETATM   22  N4  UNL     1     -24.192  58.112   1.947  1.00  0.00    -0.236 N 
ATOM     23  H4  UNL     1     -24.165  57.136   1.648  1.00  0.00     0.209 HD
HETATM   24  N5  UNL     1     -23.177  58.588   2.630  1.00  0.00    -0.252 N 
HETATM   25  C20 UNL     1     -22.118  57.784   2.926  1.00  0.00     0.130 A 
HETATM   26  C21 UNL     1     -21.037  58.247   3.640  1.00  0.00    -0.007 A 
HETATM   27  C22 UNL     1     -19.966  57.401   3.928  1.00  0.00     0.028 A 
HETATM   28  C23 UNL     1     -18.876  57.876   4.651  1.00  0.00     0.005 A 
ENDROOT
BRANCH   6  29
HETATM   29  C4  UNL     1     -16.406  61.602   6.281  1.00  0.00     0.032 A 
HETATM   30  C5  UNL     1     -16.480  62.859   6.842  1.00  0.00     0.029 A 
HETATM   31  C6  UNL     1     -15.455  63.452   7.548  1.00  0.00     0.002 A 
HETATM   32  C7  UNL     1     -14.276  62.762   7.714  1.00  0.00     0.000 A 
HETATM   33  C8  UNL     1     -14.161  61.506   7.169  1.00  0.00     0.002 A 
HETATM   34  C9  UNL     1     -15.202  60.924   6.462  1.00  0.00     0.029 A 
ENDBRANCH   6  29
TORSDOF 1
ENDMDL
MODEL 3
REMARK VINA RESULT: 5.365209579      3.623      8.626
REMARK  1 active torsions:
REMARK  status: ('A' for Active; 'I' for Inactive)
REMARK    1  A    between atoms: N1_6  and  C4_8 
ROOT
HETATM    1  S1  UNL     1     -22.223  55.238   3.714  1.00  0.00    -0.072 SA
HETATM    2  C1  UNL     1     -22.499  56.798   3.366  1.00  0.00     0.079 C 
HETATM    3  S2  UNL     1     -23.939  57.224   2.415  1.00  0.00    -0.111 SA
HETATM    4  C2  UNL     1     -23.797  58.986   2.001  1.00  0.00     0.138 C 
HETATM    5  C3  UNL     1     -23.140  59.661   3.141  1.00  0.00     0.030 C 
HETATM    6  N1  UNL     1     -23.629  60.732   3.717  1.00  0.00    -0.358 N 
ATOM      7  H1  UNL     1     -23.162  61.185   4.502  1.00  0.00     0.166 HD
HETATM    8  C10 UNL     1     -21.876  59.185   3.721  1.00  0.00     0.001 A 
HETATM    9  C11 UNL     1     -20.952  60.120   4.181  1.00  0.00     0.026 A 
HETATM   10  C12 UNL     1     -19.750  59.742   4.737  1.00  0.00    -0.021 A 
HETATM   11  C13 UNL     1     -18.806  60.665   5.206  1.00  0.00     0.045 A 
HETATM   12  C14 UNL     1     -17.608  60.276   5.758  1.00  0.00     0.072 A 
HETATM   13  C15 UNL     1     -16.705  61.217   6.208  1.00  0.00     0.036 A 
HETATM   14  C16 UNL     1     -16.946  62.571   6.132  1.00  0.00     0.103 A 
HETATM   15  N2  UNL     1     -15.984  63.398   6.607  1.00  0.00    -0.374 N 
ATOM     16  H2  UNL     1     -16.141  64.405   6.560  1.00  0.00     0.164 HD
HETATM   17  C17 UNL     1     -14.846  62.957   7.130  1.00  0.00     0.090 A 
HETATM   18  C18 UNL     1     -14.592  61.618   7.213  1.00  0.00     0.049 A 
HETATM   19  C19 UNL     1     -15.523  60.723   6.751  1.00  0.00     0.064 A 
HETATM   20  N3  UNL     1     -15.321  59.389   6.810  1.00  0.00    -0.285 N 
ATOM     21  H3  UNL     1     -14.454  59.027   7.207  1.00  0.00     0.188 HD
HETATM   22  N4  UNL     1     -16.229  58.550   6.360  1.00  0.00    -0.236 N 
ATOM     23  H4  UNL     1     -16.042  57.549   6.421  1.00  0.00     0.209 HD
HETATM   24  N5  UNL     1     -17.367  58.945   5.836  1.00  0.00    -0.252 N 
HETATM   25  C20 UNL     1     -18.266  58.027   5.388  1.00  0.00     0.130 A 
HETATM   26  C21 UNL     1     -19.468  58.402   4.833  1.00  0.00    -0.007 A 
HETATM   27  C22 UNL     1     -20.370  57.438   4.383  1.00  0.00     0.028 A 
HETATM   28  C23 UNL     1     -21.584  57.825   3.823  1.00  0.00     0.005 A 
ENDROOT
BRANCH   6  29
HETATM   29  C4  UNL     1     -24.852  61.224   3.181  1.00  0.00     0.032 A 
HETATM   30  C5  UNL     1     -26.026  60.503   3.222  1.00  0.00     0.029 A 
HETATM   31  C6  UNL     1     -27.226  60.951   2.714  1.00  0.00     0.002 A 
HETATM   32  C7  UNL     1     -27.276  62.193   2.124  1.00  0.00     0.000 A 
HETATM   33  C8  UNL     1     -26.127  62.945   2.063  1.00  0.00     0.002 A 
HETATM   34  C9  UNL     1     -24.928  62.478   2.580  1.00  0.00     0.029 A 
ENDBRANCH   6  29
TORSDOF 1
ENDMDL
