MODEL 1
REMARK VINA RESULT: -6.463872855      0.000      0.000
REMARK  3 active torsions:
REMARK  status: ('A' for Active; 'I' for Inactive)
REMARK    1  A    between atoms: C3_4  and  C4_5 
REMARK    2  A    between atoms: C10_11  and  C11_12 
REMARK    3  A    between atoms: N2_17  and  O1_18 
ROOT
HETATM    1  N1  UNL     1     -18.403  62.411   2.932  1.00  0.00    -0.191 NA
HETATM    2  C1  UNL     1     -18.942  61.466   3.345  1.00  0.00     0.102 C 
HETATM    3  C2  UNL     1     -19.602  60.316   3.838  1.00  0.00     0.077 A 
HETATM    4  C3  UNL     1     -19.006  59.526   4.823  1.00  0.00     0.027 A 
HETATM    5  C10 UNL     1     -19.741  58.436   5.225  1.00  0.00     0.093 A 
HETATM    6  N2  UNL     1     -20.945  58.114   4.736  1.00  0.00    -0.217 N 
HETATM    7  C15 UNL     1     -21.556  58.866   3.771  1.00  0.00     0.132 A 
HETATM    8  C16 UNL     1     -22.786  58.494   3.305  1.00  0.00     0.213 A 
HETATM    9  O2  UNL     1     -23.292  57.438   3.819  1.00  0.00    -0.285 OA
HETATM   10  C17 UNL     1     -23.525  59.127   2.352  1.00  0.00     0.034 A 
HETATM   11  C18 UNL     1     -24.772  58.603   1.993  1.00  0.00     0.017 A 
HETATM   12  C19 UNL     1     -25.569  59.194   1.037  1.00  0.00     0.001 A 
HETATM   13  C20 UNL     1     -25.168  60.333   0.393  1.00  0.00     0.001 A 
HETATM   14  C21 UNL     1     -23.942  60.874   0.724  1.00  0.00     0.020 A 
HETATM   15  C22 UNL     1     -23.152  60.274   1.683  1.00  0.00     0.020 A 
HETATM   16  S2  UNL     1     -21.632  60.898   2.131  1.00  0.00    -0.085 SA
HETATM   17  C23 UNL     1     -20.842  59.968   3.347  1.00  0.00     0.060 A 
ENDROOT
BRANCH   4  18
HETATM   18  C4  UNL     1     -17.703  59.843   5.374  1.00  0.00    -0.022 A 
HETATM   19  C5  UNL     1     -16.627  58.989   5.270  1.00  0.00     0.012 A 
HETATM   20  C6  UNL     1     -15.423  59.368   5.825  1.00  0.00     0.001 A 
HETATM   21  C7  UNL     1     -15.270  60.592   6.485  1.00  0.00     0.000 A 
HETATM   22  C8  UNL     1     -16.349  61.443   6.585  1.00  0.00     0.001 A 
HETATM   23  C9  UNL     1     -17.541  61.067   6.037  1.00  0.00     0.012 A 
ENDBRANCH   4  18
BRANCH   5  24
HETATM   24  C11 UNL     1     -19.142  57.572   6.271  1.00  0.00     0.035 A 
HETATM   25  C12 UNL     1     -18.234  56.561   6.094  1.00  0.00     0.022 A 
HETATM   26  C13 UNL     1     -17.821  55.905   7.183  1.00  0.00     0.008 A 
HETATM   27  C14 UNL     1     -18.338  56.298   8.388  1.00  0.00     0.050 A 
HETATM   28  S1  UNL     1     -19.385  57.570   7.959  1.00  0.00    -0.100 SA
ENDBRANCH   5  24
BRANCH   6  29
HETATM   29  O1  UNL     1     -21.569  56.981   5.240  1.00  0.00    -0.282 OA
ATOM     30  H1  UNL     1     -21.472  56.169   4.756  1.00  0.00     0.245 HD
ENDBRANCH   6  29
TORSDOF 3
ENDMDL
MODEL 2
REMARK VINA RESULT: -5.678832175      1.281      1.419
REMARK  3 active torsions:
REMARK  status: ('A' for Active; 'I' for Inactive)
REMARK    1  A    between atoms: C3_4  and  C4_5 
REMARK    2  A    between atoms: C10_11  and  C11_12 
REMARK    3  A    between atoms: N2_17  and  O1_18 
ROOT
HETATM    1  N1  UNL     1     -18.796  63.211   4.039  1.00  0.00    -0.191 NA
HETATM    2  C1  UNL     1     -19.241  62.154   4.237  1.00  0.00     0.102 C 
HETATM    3  C2  UNL     1     -19.788  60.870   4.469  1.00  0.00     0.077 A 
HETATM    4  C3  UNL     1     -19.002  59.856   5.018  1.00  0.00     0.027 A 
HETATM    5  C10 UNL     1     -19.641  58.652   5.201  1.00  0.00     0.093 A 
HETATM    6  N2  UNL     1     -20.923  58.422   4.889  1.00  0.00    -0.217 N 
HETATM    7  C15 UNL     1     -21.719  59.394   4.350  1.00  0.00     0.132 A 
HETATM    8  C16 UNL     1     -23.022  59.107   4.049  1.00  0.00     0.213 A 
HETATM    9  O2  UNL     1     -23.414  57.916   4.300  1.00  0.00    -0.285 OA
HETATM   10  C17 UNL     1     -23.942  59.955   3.510  1.00  0.00     0.034 A 
HETATM   11  C18 UNL     1     -25.239  59.490   3.266  1.00  0.00     0.017 A 
HETATM   12  C19 UNL     1     -26.217  60.295   2.722  1.00  0.00     0.001 A 
HETATM   13  C20 UNL     1     -25.954  61.598   2.397  1.00  0.00     0.001 A 
HETATM   14  C21 UNL     1     -24.684  62.086   2.626  1.00  0.00     0.020 A 
HETATM   15  C22 UNL     1     -23.712  61.272   3.171  1.00  0.00     0.020 A 
HETATM   16  S2  UNL     1     -22.129  61.821   3.475  1.00  0.00    -0.085 SA
HETATM   17  C23 UNL     1     -21.106  60.614   4.155  1.00  0.00     0.060 A 
ENDROOT
BRANCH   4  18
HETATM   18  C4  UNL     1     -17.611  60.068   5.366  1.00  0.00    -0.022 A 
HETATM   19  C5  UNL     1     -17.163  60.061   6.669  1.00  0.00     0.012 A 
HETATM   20  C6  UNL     1     -15.822  60.273   6.911  1.00  0.00     0.001 A 
HETATM   21  C7  UNL     1     -14.913  60.495   5.871  1.00  0.00     0.000 A 
HETATM   22  C8  UNL     1     -15.366  60.501   4.570  1.00  0.00     0.001 A 
HETATM   23  C9  UNL     1     -16.693  60.291   4.331  1.00  0.00     0.012 A 
ENDBRANCH   4  18
BRANCH   5  24
HETATM   24  C11 UNL     1     -18.840  57.548   5.782  1.00  0.00     0.035 A 
HETATM   25  C12 UNL     1     -17.888  56.790   5.151  1.00  0.00     0.022 A 
HETATM   26  C13 UNL     1     -17.280  55.840   5.869  1.00  0.00     0.008 A 
HETATM   27  C14 UNL     1     -17.658  55.702   7.178  1.00  0.00     0.050 A 
HETATM   28  S1  UNL     1     -18.850  56.904   7.362  1.00  0.00    -0.100 SA
ENDBRANCH   5  24
BRANCH   6  29
HETATM   29  O1  UNL     1     -21.432  57.153   5.130  1.00  0.00    -0.282 OA
ATOM     30  H1  UNL     1     -21.702  56.634   4.382  1.00  0.00     0.245 HD
ENDBRANCH   6  29
TORSDOF 3
ENDMDL
MODEL 3
REMARK VINA RESULT: -5.271570300      0.660      1.221
REMARK  3 active torsions:
REMARK  status: ('A' for Active; 'I' for Inactive)
REMARK    1  A    between atoms: C3_4  and  C4_5 
REMARK    2  A    between atoms: C10_11  and  C11_12 
REMARK    3  A    between atoms: N2_17  and  O1_18 
ROOT
HETATM    1  N1  UNL     1     -18.040  61.976   2.674  1.00  0.00    -0.191 NA
HETATM    2  C1  UNL     1     -18.700  61.158   3.173  1.00  0.00     0.102 C 
HETATM    3  C2  UNL     1     -19.507  60.161   3.770  1.00  0.00     0.077 A 
HETATM    4  C3  UNL     1     -19.042  59.439   4.871  1.00  0.00     0.027 A 
HETATM    5  C10 UNL     1     -19.913  58.499   5.368  1.00  0.00     0.093 A 
HETATM    6  N2  UNL     1     -21.130  58.257   4.865  1.00  0.00    -0.217 N 
HETATM    7  C15 UNL     1     -21.616  58.945   3.789  1.00  0.00     0.132 A 
HETATM    8  C16 UNL     1     -22.866  58.659   3.314  1.00  0.00     0.213 A 
HETATM    9  O2  UNL     1     -23.510  57.741   3.928  1.00  0.00    -0.285 OA
HETATM   10  C17 UNL     1     -23.493  59.247   2.257  1.00  0.00     0.034 A 
HETATM   11  C18 UNL     1     -24.782  58.827   1.907  1.00  0.00     0.017 A 
HETATM   12  C19 UNL     1     -25.471  59.379   0.850  1.00  0.00     0.001 A 
HETATM   13  C20 UNL     1     -24.917  60.375   0.092  1.00  0.00     0.001 A 
HETATM   14  C21 UNL     1     -23.648  60.811   0.412  1.00  0.00     0.020 A 
HETATM   15  C22 UNL     1     -22.965  60.251   1.472  1.00  0.00     0.020 A 
HETATM   16  S2  UNL     1     -21.397  60.750   1.913  1.00  0.00    -0.085 SA
HETATM   17  C23 UNL     1     -20.764  59.897   3.268  1.00  0.00     0.060 A 
ENDROOT
BRANCH   4  18
HETATM   18  C4  UNL     1     -17.729  59.673   5.440  1.00  0.00    -0.022 A 
HETATM   19  C5  UNL     1     -17.336  60.905   5.917  1.00  0.00     0.012 A 
HETATM   20  C6  UNL     1     -16.068  61.041   6.440  1.00  0.00     0.001 A 
HETATM   21  C7  UNL     1     -15.177  59.963   6.498  1.00  0.00     0.000 A 
HETATM   22  C8  UNL     1     -15.575  58.734   6.020  1.00  0.00     0.001 A 
HETATM   23  C9  UNL     1     -16.830  58.600   5.501  1.00  0.00     0.012 A 
ENDBRANCH   4  18
BRANCH   5  24
HETATM   24  C11 UNL     1     -19.455  57.711   6.537  1.00  0.00     0.035 A 
HETATM   25  C12 UNL     1     -19.637  58.009   7.863  1.00  0.00     0.022 A 
HETATM   26  C13 UNL     1     -19.139  57.154   8.761  1.00  0.00     0.008 A 
HETATM   27  C14 UNL     1     -18.487  56.048   8.284  1.00  0.00     0.050 A 
HETATM   28  S1  UNL     1     -18.591  56.241   6.595  1.00  0.00    -0.100 SA
ENDBRANCH   5  24
BRANCH   6  29
HETATM   29  O1  UNL     1     -21.900  57.274   5.473  1.00  0.00    -0.282 OA
ATOM     30  H1  UNL     1     -22.317  57.484   6.299  1.00  0.00     0.245 HD
ENDBRANCH   6  29
TORSDOF 3
ENDMDL
MODEL 4
REMARK VINA RESULT: -5.262557936      2.432      4.048
REMARK  3 active torsions:
REMARK  status: ('A' for Active; 'I' for Inactive)
REMARK    1  A    between atoms: C3_4  and  C4_5 
REMARK    2  A    between atoms: C10_11  and  C11_12 
REMARK    3  A    between atoms: N2_17  and  O1_18 
ROOT
HETATM    1  N1  UNL     1     -22.005  55.865   5.281  1.00  0.00    -0.191 NA
HETATM    2  C1  UNL     1     -21.627  56.947   5.079  1.00  0.00     0.102 C 
HETATM    3  C2  UNL     1     -21.177  58.266   4.834  1.00  0.00     0.077 A 
HETATM    4  C3  UNL     1     -19.855  58.623   5.104  1.00  0.00     0.027 A 
HETATM    5  C10 UNL     1     -19.531  59.930   4.825  1.00  0.00     0.093 A 
HETATM    6  N2  UNL     1     -20.389  60.832   4.330  1.00  0.00    -0.217 N 
HETATM    7  C15 UNL     1     -21.690  60.514   4.056  1.00  0.00     0.132 A 
HETATM    8  C16 UNL     1     -22.525  61.472   3.552  1.00  0.00     0.213 A 
HETATM    9  O2  UNL     1     -22.016  62.631   3.369  1.00  0.00    -0.285 OA
HETATM   10  C17 UNL     1     -23.840  61.322   3.228  1.00  0.00     0.034 A 
HETATM   11  C18 UNL     1     -24.549  62.417   2.721  1.00  0.00     0.017 A 
HETATM   12  C19 UNL     1     -25.879  62.334   2.374  1.00  0.00     0.001 A 
HETATM   13  C20 UNL     1     -26.569  61.159   2.512  1.00  0.00     0.001 A 
HETATM   14  C21 UNL     1     -25.898  60.061   3.009  1.00  0.00     0.020 A 
HETATM   15  C22 UNL     1     -24.566  60.156   3.353  1.00  0.00     0.020 A 
HETATM   16  S2  UNL     1     -23.688  58.833   3.971  1.00  0.00    -0.085 SA
HETATM   17  C23 UNL     1     -22.045  59.208   4.325  1.00  0.00     0.060 A 
ENDROOT
BRANCH   4  18
HETATM   18  C4  UNL     1     -18.900  57.674   5.641  1.00  0.00    -0.022 A 
HETATM   19  C5  UNL     1     -17.933  57.074   4.864  1.00  0.00     0.012 A 
HETATM   20  C6  UNL     1     -17.065  56.181   5.455  1.00  0.00     0.001 A 
HETATM   21  C7  UNL     1     -17.143  55.872   6.818  1.00  0.00     0.000 A 
HETATM   22  C8  UNL     1     -18.112  56.475   7.591  1.00  0.00     0.001 A 
HETATM   23  C9  UNL     1     -18.971  57.359   7.005  1.00  0.00     0.012 A 
ENDBRANCH   4  18
BRANCH   5  24
HETATM   24  C11 UNL     1     -18.135  60.349   5.098  1.00  0.00     0.035 A 
HETATM   25  C12 UNL     1     -17.562  60.581   6.321  1.00  0.00     0.022 A 
HETATM   26  C13 UNL     1     -16.277  60.952   6.339  1.00  0.00     0.008 A 
HETATM   27  C14 UNL     1     -15.639  61.068   5.133  1.00  0.00     0.050 A 
HETATM   28  S1  UNL     1     -16.855  60.657   4.014  1.00  0.00    -0.100 SA
ENDBRANCH   5  24
BRANCH   6  29
HETATM   29  O1  UNL     1     -19.918  62.117   4.100  1.00  0.00    -0.282 OA
ATOM     30  H1  UNL     1     -20.531  62.837   4.191  1.00  0.00     0.245 HD
ENDBRANCH   6  29
TORSDOF 3
ENDMDL
MODEL 5
REMARK VINA RESULT: -4.658454577      2.042      3.882
REMARK  3 active torsions:
REMARK  status: ('A' for Active; 'I' for Inactive)
REMARK    1  A    between atoms: C3_4  and  C4_5 
REMARK    2  A    between atoms: C10_11  and  C11_12 
REMARK    3  A    between atoms: N2_17  and  O1_18 
ROOT
HETATM    1  N1  UNL     1     -22.277  55.856   5.912  1.00  0.00    -0.191 NA
HETATM    2  C1  UNL     1     -21.730  56.760   5.425  1.00  0.00     0.102 C 
HETATM    3  C2  UNL     1     -21.074  57.863   4.829  1.00  0.00     0.077 A 
HETATM    4  C3  UNL     1     -19.798  58.239   5.253  1.00  0.00     0.027 A 
HETATM    5  C10 UNL     1     -19.259  59.324   4.602  1.00  0.00     0.093 A 
HETATM    6  N2  UNL     1     -19.876  60.002   3.626  1.00  0.00    -0.217 N 
HETATM    7  C15 UNL     1     -21.125  59.660   3.189  1.00  0.00     0.132 A 
HETATM    8  C16 UNL     1     -21.712  60.386   2.190  1.00  0.00     0.213 A 
HETATM    9  O2  UNL     1     -21.031  61.362   1.722  1.00  0.00    -0.285 OA
HETATM   10  C17 UNL     1     -22.943  60.179   1.643  1.00  0.00     0.034 A 
HETATM   11  C18 UNL     1     -23.388  61.025   0.621  1.00  0.00     0.017 A 
HETATM   12  C19 UNL     1     -24.621  60.872   0.026  1.00  0.00     0.001 A 
HETATM   13  C20 UNL     1     -25.470  59.872   0.416  1.00  0.00     0.001 A 
HETATM   14  C21 UNL     1     -25.060  59.020   1.421  1.00  0.00     0.020 A 
HETATM   15  C22 UNL     1     -23.823  59.183   2.011  1.00  0.00     0.020 A 
HETATM   16  S2  UNL     1     -23.265  58.163   3.255  1.00  0.00    -0.085 SA
HETATM   17  C23 UNL     1     -21.692  58.574   3.823  1.00  0.00     0.060 A 
ENDROOT
BRANCH   4  18
HETATM   18  C4  UNL     1     -19.101  57.529   6.308  1.00  0.00    -0.022 A 
HETATM   19  C5  UNL     1     -18.100  56.617   6.052  1.00  0.00     0.012 A 
HETATM   20  C6  UNL     1     -17.491  55.985   7.114  1.00  0.00     0.001 A 
HETATM   21  C7  UNL     1     -17.862  56.247   8.438  1.00  0.00     0.000 A 
HETATM   22  C8  UNL     1     -18.863  57.160   8.688  1.00  0.00     0.001 A 
HETATM   23  C9  UNL     1     -19.467  57.786   7.636  1.00  0.00     0.012 A 
ENDBRANCH   4  18
BRANCH   5  24
HETATM   24  C11 UNL     1     -17.905  59.755   5.023  1.00  0.00     0.035 A 
HETATM   25  C12 UNL     1     -17.588  60.665   5.998  1.00  0.00     0.022 A 
HETATM   26  C13 UNL     1     -16.291  60.906   6.219  1.00  0.00     0.008 A 
HETATM   27  C14 UNL     1     -15.385  60.223   5.453  1.00  0.00     0.050 A 
HETATM   28  S1  UNL     1     -16.374  59.267   4.449  1.00  0.00    -0.100 SA
ENDBRANCH   5  24
BRANCH   6  29
HETATM   29  O1  UNL     1     -19.207  61.079   3.061  1.00  0.00    -0.282 OA
ATOM     30  H1  UNL     1     -18.558  60.897   2.392  1.00  0.00     0.245 HD
ENDBRANCH   6  29
TORSDOF 3
ENDMDL
