MODEL 1
REMARK VINA RESULT: -6.657038326      0.000      0.000
REMARK  1 active torsions:
REMARK  status: ('A' for Active; 'I' for Inactive)
REMARK    1  A    between atoms: C9_13  and  C10_14 
ROOT
HETATM    1  O1  UNL     1     -14.827  61.232   7.327  1.00  0.00    -0.268 OA
HETATM    2  C1  UNL     1     -15.591  61.689   6.441  1.00  0.00     0.248 A 
HETATM    3  C2  UNL     1     -15.248  62.890   5.865  1.00  0.00     0.074 A 
HETATM    4  C3  UNL     1     -16.070  63.405   4.894  1.00  0.00     0.008 A 
HETATM    5  C4  UNL     1     -17.198  62.712   4.533  1.00  0.00     0.032 A 
HETATM    6  C5  UNL     1     -17.475  61.509   5.159  1.00  0.00     0.065 A 
HETATM    7  N1  UNL     1     -16.681  61.004   6.101  1.00  0.00    -0.308 N 
HETATM    8  C6  UNL     1     -17.213  59.726   6.588  1.00  0.00     0.174 A 
HETATM    9  C7  UNL     1     -18.433  59.473   5.859  1.00  0.00     0.001 A 
HETATM   10  C8  UNL     1     -18.587  60.561   4.990  1.00  0.00     0.069 A 
HETATM   11  N2  UNL     1     -19.617  60.661   4.165  1.00  0.00    -0.353 N 
ATOM     12  H2  UNL     1     -19.670  61.479   3.558  1.00  0.00     0.166 HD
HETATM   13  C9  UNL     1     -20.603  59.739   4.082  1.00  0.00     0.053 A 
HETATM   14  C19 UNL     1     -20.503  58.664   4.897  1.00  0.00     0.005 A 
HETATM   15  C20 UNL     1     -19.421  58.521   5.796  1.00  0.00    -0.002 A 
HETATM   16  C21 UNL     1     -19.443  57.427   6.754  1.00  0.00     0.009 A 
HETATM   17  C22 UNL     1     -18.372  57.217   7.570  1.00  0.00     0.015 A 
HETATM   18  C23 UNL     1     -18.407  56.100   8.426  1.00  0.00     0.001 A 
HETATM   19  C24 UNL     1     -19.472  55.256   8.442  1.00  0.00     0.003 A 
HETATM   20  C25 UNL     1     -20.536  55.494   7.610  1.00  0.00     0.037 A 
HETATM   21  C26 UNL     1     -20.547  56.573   6.758  1.00  0.00     0.080 A 
HETATM   22  O2  UNL     1     -21.641  56.789   5.936  1.00  0.00    -0.346 OA
HETATM   23  C27 UNL     1     -21.428  57.521   4.761  1.00  0.00     0.217 C 
ENDROOT
BRANCH  13  24
HETATM   24  C10 UNL     1     -21.679  59.935   3.133  1.00  0.00     0.007 A 
HETATM   25  C11 UNL     1     -21.656  59.425   1.871  1.00  0.00     0.102 A 
HETATM   26  N3  UNL     1     -22.703  59.671   1.046  1.00  0.00    -0.364 N 
HETATM   27  C12 UNL     1     -23.751  60.401   1.450  1.00  0.00     0.042 A 
ATOM     28  H3  UNL     1     -22.692  59.292   0.099  1.00  0.00     0.165 HD
HETATM   29  C13 UNL     1     -24.788  60.619   0.569  1.00  0.00     0.030 A 
HETATM   30  C17 UNL     1     -23.816  60.934   2.714  1.00  0.00    -0.009 A 
HETATM   31  C14 UNL     1     -25.878  61.370   0.971  1.00  0.00     0.002 A 
HETATM   32  C15 UNL     1     -25.926  61.896   2.239  1.00  0.00     0.001 A 
HETATM   33  C16 UNL     1     -24.899  61.687   3.128  1.00  0.00     0.014 A 
HETATM   34  C18 UNL     1     -22.767  60.700   3.570  1.00  0.00     0.029 A 
ENDBRANCH  13  24
TORSDOF 1
ENDMDL
MODEL 2
REMARK VINA RESULT: -5.461786138      1.790      4.839
REMARK  1 active torsions:
REMARK  status: ('A' for Active; 'I' for Inactive)
REMARK    1  A    between atoms: C9_13  and  C10_14 
ROOT
HETATM    1  O1  UNL     1     -17.728  56.497   9.489  1.00  0.00    -0.268 OA
HETATM    2  C1  UNL     1     -18.771  56.447   8.792  1.00  0.00     0.248 A 
HETATM    3  C2  UNL     1     -19.705  55.492   9.117  1.00  0.00     0.074 A 
HETATM    4  C3  UNL     1     -20.854  55.422   8.367  1.00  0.00     0.008 A 
HETATM    5  C4  UNL     1     -21.030  56.298   7.327  1.00  0.00     0.032 A 
HETATM    6  C5  UNL     1     -20.043  57.232   7.063  1.00  0.00     0.065 A 
HETATM    7  N1  UNL     1     -18.928  57.305   7.786  1.00  0.00    -0.308 N 
HETATM    8  C6  UNL     1     -18.063  58.382   7.287  1.00  0.00     0.174 A 
HETATM    9  C7  UNL     1     -18.744  58.982   6.166  1.00  0.00     0.001 A 
HETATM   10  C8  UNL     1     -19.949  58.280   6.034  1.00  0.00     0.069 A 
HETATM   11  N2  UNL     1     -20.830  58.567   5.089  1.00  0.00    -0.353 N 
ATOM     12  H2  UNL     1     -21.688  58.017   5.047  1.00  0.00     0.166 HD
HETATM   13  C9  UNL     1     -20.656  59.549   4.175  1.00  0.00     0.053 A 
HETATM   14  C19 UNL     1     -19.510  60.262   4.258  1.00  0.00     0.005 A 
HETATM   15  C20 UNL     1     -18.540  59.986   5.250  1.00  0.00    -0.002 A 
HETATM   16  C21 UNL     1     -17.264  60.679   5.199  1.00  0.00     0.009 A 
HETATM   17  C22 UNL     1     -16.350  60.495   6.193  1.00  0.00     0.015 A 
HETATM   18  C23 UNL     1     -15.161  61.247   6.140  1.00  0.00     0.001 A 
HETATM   19  C24 UNL     1     -14.927  62.128   5.133  1.00  0.00     0.003 A 
HETATM   20  C25 UNL     1     -15.866  62.292   4.146  1.00  0.00     0.037 A 
HETATM   21  C26 UNL     1     -17.041  61.579   4.154  1.00  0.00     0.080 A 
HETATM   22  O2  UNL     1     -17.965  61.762   3.139  1.00  0.00    -0.346 OA
HETATM   23  C27 UNL     1     -19.303  61.463   3.424  1.00  0.00     0.217 C 
ENDROOT
BRANCH  13  24
HETATM   24  C10 UNL     1     -21.689  59.793   3.191  1.00  0.00     0.007 A 
HETATM   25  C11 UNL     1     -21.625  59.319   1.916  1.00  0.00     0.102 A 
HETATM   26  N3  UNL     1     -22.634  59.608   1.058  1.00  0.00    -0.364 N 
HETATM   27  C12 UNL     1     -23.684  60.347   1.442  1.00  0.00     0.042 A 
ATOM     28  H3  UNL     1     -22.593  59.257   0.102  1.00  0.00     0.165 HD
HETATM   29  C13 UNL     1     -24.681  60.610   0.528  1.00  0.00     0.030 A 
HETATM   30  C17 UNL     1     -23.789  60.845   2.718  1.00  0.00    -0.009 A 
HETATM   31  C14 UNL     1     -25.772  61.371   0.909  1.00  0.00     0.002 A 
HETATM   32  C15 UNL     1     -25.861  61.861   2.189  1.00  0.00     0.001 A 
HETATM   33  C16 UNL     1     -24.873  61.607   3.112  1.00  0.00     0.014 A 
HETATM   34  C18 UNL     1     -22.779  60.566   3.607  1.00  0.00     0.029 A 
ENDBRANCH  13  24
TORSDOF 1
ENDMDL
MODEL 3
REMARK VINA RESULT: -4.878866270      0.941      1.414
REMARK  1 active torsions:
REMARK  status: ('A' for Active; 'I' for Inactive)
REMARK    1  A    between atoms: C9_13  and  C10_14 
ROOT
HETATM    1  O1  UNL     1     -14.409  61.152   6.778  1.00  0.00    -0.268 OA
HETATM    2  C1  UNL     1     -15.354  61.756   6.214  1.00  0.00     0.248 A 
HETATM    3  C2  UNL     1     -15.134  63.058   5.830  1.00  0.00     0.074 A 
HETATM    4  C3  UNL     1     -16.155  63.736   5.210  1.00  0.00     0.008 A 
HETATM    5  C4  UNL     1     -17.351  63.099   4.997  1.00  0.00     0.032 A 
HETATM    6  C5  UNL     1     -17.495  61.787   5.412  1.00  0.00     0.065 A 
HETATM    7  N1  UNL     1     -16.508  61.124   6.013  1.00  0.00    -0.308 N 
HETATM    8  C6  UNL     1     -16.935  59.758   6.343  1.00  0.00     0.174 A 
HETATM    9  C7  UNL     1     -18.299  59.624   5.892  1.00  0.00     0.001 A 
HETATM   10  C8  UNL     1     -18.634  60.861   5.326  1.00  0.00     0.069 A 
HETATM   11  N2  UNL     1     -19.831  61.097   4.811  1.00  0.00    -0.353 N 
ATOM     12  H2  UNL     1     -20.011  62.019   4.414  1.00  0.00     0.166 HD
HETATM   13  C9  UNL     1     -20.828  60.183   4.781  1.00  0.00     0.053 A 
HETATM   14  C19 UNL     1     -20.557  58.969   5.311  1.00  0.00     0.005 A 
HETATM   15  C20 UNL     1     -19.294  58.677   5.876  1.00  0.00    -0.002 A 
HETATM   16  C21 UNL     1     -19.107  57.412   6.567  1.00  0.00     0.009 A 
HETATM   17  C22 UNL     1     -17.876  57.071   7.042  1.00  0.00     0.015 A 
HETATM   18  C23 UNL     1     -17.728  55.803   7.635  1.00  0.00     0.001 A 
HETATM   19  C24 UNL     1     -18.776  54.943   7.734  1.00  0.00     0.003 A 
HETATM   20  C25 UNL     1     -20.004  55.314   7.249  1.00  0.00     0.037 A 
HETATM   21  C26 UNL     1     -20.197  56.543   6.662  1.00  0.00     0.080 A 
HETATM   22  O2  UNL     1     -21.451  56.890   6.189  1.00  0.00    -0.346 OA
HETATM   23  C27 UNL     1     -21.512  57.851   5.171  1.00  0.00     0.217 C 
ENDROOT
BRANCH  13  24
HETATM   24  C10 UNL     1     -22.096  60.536   4.178  1.00  0.00     0.007 A 
HETATM   25  C11 UNL     1     -23.105  61.131   4.872  1.00  0.00     0.102 A 
HETATM   26  N3  UNL     1     -24.264  61.415   4.228  1.00  0.00    -0.364 N 
HETATM   27  C12 UNL     1     -24.429  61.121   2.931  1.00  0.00     0.042 A 
ATOM     28  H3  UNL     1     -25.024  61.860   4.741  1.00  0.00     0.165 HD
HETATM   29  C13 UNL     1     -25.628  61.432   2.327  1.00  0.00     0.030 A 
HETATM   30  C17 UNL     1     -23.438  60.520   2.194  1.00  0.00    -0.009 A 
HETATM   31  C14 UNL     1     -25.815  61.135   0.989  1.00  0.00     0.002 A 
HETATM   32  C15 UNL     1     -24.813  60.535   0.267  1.00  0.00     0.001 A 
HETATM   33  C16 UNL     1     -23.612  60.218   0.856  1.00  0.00     0.014 A 
HETATM   34  C18 UNL     1     -22.254  60.223   2.824  1.00  0.00     0.029 A 
ENDBRANCH  13  24
TORSDOF 1
ENDMDL
MODEL 4
REMARK VINA RESULT: -4.571933734      1.963      5.057
REMARK  1 active torsions:
REMARK  status: ('A' for Active; 'I' for Inactive)
REMARK    1  A    between atoms: C9_13  and  C10_14 
ROOT
HETATM    1  O1  UNL     1     -17.138  55.830   8.347  1.00  0.00    -0.268 OA
HETATM    2  C1  UNL     1     -18.319  55.990   7.954  1.00  0.00     0.248 A 
HETATM    3  C2  UNL     1     -19.241  55.032   8.308  1.00  0.00     0.074 A 
HETATM    4  C3  UNL     1     -20.539  55.191   7.888  1.00  0.00     0.008 A 
HETATM    5  C4  UNL     1     -20.871  56.288   7.136  1.00  0.00     0.032 A 
HETATM    6  C5  UNL     1     -19.887  57.208   6.821  1.00  0.00     0.065 A 
HETATM    7  N1  UNL     1     -18.627  57.061   7.225  1.00  0.00    -0.308 N 
HETATM    8  C6  UNL     1     -17.802  58.179   6.751  1.00  0.00     0.174 A 
HETATM    9  C7  UNL     1     -18.670  59.051   5.998  1.00  0.00     0.001 A 
HETATM   10  C8  UNL     1     -19.938  58.457   6.044  1.00  0.00     0.069 A 
HETATM   11  N2  UNL     1     -20.988  58.993   5.444  1.00  0.00    -0.353 N 
ATOM     12  H2  UNL     1     -21.884  58.509   5.516  1.00  0.00     0.166 HD
HETATM   13  C9  UNL     1     -20.942  60.147   4.740  1.00  0.00     0.053 A 
HETATM   14  C19 UNL     1     -19.742  60.767   4.665  1.00  0.00     0.005 A 
HETATM   15  C20 UNL     1     -18.593  60.225   5.288  1.00  0.00    -0.002 A 
HETATM   16  C21 UNL     1     -17.302  60.850   5.049  1.00  0.00     0.009 A 
HETATM   17  C22 UNL     1     -16.197  60.400   5.707  1.00  0.00     0.015 A 
HETATM   18  C23 UNL     1     -14.985  61.086   5.501  1.00  0.00     0.001 A 
HETATM   19  C24 UNL     1     -14.914  62.161   4.673  1.00  0.00     0.003 A 
HETATM   20  C25 UNL     1     -16.043  62.590   4.023  1.00  0.00     0.037 A 
HETATM   21  C26 UNL     1     -17.249  61.952   4.192  1.00  0.00     0.080 A 
HETATM   22  O2  UNL     1     -18.369  62.405   3.515  1.00  0.00    -0.346 OA
HETATM   23  C27 UNL     1     -19.621  62.115   4.073  1.00  0.00     0.217 C 
ENDROOT
BRANCH  13  24
HETATM   24  C10 UNL     1     -22.153  60.659   4.134  1.00  0.00     0.007 A 
HETATM   25  C11 UNL     1     -22.943  61.591   4.733  1.00  0.00     0.102 A 
HETATM   26  N3  UNL     1     -24.068  62.003   4.097  1.00  0.00    -0.364 N 
HETATM   27  C12 UNL     1     -24.410  61.509   2.898  1.00  0.00     0.042 A 
ATOM     28  H3  UNL     1     -24.665  62.701   4.539  1.00  0.00     0.165 HD
HETATM   29  C13 UNL     1     -25.563  61.964   2.298  1.00  0.00     0.030 A 
HETATM   30  C17 UNL     1     -23.642  60.567   2.259  1.00  0.00    -0.009 A 
HETATM   31  C14 UNL     1     -25.930  61.465   1.061  1.00  0.00     0.002 A 
HETATM   32  C15 UNL     1     -25.150  60.523   0.435  1.00  0.00     0.001 A 
HETATM   33  C16 UNL     1     -23.997  60.060   1.023  1.00  0.00     0.014 A 
HETATM   34  C18 UNL     1     -22.497  60.134   2.883  1.00  0.00     0.029 A 
ENDBRANCH  13  24
TORSDOF 1
ENDMDL
