MODEL 1
REMARK VINA RESULT: -4.546343661      0.000      0.000
REMARK  4 active torsions:
REMARK  status: ('A' for Active; 'I' for Inactive)
REMARK    1  A    between atoms: C6_6  and  N1_7 
REMARK    2  A    between atoms: C9_11  and  C22_29 
REMARK    3  A    between atoms: C10_12  and  C11_13 
REMARK    4  A    between atoms: N3_20  and  C14_21 
ROOT
HETATM    1  C1  UNL     1     -26.939  62.365   1.194  1.00  0.00     0.018 C 
HETATM    2  C2  UNL     1     -26.076  61.640   1.622  1.00  0.00    -0.078 C 
HETATM    3  C3  UNL     1     -25.021  60.787   2.145  1.00  0.00     0.017 A 
HETATM    4  C4  UNL     1     -24.000  60.391   1.320  1.00  0.00     0.023 A 
HETATM    5  C5  UNL     1     -23.004  59.588   1.813  1.00  0.00     0.031 A 
HETATM    6  C6  UNL     1     -22.987  59.157   3.119  1.00  0.00     0.043 A 
HETATM    7  C24 UNL     1     -24.050  59.585   3.924  1.00  0.00     0.031 A 
HETATM    8  C25 UNL     1     -25.059  60.390   3.454  1.00  0.00     0.023 A 
ENDROOT
BRANCH   6   9
HETATM    9  N1  UNL     1     -21.880  58.434   3.578  1.00  0.00    -0.279 N 
HETATM   10  C7  UNL     1     -21.164  57.521   2.688  1.00  0.00     0.233 A 
HETATM   11  O1  UNL     1     -21.569  57.210   1.545  1.00  0.00    -0.272 OA
HETATM   12  C8  UNL     1     -19.946  57.054   3.334  1.00  0.00     0.145 A 
HETATM   13  C9  UNL     1     -20.006  57.747   4.636  1.00  0.00    -0.008 A 
HETATM   14  C10 UNL     1     -21.115  58.495   4.730  1.00  0.00     0.088 A 
BRANCH  13  15
HETATM   15  C22 UNL     1     -18.872  57.785   5.583  1.00  0.00    -0.014 A 
HETATM   16  C21 UNL     1     -18.979  56.683   6.409  1.00  0.00     0.013 A 
HETATM   17  C20 UNL     1     -18.013  56.320   7.297  1.00  0.00     0.002 A 
HETATM   18  C19 UNL     1     -16.882  57.101   7.359  1.00  0.00     0.012 A 
HETATM   19  C18 UNL     1     -16.753  58.203   6.548  1.00  0.00    -0.023 A 
HETATM   20  C17 UNL     1     -15.564  58.907   6.701  1.00  0.00     0.012 A 
HETATM   21  C23 UNL     1     -17.740  58.599   5.630  1.00  0.00     0.014 A 
HETATM   22  C16 UNL     1     -15.321  60.027   5.947  1.00  0.00     0.003 A 
HETATM   23  C15 UNL     1     -16.295  60.423   5.042  1.00  0.00     0.032 A 
HETATM   24  C14 UNL     1     -17.473  59.733   4.888  1.00  0.00     0.069 A 
BRANCH  24  25
HETATM   25  N3  UNL     1     -18.386  60.483   4.022  1.00  0.00    -0.243 N 
HETATM   26  C11 UNL     1     -18.299  60.474   2.614  1.00  0.00     0.157 A 
HETATM   27  S1  UNL     1     -19.684  61.191   2.151  1.00  0.00     0.119 S 
HETATM   28  O2  UNL     1     -20.446  61.502   0.664  1.00  0.00    -0.244 OA
HETATM   29  C12 UNL     1     -20.385  61.533   3.795  1.00  0.00     0.095 A 
HETATM   30  C13 UNL     1     -21.692  62.213   4.081  1.00  0.00     0.081 C 
HETATM   31  N2  UNL     1     -19.506  61.061   4.556  1.00  0.00    -0.288 N 
ATOM     32  H2  UNL     1     -19.626  61.107   5.568  1.00  0.00     0.188 HD
ENDBRANCH  24  25
ENDBRANCH  13  15
ENDBRANCH   6   9
TORSDOF 4
ENDMDL
MODEL 2
REMARK VINA RESULT: -3.050003403      2.501      4.086
REMARK  4 active torsions:
REMARK  status: ('A' for Active; 'I' for Inactive)
REMARK    1  A    between atoms: C6_6  and  N1_7 
REMARK    2  A    between atoms: C9_11  and  C22_29 
REMARK    3  A    between atoms: C10_12  and  C11_13 
REMARK    4  A    between atoms: N3_20  and  C14_21 
ROOT
HETATM    1  C1  UNL     1     -28.049  60.399   2.960  1.00  0.00     0.018 C 
HETATM    2  C2  UNL     1     -26.857  60.264   3.079  1.00  0.00    -0.078 C 
HETATM    3  C3  UNL     1     -25.424  60.082   3.240  1.00  0.00     0.017 A 
HETATM    4  C4  UNL     1     -24.755  60.796   4.201  1.00  0.00     0.023 A 
HETATM    5  C5  UNL     1     -23.404  60.624   4.355  1.00  0.00     0.031 A 
HETATM    6  C6  UNL     1     -22.680  59.753   3.573  1.00  0.00     0.043 A 
HETATM    7  C24 UNL     1     -23.405  59.046   2.605  1.00  0.00     0.031 A 
HETATM    8  C25 UNL     1     -24.758  59.201   2.431  1.00  0.00     0.023 A 
ENDROOT
BRANCH   6   9
HETATM    9  N1  UNL     1     -21.327  59.548   3.864  1.00  0.00    -0.279 N 
HETATM   10  C7  UNL     1     -20.708  58.240   3.651  1.00  0.00     0.233 A 
HETATM   11  O1  UNL     1     -21.354  57.209   3.356  1.00  0.00    -0.272 OA
HETATM   12  C8  UNL     1     -19.267  58.340   3.831  1.00  0.00     0.145 A 
HETATM   13  C9  UNL     1     -19.098  59.769   4.160  1.00  0.00    -0.008 A 
HETATM   14  C10 UNL     1     -20.282  60.398   4.180  1.00  0.00     0.088 A 
BRANCH  13  15
HETATM   15  C22 UNL     1     -17.780  60.434   4.212  1.00  0.00    -0.014 A 
HETATM   16  C21 UNL     1     -17.717  61.323   3.156  1.00  0.00     0.013 A 
HETATM   17  C20 UNL     1     -16.704  62.218   2.994  1.00  0.00     0.002 A 
HETATM   18  C19 UNL     1     -15.705  62.223   3.940  1.00  0.00     0.012 A 
HETATM   19  C18 UNL     1     -15.745  61.348   4.998  1.00  0.00    -0.023 A 
HETATM   20  C17 UNL     1     -14.681  61.454   5.887  1.00  0.00     0.012 A 
HETATM   21  C23 UNL     1     -16.776  60.411   5.181  1.00  0.00     0.014 A 
HETATM   22  C16 UNL     1     -14.610  60.632   6.982  1.00  0.00     0.003 A 
HETATM   23  C15 UNL     1     -15.624  59.704   7.164  1.00  0.00     0.032 A 
HETATM   24  C14 UNL     1     -16.678  59.592   6.288  1.00  0.00     0.069 A 
BRANCH  24  25
HETATM   25  N3  UNL     1     -17.479  58.410   6.614  1.00  0.00    -0.243 N 
HETATM   26  C11 UNL     1     -17.115  57.101   6.236  1.00  0.00     0.157 A 
HETATM   27  S1  UNL     1     -18.145  56.169   7.083  1.00  0.00     0.119 S 
HETATM   28  O2  UNL     1     -18.351  54.498   7.316  1.00  0.00    -0.244 OA
HETATM   29  C12 UNL     1     -19.081  57.483   7.926  1.00  0.00     0.095 A 
HETATM   30  C13 UNL     1     -20.223  57.289   8.881  1.00  0.00     0.081 C 
HETATM   31  N2  UNL     1     -18.520  58.519   7.496  1.00  0.00    -0.288 N 
ATOM     32  H2  UNL     1     -18.837  59.439   7.803  1.00  0.00     0.188 HD
ENDBRANCH  24  25
ENDBRANCH  13  15
ENDBRANCH   6   9
TORSDOF 4
ENDMDL
MODEL 3
REMARK VINA RESULT: -2.829548049      1.141      1.461
REMARK  4 active torsions:
REMARK  status: ('A' for Active; 'I' for Inactive)
REMARK    1  A    between atoms: C6_6  and  N1_7 
REMARK    2  A    between atoms: C9_11  and  C22_29 
REMARK    3  A    between atoms: C10_12  and  C11_13 
REMARK    4  A    between atoms: N3_20  and  C14_21 
ROOT
HETATM    1  C1  UNL     1     -27.122  62.793   1.506  1.00  0.00     0.018 C 
HETATM    2  C2  UNL     1     -26.269  62.049   1.921  1.00  0.00    -0.078 C 
HETATM    3  C3  UNL     1     -25.256  61.145   2.441  1.00  0.00     0.017 A 
HETATM    4  C4  UNL     1     -24.378  61.590   3.396  1.00  0.00     0.023 A 
HETATM    5  C5  UNL     1     -23.424  60.738   3.888  1.00  0.00     0.031 A 
HETATM    6  C6  UNL     1     -23.309  59.436   3.457  1.00  0.00     0.043 A 
HETATM    7  C24 UNL     1     -24.226  59.026   2.480  1.00  0.00     0.031 A 
HETATM    8  C25 UNL     1     -25.190  59.861   1.972  1.00  0.00     0.023 A 
ENDROOT
BRANCH   6   9
HETATM    9  N1  UNL     1     -22.385  58.595   4.086  1.00  0.00    -0.279 N 
HETATM   10  C7  UNL     1     -22.118  57.256   3.563  1.00  0.00     0.233 A 
HETATM   11  O1  UNL     1     -22.786  56.726   2.645  1.00  0.00    -0.272 OA
HETATM   12  C8  UNL     1     -20.985  56.668   4.263  1.00  0.00     0.145 A 
HETATM   13  C9  UNL     1     -20.623  57.739   5.211  1.00  0.00    -0.008 A 
HETATM   14  C10 UNL     1     -21.445  58.790   5.083  1.00  0.00     0.088 A 
BRANCH  13  15
HETATM   15  C22 UNL     1     -19.377  57.725   6.006  1.00  0.00    -0.014 A 
HETATM   16  C21 UNL     1     -19.519  56.769   6.993  1.00  0.00     0.013 A 
HETATM   17  C20 UNL     1     -18.501  56.382   7.808  1.00  0.00     0.002 A 
HETATM   18  C19 UNL     1     -17.276  56.982   7.623  1.00  0.00     0.012 A 
HETATM   19  C18 UNL     1     -17.110  57.936   6.649  1.00  0.00    -0.023 A 
HETATM   20  C17 UNL     1     -15.827  58.464   6.559  1.00  0.00     0.012 A 
HETATM   21  C23 UNL     1     -18.149  58.357   5.802  1.00  0.00     0.014 A 
HETATM   22  C16 UNL     1     -15.539  59.427   5.625  1.00  0.00     0.003 A 
HETATM   23  C15 UNL     1     -16.563  59.847   4.789  1.00  0.00     0.032 A 
HETATM   24  C14 UNL     1     -17.834  59.330   4.874  1.00  0.00     0.069 A 
BRANCH  24  25
HETATM   25  N3  UNL     1     -18.745  60.093   4.018  1.00  0.00    -0.243 N 
HETATM   26  C11 UNL     1     -18.855  61.499   4.063  1.00  0.00     0.157 A 
HETATM   27  S1  UNL     1     -19.742  61.845   2.745  1.00  0.00     0.119 S 
HETATM   28  O2  UNL     1     -20.259  63.270   1.975  1.00  0.00    -0.244 OA
HETATM   29  C12 UNL     1     -20.000  60.153   2.128  1.00  0.00     0.095 A 
HETATM   30  C13 UNL     1     -20.776  59.760   0.904  1.00  0.00     0.081 C 
HETATM   31  N2  UNL     1     -19.378  59.469   2.977  1.00  0.00    -0.288 N 
ATOM     32  H2  UNL     1     -19.344  58.453   2.891  1.00  0.00     0.188 HD
ENDBRANCH  24  25
ENDBRANCH  13  15
ENDBRANCH   6   9
TORSDOF 4
ENDMDL
MODEL 4
REMARK VINA RESULT: -2.266384721      2.412      7.466
REMARK  4 active torsions:
REMARK  status: ('A' for Active; 'I' for Inactive)
REMARK    1  A    between atoms: C6_6  and  N1_7 
REMARK    2  A    between atoms: C9_11  and  C22_29 
REMARK    3  A    between atoms: C10_12  and  C11_13 
REMARK    4  A    between atoms: N3_20  and  C14_21 
ROOT
HETATM    1  C1  UNL     1     -14.165  62.324   8.318  1.00  0.00     0.018 C 
HETATM    2  C2  UNL     1     -14.995  62.207   7.452  1.00  0.00    -0.078 C 
HETATM    3  C3  UNL     1     -16.013  62.055   6.425  1.00  0.00     0.017 A 
HETATM    4  C4  UNL     1     -16.029  60.922   5.652  1.00  0.00     0.023 A 
HETATM    5  C5  UNL     1     -16.989  60.778   4.683  1.00  0.00     0.031 A 
HETATM    6  C6  UNL     1     -17.950  61.735   4.452  1.00  0.00     0.043 A 
HETATM    7  C24 UNL     1     -17.894  62.874   5.265  1.00  0.00     0.031 A 
HETATM    8  C25 UNL     1     -16.942  63.043   6.241  1.00  0.00     0.023 A 
ENDROOT
BRANCH   6   9
HETATM    9  N1  UNL     1     -18.963  61.465   3.526  1.00  0.00    -0.279 N 
HETATM   10  C7  UNL     1     -18.656  61.330   2.102  1.00  0.00     0.233 A 
HETATM   11  O1  UNL     1     -17.535  61.593   1.609  1.00  0.00    -0.272 OA
HETATM   12  C8  UNL     1     -19.830  60.854   1.386  1.00  0.00     0.145 A 
HETATM   13  C9  UNL     1     -20.821  60.727   2.473  1.00  0.00    -0.008 A 
HETATM   14  C10 UNL     1     -20.291  61.095   3.649  1.00  0.00     0.088 A 
BRANCH  13  15
HETATM   15  C22 UNL     1     -22.126  60.055   2.301  1.00  0.00    -0.014 A 
HETATM   16  C21 UNL     1     -22.908  60.859   1.496  1.00  0.00     0.013 A 
HETATM   17  C20 UNL     1     -24.117  60.472   1.005  1.00  0.00     0.002 A 
HETATM   18  C19 UNL     1     -24.563  59.213   1.336  1.00  0.00     0.012 A 
HETATM   19  C18 UNL     1     -23.802  58.395   2.136  1.00  0.00    -0.023 A 
HETATM   20  C17 UNL     1     -24.359  57.148   2.396  1.00  0.00     0.012 A 
HETATM   21  C23 UNL     1     -22.556  58.777   2.660  1.00  0.00     0.014 A 
HETATM   22  C16 UNL     1     -23.694  56.244   3.185  1.00  0.00     0.003 A 
HETATM   23  C15 UNL     1     -22.465  56.619   3.706  1.00  0.00     0.032 A 
HETATM   24  C14 UNL     1     -21.910  57.851   3.456  1.00  0.00     0.069 A 
BRANCH  24  25
HETATM   25  N3  UNL     1     -20.721  58.046   4.288  1.00  0.00    -0.243 N 
HETATM   26  C11 UNL     1     -20.770  58.566   5.598  1.00  0.00     0.157 A 
HETATM   27  S1  UNL     1     -19.270  58.293   6.164  1.00  0.00     0.119 S 
HETATM   28  O2  UNL     1     -18.485  58.497   7.658  1.00  0.00    -0.244 OA
HETATM   29  C12 UNL     1     -18.551  57.514   4.685  1.00  0.00     0.095 A 
HETATM   30  C13 UNL     1     -17.142  57.017   4.536  1.00  0.00     0.081 C 
HETATM   31  N2  UNL     1     -19.521  57.520   3.889  1.00  0.00    -0.288 N 
ATOM     32  H2  UNL     1     -19.417  57.135   2.950  1.00  0.00     0.188 HD
ENDBRANCH  24  25
ENDBRANCH  13  15
ENDBRANCH   6   9
TORSDOF 4
ENDMDL
MODEL 5
REMARK VINA RESULT: -2.027679506      0.861      1.012
REMARK  4 active torsions:
REMARK  status: ('A' for Active; 'I' for Inactive)
REMARK    1  A    between atoms: C6_6  and  N1_7 
REMARK    2  A    between atoms: C9_11  and  C22_29 
REMARK    3  A    between atoms: C10_12  and  C11_13 
REMARK    4  A    between atoms: N3_20  and  C14_21 
ROOT
HETATM    1  C1  UNL     1     -27.575  61.247   2.361  1.00  0.00     0.018 C 
HETATM    2  C2  UNL     1     -26.548  60.717   2.703  1.00  0.00    -0.078 C 
HETATM    3  C3  UNL     1     -25.298  60.100   3.113  1.00  0.00     0.017 A 
HETATM    4  C4  UNL     1     -24.484  59.528   2.168  1.00  0.00     0.023 A 
HETATM    5  C5  UNL     1     -23.304  58.947   2.553  1.00  0.00     0.031 A 
HETATM    6  C6  UNL     1     -22.895  58.913   3.867  1.00  0.00     0.043 A 
HETATM    7  C24 UNL     1     -23.758  59.509   4.796  1.00  0.00     0.031 A 
HETATM    8  C25 UNL     1     -24.946  60.096   4.435  1.00  0.00     0.023 A 
ENDROOT
BRANCH   6   9
HETATM    9  N1  UNL     1     -21.628  58.405   4.168  1.00  0.00    -0.279 N 
HETATM   10  C7  UNL     1     -20.952  57.491   3.247  1.00  0.00     0.233 A 
HETATM   11  O1  UNL     1     -21.503  56.992   2.240  1.00  0.00    -0.272 OA
HETATM   12  C8  UNL     1     -19.581  57.272   3.685  1.00  0.00     0.145 A 
HETATM   13  C9  UNL     1     -19.511  58.106   4.901  1.00  0.00    -0.008 A 
HETATM   14  C10 UNL     1     -20.687  58.707   5.137  1.00  0.00     0.088 A 
BRANCH  13  15
HETATM   15  C22 UNL     1     -18.245  58.408   5.600  1.00  0.00    -0.014 A 
HETATM   16  C21 UNL     1     -18.051  57.431   6.557  1.00  0.00     0.013 A 
HETATM   17  C20 UNL     1     -16.904  57.313   7.280  1.00  0.00     0.002 A 
HETATM   18  C19 UNL     1     -15.899  58.219   7.028  1.00  0.00     0.012 A 
HETATM   19  C18 UNL     1     -16.069  59.200   6.081  1.00  0.00    -0.023 A 
HETATM   20  C17 UNL     1     -14.981  60.050   5.918  1.00  0.00     0.012 A 
HETATM   21  C23 UNL     1     -17.247  59.345   5.330  1.00  0.00     0.014 A 
HETATM   22  C16 UNL     1     -15.032  61.070   5.002  1.00  0.00     0.003 A 
HETATM   23  C15 UNL     1     -16.196  61.219   4.261  1.00  0.00     0.032 A 
HETATM   24  C14 UNL     1     -17.275  60.384   4.420  1.00  0.00     0.069 A 
BRANCH  24  25
HETATM   25  N3  UNL     1     -18.421  60.893   3.663  1.00  0.00    -0.243 N 
HETATM   26  C11 UNL     1     -18.598  60.665   2.282  1.00  0.00     0.157 A 
HETATM   27  S1  UNL     1     -20.124  61.161   2.016  1.00  0.00     0.119 S 
HETATM   28  O2  UNL     1     -21.184  61.152   0.687  1.00  0.00    -0.244 OA
HETATM   29  C12 UNL     1     -20.544  61.693   3.705  1.00  0.00     0.095 A 
HETATM   30  C13 UNL     1     -21.850  62.280   4.154  1.00  0.00     0.081 C 
HETATM   31  N2  UNL     1     -19.486  61.437   4.329  1.00  0.00    -0.288 N 
ATOM     32  H2  UNL     1     -19.419  61.634   5.327  1.00  0.00     0.188 HD
ENDBRANCH  24  25
ENDBRANCH  13  15
ENDBRANCH   6   9
TORSDOF 4
ENDMDL
