MODEL 1
REMARK VINA RESULT: -8.746652899      0.000      0.000
REMARK  18 active torsions:
REMARK  status: ('A' for Active; 'I' for Inactive)
REMARK    1  A    between atoms: C2_2  and  C5_5 
REMARK    2  A    between atoms: C5_5  and  C6_6 
REMARK    3  A    between atoms: C7_7  and  C8_8 
REMARK    4  A    between atoms: C8_8  and  C10_10 
REMARK    5  A    between atoms: C8_8  and  C19_27 
REMARK    6  A    between atoms: C10_10  and  C11_11 
REMARK    7  A    between atoms: C11_11  and  C12_12 
REMARK    8  A    between atoms: C12_12  and  C13_13 
REMARK    9  A    between atoms: C12_12  and  N1_16 
REMARK   10  A    between atoms: C13_13  and  O1_14 
REMARK   11  A    between atoms: N1_16  and  C14_18 
REMARK   12  A    between atoms: C14_18  and  C15_19 
REMARK   13  A    between atoms: C15_19  and  C16_20 
REMARK   14  A    between atoms: C19_27  and  C20_28 
REMARK   15  A    between atoms: C20_28  and  C21_29 
REMARK   16  A    between atoms: C27_35  and  O2_36 
REMARK   17  A    between atoms: C28_38  and  O3_39 
REMARK   18  A    between atoms: C38_50  and  O4_51 
ROOT
HETATM    1  C8  UNL     1      39.045  36.351  49.927  1.00  0.00     0.020 C 
HETATM    2  C9  UNL     1      38.316  36.120  48.627  1.00  0.00     0.029 C 
ENDROOT
BRANCH   1   3
HETATM    3  C7  UNL     1      38.189  35.939  51.054  1.00  0.00    -0.097 C 
HETATM    4  C6  UNL     1      37.471  35.610  51.962  1.00  0.00    -0.105 C 
BRANCH   4   5
HETATM    5  C5  UNL     1      36.581  35.221  53.041  1.00  0.00     0.102 C 
BRANCH   5   6
HETATM    6  C2  UNL     1      37.387  34.426  54.067  1.00  0.00    -0.041 C 
HETATM    7  C1  UNL     1      38.521  35.220  54.632  1.00  0.00     0.015 C 
HETATM    8  C3  UNL     1      37.926  33.169  53.429  1.00  0.00     0.015 C 
HETATM    9  C4  UNL     1      36.408  34.023  55.155  1.00  0.00     0.015 C 
ENDBRANCH   5   6
ENDBRANCH   4   5
ENDBRANCH   1   3
BRANCH   1  10
HETATM   10  C10 UNL     1      40.277  35.445  49.924  1.00  0.00     0.024 C 
BRANCH  10  11
HETATM   11  C11 UNL     1      41.533  36.236  50.020  1.00  0.00     0.028 C 
BRANCH  11  12
HETATM   12  C12 UNL     1      42.445  36.101  48.791  1.00  0.00     0.100 C 
BRANCH  12  13
HETATM   13  C13 UNL     1      41.958  36.938  47.660  1.00  0.00     0.188 C 
BRANCH  13  14
HETATM   14  O1  UNL     1      41.777  38.279  47.936  1.00  0.00    -0.399 OA
ATOM     15  H1  UNL     1      41.098  38.717  47.436  1.00  0.00     0.209 HD
ENDBRANCH  13  14
ENDBRANCH  12  13
BRANCH  12  16
HETATM   16  N1  UNL     1      42.594  34.744  48.437  1.00  0.00    -0.415 N 
ATOM     17  H1  UNL     1      43.026  34.097  49.097  1.00  0.00     0.153 HD
BRANCH  16  18
HETATM   18  C14 UNL     1      42.158  34.272  47.190  1.00  0.00     0.120 C 
BRANCH  18  19
HETATM   19  C15 UNL     1      43.118  33.246  46.571  1.00  0.00     0.077 C 
BRANCH  19  20
HETATM   20  C16 UNL     1      43.534  33.749  45.216  1.00  0.00     0.027 A 
HETATM   21  C17 UNL     1      42.857  34.688  44.473  1.00  0.00     0.114 A 
HETATM   22  N2  UNL     1      43.532  34.869  43.332  1.00  0.00    -0.360 N 
HETATM   23  C18 UNL     1      44.597  34.077  43.346  1.00  0.00     0.180 A 
ATOM     24  H2  UNL     1      43.272  35.507  42.580  1.00  0.00     0.166 HD
HETATM   25  N3  UNL     1      44.600  33.386  44.506  1.00  0.00    -0.355 N 
ATOM     26  H3  UNL     1      45.302  32.702  44.790  1.00  0.00     0.166 HD
ENDBRANCH  19  20
ENDBRANCH  18  19
ENDBRANCH  16  18
ENDBRANCH  12  16
ENDBRANCH  11  12
ENDBRANCH  10  11
ENDBRANCH   1  10
BRANCH   1  27
HETATM   27  C19 UNL     1      39.416  37.793  50.157  1.00  0.00     0.022 C 
BRANCH  27  28
HETATM   28  C20 UNL     1      38.182  38.594  50.352  1.00  0.00     0.007 C 
BRANCH  28  29
HETATM   29  C21 UNL     1      38.297  39.545  51.546  1.00  0.00    -0.009 C 
HETATM   30  C22 UNL     1      37.070  39.469  52.420  1.00  0.00     0.005 C 
HETATM   31  C23 UNL     1      37.577  39.351  53.843  1.00  0.00     0.006 C 
HETATM   32  C24 UNL     1      38.910  38.703  53.680  1.00  0.00    -0.001 C 
HETATM   33  C25 UNL     1      39.479  39.158  52.332  1.00  0.00     0.008 C 
HETATM   34  C32 UNL     1      39.938  39.171  54.715  1.00  0.00    -0.039 C 
HETATM   35  C26 UNL     1      40.501  40.188  52.587  1.00  0.00     0.023 C 
HETATM   36  C27 UNL     1      41.896  39.714  52.198  1.00  0.00     0.159 C 
HETATM   37  C31 UNL     1      40.405  40.421  54.095  1.00  0.00     0.008 C 
HETATM   38  C38 UNL     1      40.300  41.528  51.951  1.00  0.00     0.138 C 
HETATM   39  C28 UNL     1      42.973  40.648  52.669  1.00  0.00     0.152 C 
HETATM   40  C29 UNL     1      42.306  41.751  53.457  1.00  0.00     0.028 C 
HETATM   41  C30 UNL     1      41.622  41.053  54.642  1.00  0.00     0.014 C 
HETATM   42  C35 UNL     1      41.315  42.484  52.593  1.00  0.00    -0.015 C 
HETATM   43  C36 UNL     1      40.622  43.550  53.412  1.00  0.00     0.018 C 
HETATM   44  C37 UNL     1      42.115  43.202  51.526  1.00  0.00     0.018 C 
HETATM   45  C33 UNL     1      40.949  38.085  54.852  1.00  0.00     0.015 C 
HETATM   46  C34 UNL     1      39.285  39.423  56.056  1.00  0.00     0.015 C 
BRANCH  36  47
HETATM   47  O2  UNL     1      41.924  39.690  50.788  1.00  0.00    -0.392 OA
ATOM     48  H2  UNL     1      42.693  39.188  50.547  1.00  0.00     0.210 HD
ENDBRANCH  36  47
BRANCH  39  49
HETATM   49  O3  UNL     1      43.798  41.104  51.676  1.00  0.00    -0.393 OA
ATOM     50  H3  UNL     1      44.023  42.024  51.746  1.00  0.00     0.210 HD
ENDBRANCH  39  49
BRANCH  38  51
HETATM   51  O4  UNL     1      40.484  41.572  50.598  1.00  0.00    -0.394 OA
ATOM     52  H4  UNL     1      40.728  42.420  50.244  1.00  0.00     0.210 HD
ENDBRANCH  38  51
ENDBRANCH  28  29
ENDBRANCH  27  28
ENDBRANCH   1  27
TORSDOF 18
ENDMDL
MODEL 2
REMARK VINA RESULT: -8.681503543      2.895      4.873
REMARK  18 active torsions:
REMARK  status: ('A' for Active; 'I' for Inactive)
REMARK    1  A    between atoms: C2_2  and  C5_5 
REMARK    2  A    between atoms: C5_5  and  C6_6 
REMARK    3  A    between atoms: C7_7  and  C8_8 
REMARK    4  A    between atoms: C8_8  and  C10_10 
REMARK    5  A    between atoms: C8_8  and  C19_27 
REMARK    6  A    between atoms: C10_10  and  C11_11 
REMARK    7  A    between atoms: C11_11  and  C12_12 
REMARK    8  A    between atoms: C12_12  and  C13_13 
REMARK    9  A    between atoms: C12_12  and  N1_16 
REMARK   10  A    between atoms: C13_13  and  O1_14 
REMARK   11  A    between atoms: N1_16  and  C14_18 
REMARK   12  A    between atoms: C14_18  and  C15_19 
REMARK   13  A    between atoms: C15_19  and  C16_20 
REMARK   14  A    between atoms: C19_27  and  C20_28 
REMARK   15  A    between atoms: C20_28  and  C21_29 
REMARK   16  A    between atoms: C27_35  and  O2_36 
REMARK   17  A    between atoms: C28_38  and  O3_39 
REMARK   18  A    between atoms: C38_50  and  O4_51 
ROOT
HETATM    1  C8  UNL     1      38.519  36.564  50.789  1.00  0.00     0.020 C 
HETATM    2  C9  UNL     1      38.392  35.937  49.423  1.00  0.00     0.029 C 
ENDROOT
BRANCH   1   3
HETATM    3  C7  UNL     1      37.952  35.658  51.803  1.00  0.00    -0.097 C 
HETATM    4  C6  UNL     1      37.502  34.929  52.649  1.00  0.00    -0.105 C 
BRANCH   4   5
HETATM    5  C5  UNL     1      36.974  34.065  53.689  1.00  0.00     0.102 C 
BRANCH   5   6
HETATM    6  C2  UNL     1      35.471  34.313  53.806  1.00  0.00    -0.041 C 
HETATM    7  C1  UNL     1      35.079  34.760  55.178  1.00  0.00     0.015 C 
HETATM    8  C3  UNL     1      34.717  33.053  53.457  1.00  0.00     0.015 C 
HETATM    9  C4  UNL     1      35.133  35.370  52.770  1.00  0.00     0.015 C 
ENDBRANCH   5   6
ENDBRANCH   4   5
ENDBRANCH   1   3
BRANCH   1  10
HETATM   10  C10 UNL     1      40.012  36.715  51.083  1.00  0.00     0.024 C 
BRANCH  10  11
HETATM   11  C11 UNL     1      40.838  36.355  49.899  1.00  0.00     0.028 C 
BRANCH  11  12
HETATM   12  C12 UNL     1      42.185  37.090  49.839  1.00  0.00     0.100 C 
BRANCH  12  13
HETATM   13  C13 UNL     1      43.242  36.236  49.229  1.00  0.00     0.188 C 
BRANCH  13  14
HETATM   14  O1  UNL     1      43.325  36.271  47.851  1.00  0.00    -0.399 OA
ATOM     15  H1  UNL     1      44.114  35.902  47.474  1.00  0.00     0.209 HD
ENDBRANCH  13  14
ENDBRANCH  12  13
BRANCH  12  16
HETATM   16  N1  UNL     1      42.543  37.565  51.117  1.00  0.00    -0.415 N 
ATOM     17  H1  UNL     1      42.522  36.930  51.915  1.00  0.00     0.153 HD
BRANCH  16  18
HETATM   18  C14 UNL     1      42.929  38.900  51.308  1.00  0.00     0.120 C 
BRANCH  18  19
HETATM   19  C15 UNL     1      42.069  39.890  50.510  1.00  0.00     0.077 C 
BRANCH  19  20
HETATM   20  C16 UNL     1      42.289  41.267  51.076  1.00  0.00     0.027 A 
HETATM   21  C17 UNL     1      41.996  42.448  50.435  1.00  0.00     0.114 A 
HETATM   22  N2  UNL     1      42.334  43.450  51.254  1.00  0.00    -0.360 N 
HETATM   23  C18 UNL     1      42.824  42.929  52.373  1.00  0.00     0.180 A 
ATOM     24  H2  UNL     1      42.233  44.445  51.053  1.00  0.00     0.166 HD
HETATM   25  N3  UNL     1      42.798  41.585  52.265  1.00  0.00    -0.355 N 
ATOM     26  H3  UNL     1      43.113  40.923  52.975  1.00  0.00     0.166 HD
ENDBRANCH  19  20
ENDBRANCH  18  19
ENDBRANCH  16  18
ENDBRANCH  12  16
ENDBRANCH  11  12
ENDBRANCH  10  11
ENDBRANCH   1  10
BRANCH   1  27
HETATM   27  C19 UNL     1      37.793  37.878  50.915  1.00  0.00     0.022 C 
BRANCH  27  28
HETATM   28  C20 UNL     1      38.683  38.871  51.568  1.00  0.00     0.007 C 
BRANCH  28  29
HETATM   29  C21 UNL     1      38.080  39.414  52.867  1.00  0.00    -0.009 C 
HETATM   30  C22 UNL     1      36.573  39.399  52.813  1.00  0.00     0.005 C 
HETATM   31  C23 UNL     1      36.114  38.790  54.122  1.00  0.00     0.006 C 
HETATM   32  C24 UNL     1      37.256  37.915  54.512  1.00  0.00    -0.001 C 
HETATM   33  C25 UNL     1      38.536  38.565  53.979  1.00  0.00     0.008 C 
HETATM   34  C32 UNL     1      37.463  37.834  56.028  1.00  0.00    -0.039 C 
HETATM   35  C26 UNL     1      39.225  39.219  55.104  1.00  0.00     0.023 C 
HETATM   36  C27 UNL     1      40.558  38.552  55.420  1.00  0.00     0.159 C 
HETATM   37  C31 UNL     1      38.245  39.057  56.265  1.00  0.00     0.008 C 
HETATM   38  C38 UNL     1      39.488  40.689  54.989  1.00  0.00     0.138 C 
HETATM   39  C28 UNL     1      41.158  39.045  56.705  1.00  0.00     0.152 C 
HETATM   40  C29 UNL     1      40.182  40.022  57.317  1.00  0.00     0.028 C 
HETATM   41  C30 UNL     1      38.902  39.216  57.579  1.00  0.00     0.014 C 
HETATM   42  C35 UNL     1      39.935  41.171  56.376  1.00  0.00    -0.015 C 
HETATM   43  C36 UNL     1      38.919  42.113  56.983  1.00  0.00     0.018 C 
HETATM   44  C37 UNL     1      41.237  41.938  56.274  1.00  0.00     0.018 C 
HETATM   45  C33 UNL     1      38.154  36.544  56.309  1.00  0.00     0.015 C 
HETATM   46  C34 UNL     1      36.140  37.865  56.761  1.00  0.00     0.015 C 
BRANCH  36  47
HETATM   47  O2  UNL     1      41.431  38.898  54.369  1.00  0.00    -0.392 OA
ATOM     48  H2  UNL     1      41.431  38.161  53.770  1.00  0.00     0.210 HD
ENDBRANCH  36  47
BRANCH  39  49
HETATM   49  O3  UNL     1      42.427  39.541  56.580  1.00  0.00    -0.393 OA
ATOM     50  H3  UNL     1      42.554  40.395  56.976  1.00  0.00     0.210 HD
ENDBRANCH  39  49
BRANCH  38  51
HETATM   51  O4  UNL     1      40.452  41.047  54.091  1.00  0.00    -0.394 OA
ATOM     52  H4  UNL     1      40.527  41.978  53.919  1.00  0.00     0.210 HD
ENDBRANCH  38  51
ENDBRANCH  28  29
ENDBRANCH  27  28
ENDBRANCH   1  27
TORSDOF 18
ENDMDL
MODEL 3
REMARK VINA RESULT: -8.589887574      1.667      2.264
REMARK  18 active torsions:
REMARK  status: ('A' for Active; 'I' for Inactive)
REMARK    1  A    between atoms: C2_2  and  C5_5 
REMARK    2  A    between atoms: C5_5  and  C6_6 
REMARK    3  A    between atoms: C7_7  and  C8_8 
REMARK    4  A    between atoms: C8_8  and  C10_10 
REMARK    5  A    between atoms: C8_8  and  C19_27 
REMARK    6  A    between atoms: C10_10  and  C11_11 
REMARK    7  A    between atoms: C11_11  and  C12_12 
REMARK    8  A    between atoms: C12_12  and  C13_13 
REMARK    9  A    between atoms: C12_12  and  N1_16 
REMARK   10  A    between atoms: C13_13  and  O1_14 
REMARK   11  A    between atoms: N1_16  and  C14_18 
REMARK   12  A    between atoms: C14_18  and  C15_19 
REMARK   13  A    between atoms: C15_19  and  C16_20 
REMARK   14  A    between atoms: C19_27  and  C20_28 
REMARK   15  A    between atoms: C20_28  and  C21_29 
REMARK   16  A    between atoms: C27_35  and  O2_36 
REMARK   17  A    between atoms: C28_38  and  O3_39 
REMARK   18  A    between atoms: C38_50  and  O4_51 
ROOT
HETATM    1  C8  UNL     1      38.668  36.613  50.357  1.00  0.00     0.020 C 
HETATM    2  C9  UNL     1      38.406  36.048  48.983  1.00  0.00     0.029 C 
ENDROOT
BRANCH   1   3
HETATM    3  C7  UNL     1      37.775  35.969  51.335  1.00  0.00    -0.097 C 
HETATM    4  C6  UNL     1      37.026  35.452  52.124  1.00  0.00    -0.105 C 
BRANCH   4   5
HETATM    5  C5  UNL     1      36.100  34.841  53.060  1.00  0.00     0.102 C 
BRANCH   5   6
HETATM    6  C2  UNL     1      36.847  33.760  53.840  1.00  0.00    -0.041 C 
HETATM    7  C1  UNL     1      38.031  33.240  53.090  1.00  0.00     0.015 C 
HETATM    8  C3  UNL     1      35.911  32.618  54.151  1.00  0.00     0.015 C 
HETATM    9  C4  UNL     1      37.268  34.398  55.152  1.00  0.00     0.015 C 
ENDBRANCH   5   6
ENDBRANCH   4   5
ENDBRANCH   1   3
BRANCH   1  10
HETATM   10  C10 UNL     1      40.106  36.251  50.731  1.00  0.00     0.024 C 
BRANCH  10  11
HETATM   11  C11 UNL     1      40.840  35.675  49.573  1.00  0.00     0.028 C 
BRANCH  11  12
HETATM   12  C12 UNL     1      42.195  36.345  49.304  1.00  0.00     0.100 C 
BRANCH  12  13
HETATM   13  C13 UNL     1      42.050  37.819  49.150  1.00  0.00     0.188 C 
BRANCH  13  14
HETATM   14  O1  UNL     1      41.667  38.261  47.899  1.00  0.00    -0.399 OA
ATOM     15  H1  UNL     1      41.435  37.584  47.273  1.00  0.00     0.209 HD
ENDBRANCH  13  14
ENDBRANCH  12  13
BRANCH  12  16
HETATM   16  N1  UNL     1      42.830  35.744  48.198  1.00  0.00    -0.415 N 
ATOM     17  H1  UNL     1      43.743  36.084  47.896  1.00  0.00     0.153 HD
BRANCH  16  18
HETATM   18  C14 UNL     1      42.224  34.685  47.507  1.00  0.00     0.120 C 
BRANCH  18  19
HETATM   19  C15 UNL     1      41.832  35.056  46.069  1.00  0.00     0.077 C 
BRANCH  19  20
HETATM   20  C16 UNL     1      42.889  34.522  45.141  1.00  0.00     0.027 A 
HETATM   21  C17 UNL     1      43.798  33.538  45.451  1.00  0.00     0.114 A 
HETATM   22  N2  UNL     1      44.569  33.341  44.376  1.00  0.00    -0.360 N 
HETATM   23  C18 UNL     1      44.168  34.168  43.417  1.00  0.00     0.180 A 
ATOM     24  H2  UNL     1      45.334  32.671  44.305  1.00  0.00     0.166 HD
HETATM   25  N3  UNL     1      43.134  34.896  43.886  1.00  0.00    -0.355 N 
ATOM     26  H3  UNL     1      42.624  35.612  43.367  1.00  0.00     0.166 HD
ENDBRANCH  19  20
ENDBRANCH  18  19
ENDBRANCH  16  18
ENDBRANCH  12  16
ENDBRANCH  11  12
ENDBRANCH  10  11
ENDBRANCH   1  10
BRANCH   1  27
HETATM   27  C19 UNL     1      38.428  38.098  50.449  1.00  0.00     0.022 C 
BRANCH  27  28
HETATM   28  C20 UNL     1      39.388  38.693  51.412  1.00  0.00     0.007 C 
BRANCH  28  29
HETATM   29  C21 UNL     1      38.677  39.399  52.570  1.00  0.00    -0.009 C 
HETATM   30  C22 UNL     1      37.182  39.227  52.474  1.00  0.00     0.005 C 
HETATM   31  C23 UNL     1      36.719  38.821  53.858  1.00  0.00     0.006 C 
HETATM   32  C24 UNL     1      37.915  38.147  54.437  1.00  0.00    -0.001 C 
HETATM   33  C25 UNL     1      39.155  38.813  53.832  1.00  0.00     0.008 C 
HETATM   34  C32 UNL     1      38.056  38.360  55.947  1.00  0.00    -0.039 C 
HETATM   35  C26 UNL     1      39.727  39.723  54.839  1.00  0.00     0.023 C 
HETATM   36  C27 UNL     1      41.099  39.257  55.312  1.00  0.00     0.159 C 
HETATM   37  C31 UNL     1      38.711  39.677  55.979  1.00  0.00     0.008 C 
HETATM   38  C38 UNL     1      39.861  41.166  54.464  1.00  0.00     0.138 C 
HETATM   39  C28 UNL     1      41.589  40.030  56.502  1.00  0.00     0.152 C 
HETATM   40  C29 UNL     1      40.500  41.001  56.894  1.00  0.00     0.028 C 
HETATM   41  C30 UNL     1      39.288  40.133  57.261  1.00  0.00     0.014 C 
HETATM   42  C35 UNL     1      40.196  41.932  55.751  1.00  0.00    -0.015 C 
HETATM   43  C36 UNL     1      39.071  42.863  56.144  1.00  0.00     0.018 C 
HETATM   44  C37 UNL     1      41.426  42.792  55.550  1.00  0.00     0.018 C 
HETATM   45  C33 UNL     1      38.848  37.216  56.481  1.00  0.00     0.015 C 
HETATM   46  C34 UNL     1      36.702  38.393  56.622  1.00  0.00     0.015 C 
BRANCH  36  47
HETATM   47  O2  UNL     1      41.986  39.493  54.242  1.00  0.00    -0.392 OA
ATOM     48  H2  UNL     1      41.795  40.368  53.927  1.00  0.00     0.210 HD
ENDBRANCH  36  47
BRANCH  39  49
HETATM   49  O3  UNL     1      42.813  40.618  56.327  1.00  0.00    -0.393 OA
ATOM     50  H3  UNL     1      43.162  41.033  57.106  1.00  0.00     0.210 HD
ENDBRANCH  39  49
BRANCH  38  51
HETATM   51  O4  UNL     1      40.831  41.450  53.545  1.00  0.00    -0.394 OA
ATOM     52  H4  UNL     1      40.763  42.300  53.126  1.00  0.00     0.210 HD
ENDBRANCH  38  51
ENDBRANCH  28  29
ENDBRANCH  27  28
ENDBRANCH   1  27
TORSDOF 18
ENDMDL
MODEL 4
REMARK VINA RESULT: -8.576315628      2.430      4.755
REMARK  18 active torsions:
REMARK  status: ('A' for Active; 'I' for Inactive)
REMARK    1  A    between atoms: C2_2  and  C5_5 
REMARK    2  A    between atoms: C5_5  and  C6_6 
REMARK    3  A    between atoms: C7_7  and  C8_8 
REMARK    4  A    between atoms: C8_8  and  C10_10 
REMARK    5  A    between atoms: C8_8  and  C19_27 
REMARK    6  A    between atoms: C10_10  and  C11_11 
REMARK    7  A    between atoms: C11_11  and  C12_12 
REMARK    8  A    between atoms: C12_12  and  C13_13 
REMARK    9  A    between atoms: C12_12  and  N1_16 
REMARK   10  A    between atoms: C13_13  and  O1_14 
REMARK   11  A    between atoms: N1_16  and  C14_18 
REMARK   12  A    between atoms: C14_18  and  C15_19 
REMARK   13  A    between atoms: C15_19  and  C16_20 
REMARK   14  A    between atoms: C19_27  and  C20_28 
REMARK   15  A    between atoms: C20_28  and  C21_29 
REMARK   16  A    between atoms: C27_35  and  O2_36 
REMARK   17  A    between atoms: C28_38  and  O3_39 
REMARK   18  A    between atoms: C38_50  and  O4_51 
ROOT
HETATM    1  C8  UNL     1      37.323  38.968  54.050  1.00  0.00     0.020 C 
HETATM    2  C9  UNL     1      35.939  39.160  54.618  1.00  0.00     0.029 C 
ENDROOT
BRANCH   1   3
HETATM    3  C7  UNL     1      38.294  38.829  55.150  1.00  0.00    -0.097 C 
HETATM    4  C6  UNL     1      39.076  38.696  56.056  1.00  0.00    -0.105 C 
BRANCH   4   5
HETATM    5  C5  UNL     1      40.006  38.509  57.154  1.00  0.00     0.102 C 
BRANCH   5   6
HETATM    6  C2  UNL     1      39.657  39.508  58.256  1.00  0.00    -0.041 C 
HETATM    7  C1  UNL     1      39.428  38.838  59.573  1.00  0.00     0.015 C 
HETATM    8  C3  UNL     1      38.421  40.284  57.869  1.00  0.00     0.015 C 
HETATM    9  C4  UNL     1      40.821  40.479  58.334  1.00  0.00     0.015 C 
ENDBRANCH   5   6
ENDBRANCH   4   5
ENDBRANCH   1   3
BRANCH   1  10
HETATM   10  C10 UNL     1      37.316  37.655  53.268  1.00  0.00     0.024 C 
BRANCH  10  11
HETATM   11  C11 UNL     1      37.679  37.869  51.842  1.00  0.00     0.028 C 
BRANCH  11  12
HETATM   12  C12 UNL     1      38.918  37.078  51.394  1.00  0.00     0.100 C 
BRANCH  12  13
HETATM   13  C13 UNL     1      38.678  35.611  51.463  1.00  0.00     0.188 C 
BRANCH  13  14
HETATM   14  O1  UNL     1      39.272  34.855  50.472  1.00  0.00    -0.399 OA
ATOM     15  H1  UNL     1      39.787  34.113  50.767  1.00  0.00     0.209 HD
ENDBRANCH  13  14
ENDBRANCH  12  13
BRANCH  12  16
HETATM   16  N1  UNL     1      40.050  37.479  52.131  1.00  0.00    -0.415 N 
ATOM     17  H1  UNL     1      39.978  37.592  53.142  1.00  0.00     0.153 HD
BRANCH  16  18
HETATM   18  C14 UNL     1      41.276  37.722  51.495  1.00  0.00     0.120 C 
BRANCH  18  19
HETATM   19  C15 UNL     1      41.118  38.066  50.007  1.00  0.00     0.077 C 
BRANCH  19  20
HETATM   20  C16 UNL     1      41.568  36.879  49.200  1.00  0.00     0.027 A 
HETATM   21  C17 UNL     1      42.769  36.224  49.346  1.00  0.00     0.114 A 
HETATM   22  N2  UNL     1      42.803  35.230  48.453  1.00  0.00    -0.360 N 
HETATM   23  C18 UNL     1      41.668  35.248  47.763  1.00  0.00     0.180 A 
ATOM     24  H2  UNL     1      43.569  34.570  48.324  1.00  0.00     0.166 HD
HETATM   25  N3  UNL     1      40.907  36.263  48.221  1.00  0.00    -0.355 N 
ATOM     26  H3  UNL     1      39.980  36.516  47.877  1.00  0.00     0.166 HD
ENDBRANCH  19  20
ENDBRANCH  18  19
ENDBRANCH  16  18
ENDBRANCH  12  16
ENDBRANCH  11  12
ENDBRANCH  10  11
ENDBRANCH   1  10
BRANCH   1  27
HETATM   27  C19 UNL     1      37.785  40.121  53.196  1.00  0.00     0.022 C 
BRANCH  27  28
HETATM   28  C20 UNL     1      37.197  41.382  53.713  1.00  0.00     0.007 C 
BRANCH  28  29
HETATM   29  C21 UNL     1      38.258  42.467  53.920  1.00  0.00    -0.009 C 
HETATM   30  C22 UNL     1      38.201  43.018  55.323  1.00  0.00     0.005 C 
HETATM   31  C23 UNL     1      39.632  43.040  55.821  1.00  0.00     0.006 C 
HETATM   32  C24 UNL     1      40.283  41.947  55.045  1.00  0.00    -0.001 C 
HETATM   33  C25 UNL     1      39.582  41.869  53.685  1.00  0.00     0.008 C 
HETATM   34  C32 UNL     1      41.750  42.235  54.711  1.00  0.00    -0.039 C 
HETATM   35  C26 UNL     1      40.452  42.503  52.680  1.00  0.00     0.023 C 
HETATM   36  C27 UNL     1      40.969  41.496  51.660  1.00  0.00     0.159 C 
HETATM   37  C31 UNL     1      41.599  43.075  53.512  1.00  0.00     0.008 C 
HETATM   38  C38 UNL     1      39.887  43.656  51.911  1.00  0.00     0.138 C 
HETATM   39  C28 UNL     1      42.040  42.070  50.778  1.00  0.00     0.152 C 
HETATM   40  C29 UNL     1      42.311  43.479  51.249  1.00  0.00     0.028 C 
HETATM   41  C30 UNL     1      42.802  43.341  52.697  1.00  0.00     0.014 C 
HETATM   42  C35 UNL     1      41.057  44.309  51.161  1.00  0.00    -0.015 C 
HETATM   43  C36 UNL     1      41.335  45.701  51.684  1.00  0.00     0.018 C 
HETATM   44  C37 UNL     1      40.730  44.450  49.689  1.00  0.00     0.018 C 
HETATM   45  C33 UNL     1      42.423  40.920  54.515  1.00  0.00     0.015 C 
HETATM   46  C34 UNL     1      42.428  42.985  55.837  1.00  0.00     0.015 C 
BRANCH  36  47
HETATM   47  O2  UNL     1      39.868  41.159  50.847  1.00  0.00    -0.392 OA
ATOM     48  H2  UNL     1      39.349  41.951  50.760  1.00  0.00     0.210 HD
ENDBRANCH  36  47
BRANCH  39  49
HETATM   49  O3  UNL     1      41.775  41.980  49.438  1.00  0.00    -0.393 OA
ATOM     50  H3  UNL     1      41.829  42.806  48.972  1.00  0.00     0.210 HD
ENDBRANCH  39  49
BRANCH  38  51
HETATM   51  O4  UNL     1      38.928  43.338  50.991  1.00  0.00    -0.394 OA
ATOM     52  H4  UNL     1      38.579  44.068  50.492  1.00  0.00     0.210 HD
ENDBRANCH  38  51
ENDBRANCH  28  29
ENDBRANCH  27  28
ENDBRANCH   1  27
TORSDOF 18
ENDMDL
MODEL 5
REMARK VINA RESULT: -8.527411887      2.525      6.188
REMARK  18 active torsions:
REMARK  status: ('A' for Active; 'I' for Inactive)
REMARK    1  A    between atoms: C2_2  and  C5_5 
REMARK    2  A    between atoms: C5_5  and  C6_6 
REMARK    3  A    between atoms: C7_7  and  C8_8 
REMARK    4  A    between atoms: C8_8  and  C10_10 
REMARK    5  A    between atoms: C8_8  and  C19_27 
REMARK    6  A    between atoms: C10_10  and  C11_11 
REMARK    7  A    between atoms: C11_11  and  C12_12 
REMARK    8  A    between atoms: C12_12  and  C13_13 
REMARK    9  A    between atoms: C12_12  and  N1_16 
REMARK   10  A    between atoms: C13_13  and  O1_14 
REMARK   11  A    between atoms: N1_16  and  C14_18 
REMARK   12  A    between atoms: C14_18  and  C15_19 
REMARK   13  A    between atoms: C15_19  and  C16_20 
REMARK   14  A    between atoms: C19_27  and  C20_28 
REMARK   15  A    between atoms: C20_28  and  C21_29 
REMARK   16  A    between atoms: C27_35  and  O2_36 
REMARK   17  A    between atoms: C28_38  and  O3_39 
REMARK   18  A    between atoms: C38_50  and  O4_51 
ROOT
HETATM    1  C8  UNL     1      42.180  41.512  51.937  1.00  0.00     0.020 C 
HETATM    2  C9  UNL     1      43.639  41.148  51.816  1.00  0.00     0.029 C 
ENDROOT
BRANCH   1   3
HETATM    3  C7  UNL     1      41.919  42.758  51.196  1.00  0.00    -0.097 C 
HETATM    4  C6  UNL     1      41.694  43.764  50.572  1.00  0.00    -0.105 C 
BRANCH   4   5
HETATM    5  C5  UNL     1      41.410  44.960  49.801  1.00  0.00     0.102 C 
BRANCH   5   6
HETATM    6  C2  UNL     1      40.798  46.003  50.736  1.00  0.00    -0.041 C 
HETATM    7  C1  UNL     1      39.399  45.653  51.132  1.00  0.00     0.015 C 
HETATM    8  C3  UNL     1      40.805  47.355  50.065  1.00  0.00     0.015 C 
HETATM    9  C4  UNL     1      41.708  46.071  51.949  1.00  0.00     0.015 C 
ENDBRANCH   5   6
ENDBRANCH   4   5
ENDBRANCH   1   3
BRANCH   1  10
HETATM   10  C10 UNL     1      41.376  40.397  51.270  1.00  0.00     0.024 C 
BRANCH  10  11
HETATM   11  C11 UNL     1      42.258  39.294  50.803  1.00  0.00     0.028 C 
BRANCH  11  12
HETATM   12  C12 UNL     1      41.669  38.478  49.643  1.00  0.00     0.100 C 
BRANCH  12  13
HETATM   13  C13 UNL     1      40.234  38.808  49.423  1.00  0.00     0.188 C 
BRANCH  13  14
HETATM   14  O1  UNL     1      39.912  39.295  48.171  1.00  0.00    -0.399 OA
ATOM     15  H1  UNL     1      39.294  38.775  47.670  1.00  0.00     0.209 HD
ENDBRANCH  13  14
ENDBRANCH  12  13
BRANCH  12  16
HETATM   16  N1  UNL     1      41.883  37.100  49.853  1.00  0.00    -0.415 N 
ATOM     17  H1  UNL     1      41.567  36.669  50.722  1.00  0.00     0.153 HD
BRANCH  16  18
HETATM   18  C14 UNL     1      42.523  36.314  48.884  1.00  0.00     0.120 C 
BRANCH  18  19
HETATM   19  C15 UNL     1      41.537  35.545  47.993  1.00  0.00     0.077 C 
BRANCH  19  20
HETATM   20  C16 UNL     1      42.326  34.610  47.117  1.00  0.00     0.027 A 
HETATM   21  C17 UNL     1      42.544  34.775  45.769  1.00  0.00     0.114 A 
HETATM   22  N2  UNL     1      43.283  33.743  45.346  1.00  0.00    -0.360 N 
HETATM   23  C18 UNL     1      43.525  32.950  46.384  1.00  0.00     0.180 A 
ATOM     24  H2  UNL     1      43.604  33.591  44.391  1.00  0.00     0.166 HD
HETATM   25  N3  UNL     1      42.937  33.482  47.475  1.00  0.00    -0.355 N 
ATOM     26  H3  UNL     1      42.957  33.087  48.416  1.00  0.00     0.166 HD
ENDBRANCH  19  20
ENDBRANCH  18  19
ENDBRANCH  16  18
ENDBRANCH  12  16
ENDBRANCH  11  12
ENDBRANCH  10  11
ENDBRANCH   1  10
BRANCH   1  27
HETATM   27  C19 UNL     1      41.736  41.742  53.359  1.00  0.00     0.022 C 
BRANCH  27  28
HETATM   28  C20 UNL     1      40.385  42.357  53.359  1.00  0.00     0.007 C 
BRANCH  28  29
HETATM   29  C21 UNL     1      39.364  41.499  54.111  1.00  0.00    -0.009 C 
HETATM   30  C22 UNL     1      38.153  41.222  53.255  1.00  0.00     0.005 C 
HETATM   31  C23 UNL     1      37.884  39.737  53.381  1.00  0.00     0.006 C 
HETATM   32  C24 UNL     1      39.227  39.168  53.683  1.00  0.00    -0.001 C 
HETATM   33  C25 UNL     1      40.007  40.226  54.472  1.00  0.00     0.008 C 
HETATM   34  C32 UNL     1      39.172  37.952  54.614  1.00  0.00    -0.039 C 
HETATM   35  C26 UNL     1      40.008  39.835  55.892  1.00  0.00     0.023 C 
HETATM   36  C27 UNL     1      41.406  39.482  56.383  1.00  0.00     0.159 C 
HETATM   37  C31 UNL     1      39.092  38.612  55.926  1.00  0.00     0.008 C 
HETATM   38  C38 UNL     1      39.431  40.809  56.872  1.00  0.00     0.138 C 
HETATM   39  C28 UNL     1      41.395  38.855  57.748  1.00  0.00     0.152 C 
HETATM   40  C29 UNL     1      39.952  38.714  58.171  1.00  0.00     0.028 C 
HETATM   41  C30 UNL     1      39.307  37.786  57.131  1.00  0.00     0.014 C 
HETATM   42  C35 UNL     1      39.284  40.063  58.206  1.00  0.00    -0.015 C 
HETATM   43  C36 UNL     1      37.829  39.896  58.583  1.00  0.00     0.018 C 
HETATM   44  C37 UNL     1      39.940  40.845  59.325  1.00  0.00     0.018 C 
HETATM   45  C33 UNL     1      40.397  37.144  54.355  1.00  0.00     0.015 C 
HETATM   46  C34 UNL     1      37.946  37.109  54.336  1.00  0.00     0.015 C 
BRANCH  36  47
HETATM   47  O2  UNL     1      42.113  40.699  56.467  1.00  0.00    -0.392 OA
ATOM     48  H2  UNL     1      41.533  41.368  56.123  1.00  0.00     0.210 HD
ENDBRANCH  36  47
BRANCH  39  49
HETATM   49  O3  UNL     1      42.178  39.497  58.669  1.00  0.00    -0.393 OA
ATOM     50  H3  UNL     1      42.632  38.917  59.269  1.00  0.00     0.210 HD
ENDBRANCH  39  49
BRANCH  38  51
HETATM   51  O4  UNL     1      40.179  41.929  57.101  1.00  0.00    -0.394 OA
ATOM     52  H4  UNL     1      40.774  41.881  57.841  1.00  0.00     0.210 HD
ENDBRANCH  38  51
ENDBRANCH  28  29
ENDBRANCH  27  28
ENDBRANCH   1  27
TORSDOF 18
ENDMDL
