MODEL 1
REMARK VINA RESULT: -8.436324669      0.000      0.000
REMARK  7 active torsions:
REMARK  status: ('A' for Active; 'I' for Inactive)
REMARK    1  A    between atoms: C2_2  and  O1_3 
REMARK    2  A    between atoms: O1_3  and  C3_4 
REMARK    3  A    between atoms: C3_4  and  C4_6 
REMARK    4  A    between atoms: C4_6  and  O3_7 
REMARK    5  A    between atoms: C8_12  and  C9_13 
REMARK    6  A    between atoms: C9_13  and  C10_14 
REMARK    7  A    between atoms: C20_27  and  O4_29 
ROOT
HETATM    1  C4  UNL     1      87.585  34.285  11.859  1.00  0.00     0.177 C 
HETATM    2  C5  UNL     1      87.072  35.133  13.027  1.00  0.00     0.056 C 
HETATM    3  C6  UNL     1      87.399  36.588  12.810  1.00  0.00     0.039 C 
HETATM    4  C7  UNL     1      88.774  36.824  12.348  1.00  0.00    -0.066 C 
HETATM    5  C8  UNL     1      89.707  37.716  12.742  1.00  0.00    -0.072 C 
HETATM    6  C16 UNL     1      90.928  37.498  11.961  1.00  0.00     0.036 C 
HETATM    7  C17 UNL     1      90.743  36.246  11.131  1.00  0.00     0.021 C 
HETATM    8  C18 UNL     1      89.286  35.985  11.238  1.00  0.00     0.014 C 
HETATM    9  C19 UNL     1      88.637  36.367   9.926  1.00  0.00     0.023 C 
HETATM   10  C20 UNL     1      89.044  34.550  11.628  1.00  0.00     0.106 C 
HETATM   11  C21 UNL     1      89.832  34.300  12.896  1.00  0.00     0.051 C 
ENDROOT
BRANCH   5  12
HETATM   12  C9  UNL     1      89.504  38.714  13.806  1.00  0.00     0.076 C 
BRANCH  12  13
HETATM   13  C10 UNL     1      89.574  40.118  13.382  1.00  0.00    -0.014 A 
HETATM   14  C11 UNL     1      89.217  40.454  12.073  1.00  0.00     0.012 A 
HETATM   15  C12 UNL     1      89.243  41.754  11.615  1.00  0.00     0.026 A 
HETATM   16  C13 UNL     1      89.640  42.730  12.508  1.00  0.00     0.058 A 
HETATM   17 CL1  UNL     1      89.677  44.386  11.941  1.00  0.00    -0.082 Cl
HETATM   18  C14 UNL     1      89.992  42.401  13.799  1.00  0.00     0.094 A 
HETATM   19 CL2  UNL     1      90.491  43.660  14.908  1.00  0.00    -0.079 Cl
HETATM   20  C15 UNL     1      89.969  41.101  14.264  1.00  0.00     0.146 A 
HETATM   21  F1  UNL     1      90.349  40.848  15.549  1.00  0.00    -0.204 F 
ENDBRANCH  12  13
ENDBRANCH   5  12
BRANCH  10  22
HETATM   22  O4  UNL     1      89.514  33.660  10.664  1.00  0.00    -0.385 OA
ATOM     23  H4  UNL     1      89.839  34.156   9.921  1.00  0.00     0.210 HD
ENDBRANCH  10  22
BRANCH   1  24
HETATM   24  C3  UNL     1      87.272  32.866  12.051  1.00  0.00     0.296 C 
HETATM   25  O2  UNL     1      87.324  32.069  11.084  1.00  0.00    -0.262 OA
BRANCH  24  26
HETATM   26  O1  UNL     1      86.907  32.315  13.276  1.00  0.00    -0.319 OA
BRANCH  26  27
HETATM   27  C2  UNL     1      85.590  31.921  13.609  1.00  0.00     0.174 C 
HETATM   28  C1  UNL     1      84.955  32.732  14.686  1.00  0.00     0.034 C 
ENDBRANCH  26  27
ENDBRANCH  24  26
ENDBRANCH   1  24
BRANCH   1  29
HETATM   29  O3  UNL     1      86.829  34.771  10.760  1.00  0.00    -0.377 OA
ATOM     30  H3  UNL     1      87.423  35.177  10.140  1.00  0.00     0.211 HD
ENDBRANCH   1  29
TORSDOF 7
ENDMDL
MODEL 2
REMARK VINA RESULT: -8.371478654      0.799      1.179
REMARK  7 active torsions:
REMARK  status: ('A' for Active; 'I' for Inactive)
REMARK    1  A    between atoms: C2_2  and  O1_3 
REMARK    2  A    between atoms: O1_3  and  C3_4 
REMARK    3  A    between atoms: C3_4  and  C4_6 
REMARK    4  A    between atoms: C4_6  and  O3_7 
REMARK    5  A    between atoms: C8_12  and  C9_13 
REMARK    6  A    between atoms: C9_13  and  C10_14 
REMARK    7  A    between atoms: C20_27  and  O4_29 
ROOT
HETATM    1  C4  UNL     1      87.533  34.199  11.906  1.00  0.00     0.177 C 
HETATM    2  C5  UNL     1      87.052  35.042  13.091  1.00  0.00     0.056 C 
HETATM    3  C6  UNL     1      87.361  36.500  12.866  1.00  0.00     0.039 C 
HETATM    4  C7  UNL     1      88.718  36.746  12.360  1.00  0.00    -0.066 C 
HETATM    5  C8  UNL     1      89.658  37.645  12.725  1.00  0.00    -0.072 C 
HETATM    6  C16 UNL     1      90.855  37.436  11.906  1.00  0.00     0.036 C 
HETATM    7  C17 UNL     1      90.652  36.183  11.081  1.00  0.00     0.021 C 
HETATM    8  C18 UNL     1      89.201  35.912  11.233  1.00  0.00     0.014 C 
HETATM    9  C19 UNL     1      88.508  36.290   9.943  1.00  0.00     0.023 C 
HETATM   10  C20 UNL     1      88.982  34.475  11.629  1.00  0.00     0.106 C 
HETATM   11  C21 UNL     1      89.812  34.229  12.871  1.00  0.00     0.051 C 
ENDROOT
BRANCH   5  12
HETATM   12  C9  UNL     1      89.481  38.640  13.796  1.00  0.00     0.076 C 
BRANCH  12  13
HETATM   13  C10 UNL     1      89.549  40.045  13.375  1.00  0.00    -0.014 A 
HETATM   14  C11 UNL     1      89.186  40.384  12.069  1.00  0.00     0.012 A 
HETATM   15  C12 UNL     1      89.210  41.685  11.614  1.00  0.00     0.026 A 
HETATM   16  C13 UNL     1      89.611  42.659  12.506  1.00  0.00     0.058 A 
HETATM   17 CL1  UNL     1      89.645  44.317  11.944  1.00  0.00    -0.082 Cl
HETATM   18  C14 UNL     1      89.970  42.328  13.795  1.00  0.00     0.094 A 
HETATM   19 CL2  UNL     1      90.474  43.583  14.905  1.00  0.00    -0.079 Cl
HETATM   20  C15 UNL     1      89.949  41.026  14.258  1.00  0.00     0.146 A 
HETATM   21  F1  UNL     1      90.335  40.770  15.540  1.00  0.00    -0.204 F 
ENDBRANCH  12  13
ENDBRANCH   5  12
BRANCH  10  22
HETATM   22  O4  UNL     1      89.428  33.589  10.650  1.00  0.00    -0.385 OA
ATOM     23  H4  UNL     1      89.891  32.874  11.071  1.00  0.00     0.210 HD
ENDBRANCH  10  22
BRANCH   1  24
HETATM   24  C3  UNL     1      87.237  32.777  12.107  1.00  0.00     0.296 C 
HETATM   25  O2  UNL     1      86.884  32.357  13.235  1.00  0.00    -0.262 OA
BRANCH  24  26
HETATM   26  O1  UNL     1      87.321  31.821  11.099  1.00  0.00    -0.319 OA
BRANCH  26  27
HETATM   27  C2  UNL     1      86.401  30.759  10.932  1.00  0.00     0.174 C 
HETATM   28  C1  UNL     1      85.024  31.188  10.558  1.00  0.00     0.034 C 
ENDBRANCH  26  27
ENDBRANCH  24  26
ENDBRANCH   1  24
BRANCH   1  29
HETATM   29  O3  UNL     1      86.740  34.680  10.833  1.00  0.00    -0.377 OA
ATOM     30  H3  UNL     1      86.825  35.625  10.792  1.00  0.00     0.211 HD
ENDBRANCH   1  29
TORSDOF 7
ENDMDL
MODEL 3
REMARK VINA RESULT: -8.290326433      5.269      8.343
REMARK  7 active torsions:
REMARK  status: ('A' for Active; 'I' for Inactive)
REMARK    1  A    between atoms: C2_2  and  O1_3 
REMARK    2  A    between atoms: O1_3  and  C3_4 
REMARK    3  A    between atoms: C3_4  and  C4_6 
REMARK    4  A    between atoms: C4_6  and  O3_7 
REMARK    5  A    between atoms: C8_12  and  C9_13 
REMARK    6  A    between atoms: C9_13  and  C10_14 
REMARK    7  A    between atoms: C20_27  and  O4_29 
ROOT
HETATM    1  C4  UNL     1      90.299  41.721  13.639  1.00  0.00     0.177 C 
HETATM    2  C5  UNL     1      89.997  40.707  14.746  1.00  0.00     0.056 C 
HETATM    3  C6  UNL     1      90.039  39.302  14.205  1.00  0.00     0.039 C 
HETATM    4  C7  UNL     1      89.339  39.140  12.923  1.00  0.00    -0.066 C 
HETATM    5  C8  UNL     1      88.470  38.200  12.492  1.00  0.00    -0.072 C 
HETATM    6  C16 UNL     1      88.050  38.536  11.128  1.00  0.00     0.036 C 
HETATM    7  C17 UNL     1      88.611  39.898  10.780  1.00  0.00     0.021 C 
HETATM    8  C18 UNL     1      89.604  40.137  11.857  1.00  0.00     0.014 C 
HETATM    9  C19 UNL     1      90.988  39.955  11.277  1.00  0.00     0.023 C 
HETATM   10  C20 UNL     1      89.387  41.497  12.468  1.00  0.00     0.106 C 
HETATM   11  C21 UNL     1      87.940  41.555  12.909  1.00  0.00     0.051 C 
ENDROOT
BRANCH   5  12
HETATM   12  C9  UNL     1      88.020  37.054  13.300  1.00  0.00     0.076 C 
BRANCH  12  13
HETATM   13  C10 UNL     1      87.919  35.775  12.586  1.00  0.00    -0.014 A 
HETATM   14  C11 UNL     1      89.071  35.208  12.035  1.00  0.00     0.012 A 
HETATM   15  C12 UNL     1      89.049  34.001  11.368  1.00  0.00     0.026 A 
HETATM   16  C13 UNL     1      87.830  33.362  11.259  1.00  0.00     0.058 A 
HETATM   17 CL1  UNL     1      87.785  31.829  10.415  1.00  0.00    -0.082 Cl
HETATM   18  C14 UNL     1      86.691  33.920  11.801  1.00  0.00     0.094 A 
HETATM   19 CL2  UNL     1      85.160  33.087  11.647  1.00  0.00    -0.079 Cl
HETATM   20  C15 UNL     1      86.707  35.128  12.470  1.00  0.00     0.146 A 
HETATM   21  F1  UNL     1      85.539  35.629  12.964  1.00  0.00    -0.204 F 
ENDBRANCH  12  13
ENDBRANCH   5  12
BRANCH  10  22
HETATM   22  O4  UNL     1      89.582  42.522  11.545  1.00  0.00    -0.385 OA
ATOM     23  H4  UNL     1      89.223  43.327  11.900  1.00  0.00     0.210 HD
ENDBRANCH  10  22
BRANCH   1  24
HETATM   24  C3  UNL     1      90.267  43.095  14.150  1.00  0.00     0.296 C 
HETATM   25  O2  UNL     1      90.339  44.067  13.360  1.00  0.00    -0.262 OA
BRANCH  24  26
HETATM   26  O1  UNL     1      90.156  43.415  15.500  1.00  0.00    -0.319 OA
BRANCH  26  27
HETATM   27  C2  UNL     1      91.258  43.549  16.378  1.00  0.00     0.174 C 
HETATM   28  C1  UNL     1      91.116  44.636  17.386  1.00  0.00     0.034 C 
ENDBRANCH  26  27
ENDBRANCH  24  26
ENDBRANCH   1  24
BRANCH   1  29
HETATM   29  O3  UNL     1      91.633  41.405  13.275  1.00  0.00    -0.377 OA
ATOM     30  H3  UNL     1      91.747  40.463  13.328  1.00  0.00     0.211 HD
ENDBRANCH   1  29
TORSDOF 7
ENDMDL
MODEL 4
REMARK VINA RESULT: -8.159706402      1.097      1.623
REMARK  7 active torsions:
REMARK  status: ('A' for Active; 'I' for Inactive)
REMARK    1  A    between atoms: C2_2  and  O1_3 
REMARK    2  A    between atoms: O1_3  and  C3_4 
REMARK    3  A    between atoms: C3_4  and  C4_6 
REMARK    4  A    between atoms: C4_6  and  O3_7 
REMARK    5  A    between atoms: C8_12  and  C9_13 
REMARK    6  A    between atoms: C9_13  and  C10_14 
REMARK    7  A    between atoms: C20_27  and  O4_29 
ROOT
HETATM    1  C4  UNL     1      87.731  34.330  11.744  1.00  0.00     0.177 C 
HETATM    2  C5  UNL     1      87.180  35.109  12.943  1.00  0.00     0.056 C 
HETATM    3  C6  UNL     1      87.494  36.576  12.812  1.00  0.00     0.039 C 
HETATM    4  C7  UNL     1      88.877  36.851  12.396  1.00  0.00    -0.066 C 
HETATM    5  C8  UNL     1      89.790  37.731  12.860  1.00  0.00    -0.072 C 
HETATM    6  C16 UNL     1      91.032  37.568  12.099  1.00  0.00     0.036 C 
HETATM    7  C17 UNL     1      90.882  36.360  11.200  1.00  0.00     0.021 C 
HETATM    8  C18 UNL     1      89.426  36.078  11.256  1.00  0.00     0.014 C 
HETATM    9  C19 UNL     1      88.804  36.522   9.951  1.00  0.00     0.023 C 
HETATM   10  C20 UNL     1      89.191  34.622  11.563  1.00  0.00     0.106 C 
HETATM   11  C21 UNL     1      89.952  34.313  12.836  1.00  0.00     0.051 C 
ENDROOT
BRANCH   5  12
HETATM   12  C9  UNL     1      89.549  38.668  13.970  1.00  0.00     0.076 C 
BRANCH  12  13
HETATM   13  C10 UNL     1      89.708  40.091  13.645  1.00  0.00    -0.014 A 
HETATM   14  C11 UNL     1      90.192  40.965  14.623  1.00  0.00     0.012 A 
HETATM   15  C12 UNL     1      90.382  42.309  14.379  1.00  0.00     0.026 A 
HETATM   16  C13 UNL     1      90.072  42.771  13.115  1.00  0.00     0.058 A 
HETATM   17 CL1  UNL     1      90.308  44.475  12.789  1.00  0.00    -0.082 Cl
HETATM   18  C14 UNL     1      89.594  41.912  12.149  1.00  0.00     0.094 A 
HETATM   19 CL2  UNL     1      89.210  42.526  10.556  1.00  0.00    -0.079 Cl
HETATM   20  C15 UNL     1      89.401  40.564  12.387  1.00  0.00     0.146 A 
HETATM   21  F1  UNL     1      88.908  39.777  11.389  1.00  0.00    -0.204 F 
ENDBRANCH  12  13
ENDBRANCH   5  12
BRANCH  10  22
HETATM   22  O4  UNL     1      89.695  33.789  10.566  1.00  0.00    -0.385 OA
ATOM     23  H4  UNL     1      90.397  34.244  10.113  1.00  0.00     0.210 HD
ENDBRANCH  10  22
BRANCH   1  24
HETATM   24  C3  UNL     1      87.430  32.899  11.854  1.00  0.00     0.296 C 
HETATM   25  O2  UNL     1      87.581  32.142  10.864  1.00  0.00    -0.262 OA
BRANCH  24  26
HETATM   26  O1  UNL     1      86.972  32.293  13.020  1.00  0.00    -0.319 OA
BRANCH  26  27
HETATM   27  C2  UNL     1      85.700  31.688  13.155  1.00  0.00     0.174 C 
HETATM   28  C1  UNL     1      84.569  32.505  12.631  1.00  0.00     0.034 C 
ENDBRANCH  26  27
ENDBRANCH  24  26
ENDBRANCH   1  24
BRANCH   1  29
HETATM   29  O3  UNL     1      86.996  34.865  10.655  1.00  0.00    -0.377 OA
ATOM     30  H3  UNL     1      86.177  35.216  10.984  1.00  0.00     0.211 HD
ENDBRANCH   1  29
TORSDOF 7
ENDMDL
MODEL 5
REMARK VINA RESULT: -7.801711889      1.704      2.342
REMARK  7 active torsions:
REMARK  status: ('A' for Active; 'I' for Inactive)
REMARK    1  A    between atoms: C2_2  and  O1_3 
REMARK    2  A    between atoms: O1_3  and  C3_4 
REMARK    3  A    between atoms: C3_4  and  C4_6 
REMARK    4  A    between atoms: C4_6  and  O3_7 
REMARK    5  A    between atoms: C8_12  and  C9_13 
REMARK    6  A    between atoms: C9_13  and  C10_14 
REMARK    7  A    between atoms: C20_27  and  O4_29 
ROOT
HETATM    1  C4  UNL     1      86.606  33.540  12.512  1.00  0.00     0.177 C 
HETATM    2  C5  UNL     1      85.769  34.676  13.107  1.00  0.00     0.056 C 
HETATM    3  C6  UNL     1      86.054  35.973  12.396  1.00  0.00     0.039 C 
HETATM    4  C7  UNL     1      87.484  36.225  12.172  1.00  0.00    -0.066 C 
HETATM    5  C8  UNL     1      88.235  37.331  12.358  1.00  0.00    -0.072 C 
HETATM    6  C16 UNL     1      89.624  37.024  12.001  1.00  0.00     0.036 C 
HETATM    7  C17 UNL     1      89.726  35.539  11.727  1.00  0.00     0.021 C 
HETATM    8  C18 UNL     1      88.306  35.119  11.625  1.00  0.00     0.014 C 
HETATM    9  C19 UNL     1      87.984  34.874  10.168  1.00  0.00     0.023 C 
HETATM   10  C20 UNL     1      88.058  33.917  12.500  1.00  0.00     0.106 C 
HETATM   11  C21 UNL     1      88.518  34.287  13.895  1.00  0.00     0.051 C 
ENDROOT
BRANCH   5  12
HETATM   12  C9  UNL     1      87.715  38.613  12.864  1.00  0.00     0.076 C 
BRANCH  12  13
HETATM   13  C10 UNL     1      88.722  39.648  13.126  1.00  0.00    -0.014 A 
HETATM   14  C11 UNL     1      89.749  39.386  14.036  1.00  0.00     0.012 A 
HETATM   15  C12 UNL     1      90.737  40.308  14.315  1.00  0.00     0.026 A 
HETATM   16  C13 UNL     1      90.676  41.518  13.654  1.00  0.00     0.058 A 
HETATM   17 CL1  UNL     1      91.923  42.698  13.996  1.00  0.00    -0.082 Cl
HETATM   18  C14 UNL     1      89.664  41.779  12.755  1.00  0.00     0.094 A 
HETATM   19 CL2  UNL     1      89.612  43.322  11.932  1.00  0.00    -0.079 Cl
HETATM   20  C15 UNL     1      88.671  40.861  12.472  1.00  0.00     0.146 A 
HETATM   21  F1  UNL     1      87.691  41.195  11.586  1.00  0.00    -0.204 F 
ENDBRANCH  12  13
ENDBRANCH   5  12
BRANCH  10  22
HETATM   22  O4  UNL     1      88.806  32.813  12.096  1.00  0.00    -0.385 OA
ATOM     23  H4  UNL     1      89.531  33.113  11.559  1.00  0.00     0.210 HD
ENDBRANCH  10  22
BRANCH   1  24
HETATM   24  C3  UNL     1      86.338  32.267  13.190  1.00  0.00     0.296 C 
HETATM   25  O2  UNL     1      85.994  32.253  14.396  1.00  0.00    -0.262 OA
BRANCH  24  26
HETATM   26  O1  UNL     1      86.442  31.025  12.570  1.00  0.00    -0.319 OA
BRANCH  26  27
HETATM   27  C2  UNL     1      85.997  29.811  13.143  1.00  0.00     0.174 C 
HETATM   28  C1  UNL     1      86.697  28.597  12.640  1.00  0.00     0.034 C 
ENDBRANCH  26  27
ENDBRANCH  24  26
ENDBRANCH   1  24
BRANCH   1  29
HETATM   29  O3  UNL     1      86.122  33.454  11.180  1.00  0.00    -0.377 OA
ATOM     30  H3  UNL     1      85.999  34.334  10.846  1.00  0.00     0.211 HD
ENDBRANCH   1  29
TORSDOF 7
ENDMDL
