MODEL 1
REMARK VINA RESULT: -8.445812518      0.000      0.000
REMARK  3 active torsions:
REMARK  status: ('A' for Active; 'I' for Inactive)
REMARK    1  A    between atoms: C1_2  and  C2_4 
REMARK    2  A    between atoms: C3_5  and  N2_6 
REMARK       I    between atoms: N2_6  and  C4_8 
REMARK    3  A    between atoms: C4_8  and  C5_10 
ROOT
HETATM    1  C2  UNL     1      88.167  35.329  11.789  1.00  0.00     0.070 A 
HETATM    2  C3  UNL     1      87.677  36.422  12.420  1.00  0.00     0.093 A 
HETATM    3  S2  UNL     1      86.112  35.908  12.977  1.00  0.00    -0.075 SA
HETATM    4  C9  UNL     1      86.149  34.335  12.402  1.00  0.00    -0.008 A 
HETATM    5  C10 UNL     1      87.363  34.193  11.772  1.00  0.00    -0.023 A 
HETATM    6  C11 UNL     1      88.106  33.103  11.018  1.00  0.00     0.067 C 
HETATM    7  C12 UNL     1      87.405  31.785  10.774  1.00  0.00    -0.026 C 
HETATM    8  C13 UNL     1      86.048  31.966  10.970  1.00  0.00    -0.030 C 
HETATM    9  C14 UNL     1      84.656  31.679  10.916  1.00  0.00     0.027 C 
HETATM   10  C15 UNL     1      84.091  32.980  11.604  1.00  0.00     0.009 C 
HETATM   11  C16 UNL     1      84.945  33.475  12.689  1.00  0.00     0.047 C 
ENDROOT
BRANCH   2  12
HETATM   12  N2  UNL     1      88.223  37.657  12.918  1.00  0.00    -0.316 N 
HETATM   13  C4  UNL     1      88.515  38.792  12.191  1.00  0.00     0.266 C 
HETATM   14  O2  UNL     1      88.349  38.799  10.908  1.00  0.00    -0.267 OA
ATOM     15  H2  UNL     1      88.416  37.697  13.919  1.00  0.00     0.169 HD
BRANCH  13  16
HETATM   16  C5  UNL     1      89.024  40.067  12.746  1.00  0.00     0.115 A 
HETATM   17  S1  UNL     1      88.890  41.600  11.986  1.00  0.00    -0.068 SA
HETATM   18  C6  UNL     1      89.665  42.559  13.161  1.00  0.00     0.100 A 
HETATM   19 CL1  UNL     1      89.954  44.310  13.142  1.00  0.00    -0.074 Cl
HETATM   20  C7  UNL     1      90.007  41.648  14.119  1.00  0.00     0.102 A 
HETATM   21 CL2  UNL     1      90.865  42.211  15.586  1.00  0.00    -0.079 Cl
HETATM   22  C8  UNL     1      89.670  40.360  13.896  1.00  0.00     0.163 A 
HETATM   23  F1  UNL     1      89.985  39.371  14.827  1.00  0.00    -0.203 F 
ENDBRANCH  13  16
ENDBRANCH   2  12
BRANCH   1  24
HETATM   24  C1  UNL     1      89.393  35.536  10.935  1.00  0.00     0.268 C 
HETATM   25  N1  UNL     1      90.704  35.146  11.183  1.00  0.00    -0.057 NA
HETATM   26  O1  UNL     1      89.216  36.169   9.817  1.00  0.00    -0.271 OA
ENDBRANCH   1  24
TORSDOF 3
ENDMDL
MODEL 2
REMARK VINA RESULT: -8.365204322      1.196      1.581
REMARK  3 active torsions:
REMARK  status: ('A' for Active; 'I' for Inactive)
REMARK    1  A    between atoms: C1_2  and  C2_4 
REMARK    2  A    between atoms: C3_5  and  N2_6 
REMARK       I    between atoms: N2_6  and  C4_8 
REMARK    3  A    between atoms: C4_8  and  C5_10 
ROOT
HETATM    1  C2  UNL     1      88.465  35.595  11.788  1.00  0.00     0.070 A 
HETATM    2  C3  UNL     1      87.992  36.637  12.510  1.00  0.00     0.093 A 
HETATM    3  S2  UNL     1      86.475  36.054  13.129  1.00  0.00    -0.075 SA
HETATM    4  C9  UNL     1      86.511  34.517  12.462  1.00  0.00    -0.008 A 
HETATM    5  C10 UNL     1      87.687  34.442  11.753  1.00  0.00    -0.023 A 
HETATM    6  C11 UNL     1      88.405  33.415  10.893  1.00  0.00     0.067 C 
HETATM    7  C12 UNL     1      87.719  32.097  10.616  1.00  0.00    -0.026 C 
HETATM    8  C13 UNL     1      86.374  32.231  10.903  1.00  0.00    -0.030 C 
HETATM    9  C14 UNL     1      84.988  31.913  10.917  1.00  0.00     0.027 C 
HETATM   10  C15 UNL     1      84.438  33.158  11.711  1.00  0.00     0.009 C 
HETATM   11  C16 UNL     1      85.346  33.612  12.771  1.00  0.00     0.047 C 
ENDROOT
BRANCH   2  12
HETATM   12  N2  UNL     1      88.540  37.856  13.045  1.00  0.00    -0.316 N 
HETATM   13  C4  UNL     1      88.687  39.061  12.392  1.00  0.00     0.266 C 
HETATM   14  O2  UNL     1      88.360  39.165  11.144  1.00  0.00    -0.267 OA
ATOM     15  H2  UNL     1      88.855  37.824  14.015  1.00  0.00     0.169 HD
BRANCH  13  16
HETATM   16  C5  UNL     1      89.203  40.312  12.991  1.00  0.00     0.115 A 
HETATM   17  S1  UNL     1      90.007  40.427  14.504  1.00  0.00    -0.068 SA
HETATM   18  C6  UNL     1      90.302  42.104  14.534  1.00  0.00     0.100 A 
HETATM   19 CL1  UNL     1      91.112  43.060  15.791  1.00  0.00    -0.074 Cl
HETATM   20  C7  UNL     1      89.761  42.529  13.354  1.00  0.00     0.102 A 
HETATM   21 CL2  UNL     1      89.836  44.268  12.940  1.00  0.00    -0.079 Cl
HETATM   22  C8  UNL     1      89.195  41.593  12.561  1.00  0.00     0.163 A 
HETATM   23  F1  UNL     1      88.623  41.948  11.341  1.00  0.00    -0.203 F 
ENDBRANCH  13  16
ENDBRANCH   2  12
BRANCH   1  24
HETATM   24  C1  UNL     1      89.631  35.881  10.876  1.00  0.00     0.268 C 
HETATM   25  N1  UNL     1      90.988  35.689  11.109  1.00  0.00    -0.057 NA
HETATM   26  O1  UNL     1      89.345  36.382   9.714  1.00  0.00    -0.271 OA
ENDBRANCH   1  24
TORSDOF 3
ENDMDL
MODEL 3
REMARK VINA RESULT: -8.041141457      5.187      8.397
REMARK  3 active torsions:
REMARK  status: ('A' for Active; 'I' for Inactive)
REMARK    1  A    between atoms: C1_2  and  C2_4 
REMARK    2  A    between atoms: C3_5  and  N2_6 
REMARK       I    between atoms: N2_6  and  C4_8 
REMARK    3  A    between atoms: C4_8  and  C5_10 
ROOT
HETATM    1  C2  UNL     1      89.076  36.029  11.941  1.00  0.00     0.070 A 
HETATM    2  C3  UNL     1      87.772  35.822  12.242  1.00  0.00     0.093 A 
HETATM    3  S2  UNL     1      87.209  37.392  12.735  1.00  0.00    -0.075 SA
HETATM    4  C9  UNL     1      88.638  38.243  12.528  1.00  0.00    -0.008 A 
HETATM    5  C10 UNL     1      89.561  37.326  12.083  1.00  0.00    -0.023 A 
HETATM    6  C11 UNL     1      91.031  37.323  11.696  1.00  0.00     0.067 C 
HETATM    7  C12 UNL     1      91.823  38.601  11.854  1.00  0.00    -0.026 C 
HETATM    8  C13 UNL     1      91.125  39.451  12.692  1.00  0.00    -0.030 C 
HETATM    9  C14 UNL     1      90.891  40.560  13.551  1.00  0.00     0.027 C 
HETATM   10  C15 UNL     1      89.389  40.281  13.939  1.00  0.00     0.009 C 
HETATM   11  C16 UNL     1      88.604  39.718  12.835  1.00  0.00     0.047 C 
ENDROOT
BRANCH   2  12
HETATM   12  N2  UNL     1      86.808  34.783  11.991  1.00  0.00    -0.316 N 
HETATM   13  C4  UNL     1      86.539  33.687  12.784  1.00  0.00     0.266 C 
HETATM   14  O2  UNL     1      87.225  33.485  13.862  1.00  0.00    -0.267 OA
ATOM     15  H2  UNL     1      86.264  34.866  11.133  1.00  0.00     0.169 HD
BRANCH  13  16
HETATM   16  C5  UNL     1      85.499  32.667  12.524  1.00  0.00     0.115 A 
HETATM   17  S1  UNL     1      84.260  32.213  13.623  1.00  0.00    -0.068 SA
HETATM   18  C6  UNL     1      83.470  31.038  12.678  1.00  0.00     0.100 A 
HETATM   19 CL1  UNL     1      82.047  30.061  13.093  1.00  0.00    -0.074 Cl
HETATM   20  C7  UNL     1      84.200  31.033  11.524  1.00  0.00     0.102 A 
HETATM   21 CL2  UNL     1      83.729  29.924  10.201  1.00  0.00    -0.079 Cl
HETATM   22  C8  UNL     1      85.249  31.881  11.453  1.00  0.00     0.163 A 
HETATM   23  F1  UNL     1      86.043  31.936  10.308  1.00  0.00    -0.203 F 
ENDBRANCH  13  16
ENDBRANCH   2  12
BRANCH   1  24
HETATM   24  C1  UNL     1      89.930  34.800  11.760  1.00  0.00     0.268 C 
HETATM   25  N1  UNL     1      90.433  33.937  12.726  1.00  0.00    -0.057 NA
HETATM   26  O1  UNL     1      90.255  34.499  10.540  1.00  0.00    -0.271 OA
ENDBRANCH   1  24
TORSDOF 3
ENDMDL
MODEL 4
REMARK VINA RESULT: -7.898932412      5.120      8.364
REMARK  3 active torsions:
REMARK  status: ('A' for Active; 'I' for Inactive)
REMARK    1  A    between atoms: C1_2  and  C2_4 
REMARK    2  A    between atoms: C3_5  and  N2_6 
REMARK       I    between atoms: N2_6  and  C4_8 
REMARK    3  A    between atoms: C4_8  and  C5_10 
ROOT
HETATM    1  C2  UNL     1      89.047  35.952  11.969  1.00  0.00     0.070 A 
HETATM    2  C3  UNL     1      87.752  35.730  12.295  1.00  0.00     0.093 A 
HETATM    3  S2  UNL     1      87.170  37.301  12.762  1.00  0.00    -0.075 SA
HETATM    4  C9  UNL     1      88.581  38.171  12.513  1.00  0.00    -0.008 A 
HETATM    5  C10 UNL     1      89.513  37.259  12.075  1.00  0.00    -0.023 A 
HETATM    6  C11 UNL     1      90.976  37.272  11.665  1.00  0.00     0.067 C 
HETATM    7  C12 UNL     1      91.749  38.567  11.782  1.00  0.00    -0.026 C 
HETATM    8  C13 UNL     1      91.050  39.423  12.612  1.00  0.00    -0.030 C 
HETATM    9  C14 UNL     1      90.809  40.547  13.450  1.00  0.00     0.027 C 
HETATM   10  C15 UNL     1      89.318  40.252  13.867  1.00  0.00     0.009 C 
HETATM   11  C16 UNL     1      88.526  39.652  12.788  1.00  0.00     0.047 C 
ENDROOT
BRANCH   2  12
HETATM   12  N2  UNL     1      86.802  34.670  12.083  1.00  0.00    -0.316 N 
HETATM   13  C4  UNL     1      86.543  33.604  12.918  1.00  0.00     0.266 C 
HETATM   14  O2  UNL     1      87.226  33.454  14.006  1.00  0.00    -0.267 OA
ATOM     15  H2  UNL     1      86.261  34.712  11.219  1.00  0.00     0.169 HD
BRANCH  13  16
HETATM   16  C5  UNL     1      85.516  32.561  12.695  1.00  0.00     0.115 A 
HETATM   17  S1  UNL     1      85.807  31.019  11.999  1.00  0.00    -0.068 SA
HETATM   18  C6  UNL     1      84.227  30.386  12.061  1.00  0.00     0.100 A 
HETATM   19 CL1  UNL     1      83.653  28.795  11.521  1.00  0.00    -0.074 Cl
HETATM   20  C7  UNL     1      83.513  31.403  12.627  1.00  0.00     0.102 A 
HETATM   21 CL2  UNL     1      81.758  31.188  12.898  1.00  0.00    -0.079 Cl
HETATM   22  C8  UNL     1      84.190  32.526  12.953  1.00  0.00     0.163 A 
HETATM   23  F1  UNL     1      83.532  33.608  13.536  1.00  0.00    -0.203 F 
ENDBRANCH  13  16
ENDBRANCH   2  12
BRANCH   1  24
HETATM   24  C1  UNL     1      89.919  34.733  11.802  1.00  0.00     0.268 C 
HETATM   25  N1  UNL     1      90.459  33.907  12.780  1.00  0.00    -0.057 NA
HETATM   26  O1  UNL     1      90.221  34.404  10.584  1.00  0.00    -0.271 OA
ENDBRANCH   1  24
TORSDOF 3
ENDMDL
MODEL 5
REMARK VINA RESULT: -7.876064992      1.640      2.003
REMARK  3 active torsions:
REMARK  status: ('A' for Active; 'I' for Inactive)
REMARK    1  A    between atoms: C1_2  and  C2_4 
REMARK    2  A    between atoms: C3_5  and  N2_6 
REMARK       I    between atoms: N2_6  and  C4_8 
REMARK    3  A    between atoms: C4_8  and  C5_10 
ROOT
HETATM    1  C2  UNL     1      87.499  34.495  12.296  1.00  0.00     0.070 A 
HETATM    2  C3  UNL     1      87.081  35.766  12.500  1.00  0.00     0.093 A 
HETATM    3  S2  UNL     1      85.368  35.601  12.751  1.00  0.00    -0.075 SA
HETATM    4  C9  UNL     1      85.256  33.936  12.601  1.00  0.00    -0.008 A 
HETATM    5  C10 UNL     1      86.533  33.494  12.351  1.00  0.00    -0.023 A 
HETATM    6  C11 UNL     1      87.221  32.163  12.095  1.00  0.00     0.067 C 
HETATM    7  C12 UNL     1      86.371  30.915  12.007  1.00  0.00    -0.026 C 
HETATM    8  C13 UNL     1      85.057  31.290  11.806  1.00  0.00    -0.030 C 
HETATM    9  C14 UNL     1      83.680  31.155  11.474  1.00  0.00     0.027 C 
HETATM   10  C15 UNL     1      83.215  32.649  11.662  1.00  0.00     0.009 C 
HETATM   11  C16 UNL     1      83.888  33.327  12.775  1.00  0.00     0.047 C 
ENDROOT
BRANCH   2  12
HETATM   12  N2  UNL     1      87.713  37.023  12.806  1.00  0.00    -0.316 N 
HETATM   13  C4  UNL     1      88.317  37.889  11.920  1.00  0.00     0.266 C 
HETATM   14  O2  UNL     1      88.402  37.578  10.667  1.00  0.00    -0.267 OA
ATOM     15  H2  UNL     1      87.714  37.303  13.787  1.00  0.00     0.169 HD
BRANCH  13  16
HETATM   16  C5  UNL     1      88.907  39.203  12.262  1.00  0.00     0.115 A 
HETATM   17  S1  UNL     1      89.889  39.520  13.634  1.00  0.00    -0.068 SA
HETATM   18  C6  UNL     1      90.192  41.177  13.380  1.00  0.00     0.100 A 
HETATM   19 CL1  UNL     1      91.153  42.288  14.376  1.00  0.00    -0.074 Cl
HETATM   20  C7  UNL     1      89.513  41.436  12.224  1.00  0.00     0.102 A 
HETATM   21 CL2  UNL     1      89.543  43.095  11.553  1.00  0.00    -0.079 Cl
HETATM   22  C8  UNL     1      88.851  40.408  11.652  1.00  0.00     0.163 A 
HETATM   23  F1  UNL     1      88.135  40.593  10.470  1.00  0.00    -0.203 F 
ENDBRANCH  13  16
ENDBRANCH   2  12
BRANCH   1  24
HETATM   24  C1  UNL     1      88.895  34.322  11.755  1.00  0.00     0.268 C 
HETATM   25  N1  UNL     1      90.089  34.174  12.452  1.00  0.00    -0.057 NA
HETATM   26  O1  UNL     1      89.017  34.316  10.463  1.00  0.00    -0.271 OA
ENDBRANCH   1  24
TORSDOF 3
ENDMDL
