MODEL 1
REMARK VINA RESULT: -8.859140426      0.000      0.000
REMARK  5 active torsions:
REMARK  status: ('A' for Active; 'I' for Inactive)
REMARK    1  A    between atoms: C3_4  and  N2_5 
REMARK    2  A    between atoms: N2_5  and  C4_7 
REMARK    3  A    between atoms: C4_7  and  C6_12 
REMARK    4  A    between atoms: N3_8  and  C5_10 
REMARK    5  A    between atoms: C11_20  and  O2_21 
ROOT
HETATM    1  N1  UNL     1      85.288  35.820  12.732  1.00  0.00    -0.191 NA
HETATM    2  C1  UNL     1      86.425  35.873  12.422  1.00  0.00     0.103 C 
HETATM    3  C2  UNL     1      87.858  35.972  12.052  1.00  0.00     0.085 A 
HETATM    4  C3  UNL     1      88.471  34.899  11.500  1.00  0.00     0.097 A 
HETATM    5  S1  UNL     1      90.090  35.485  11.261  1.00  0.00    -0.075 SA
HETATM    6  C12 UNL     1      89.911  37.057  11.869  1.00  0.00    -0.007 A 
HETATM    7  C13 UNL     1      88.606  37.099  12.245  1.00  0.00    -0.021 A 
HETATM    8  C14 UNL     1      88.109  38.416  12.847  1.00  0.00     0.041 C 
HETATM    9  C15 UNL     1      88.938  39.522  12.290  1.00  0.00     0.005 C 
HETATM   10  C16 UNL     1      90.355  39.271  12.828  1.00  0.00     0.005 C 
HETATM   11  C17 UNL     1      90.903  38.170  11.990  1.00  0.00     0.047 C 
ENDROOT
BRANCH   4  12
HETATM   12  N2  UNL     1      88.080  33.588  11.134  1.00  0.00    -0.335 N 
ATOM     13  H2  UNL     1      88.584  33.179  10.346  1.00  0.00     0.168 HD
BRANCH  12  14
HETATM   14  C4  UNL     1      87.084  32.772  11.715  1.00  0.00     0.121 C 
HETATM   15  N3  UNL     1      86.891  32.900  12.960  1.00  0.00    -0.320 N 
ATOM     16  H3  UNL     1      87.493  33.595  13.401  1.00  0.00     0.169 HD
BRANCH  15  17
HETATM   17  C5  UNL     1      86.023  32.280  13.834  1.00  0.00     0.354 C 
HETATM   18  O1  UNL     1      86.298  31.092  14.217  1.00  0.00    -0.283 OA
ENDBRANCH  15  17
BRANCH  14  19
HETATM   19  C6  UNL     1      86.349  31.829  10.913  1.00  0.00     0.045 A 
HETATM   20  C7  UNL     1      84.986  31.804  10.808  1.00  0.00     0.044 A 
HETATM   21  C8  UNL     1      84.301  30.882  10.048  1.00  0.00     0.058 A 
HETATM   22 CL1  UNL     1      82.560  30.936   9.983  1.00  0.00    -0.082 Cl
HETATM   23  C9  UNL     1      84.971  29.924   9.343  1.00  0.00     0.080 A 
HETATM   24 CL2  UNL     1      84.155  28.734   8.367  1.00  0.00    -0.081 Cl
HETATM   25  C10 UNL     1      86.360  29.902   9.412  1.00  0.00     0.091 A 
HETATM   26 CL3  UNL     1      87.235  28.688   8.520  1.00  0.00    -0.079 Cl
HETATM   27  C11 UNL     1      87.015  30.834  10.179  1.00  0.00     0.103 A 
BRANCH  27  28
HETATM   28  O2  UNL     1      88.383  30.773  10.216  1.00  0.00    -0.358 OA
ATOM     29  H2  UNL     1      88.824  29.991   9.905  1.00  0.00     0.217 HD
ENDBRANCH  27  28
ENDBRANCH  14  19
ENDBRANCH  12  14
ENDBRANCH   4  12
TORSDOF 5
ENDMDL
MODEL 2
REMARK VINA RESULT: -8.545907904      5.021      8.263
REMARK  5 active torsions:
REMARK  status: ('A' for Active; 'I' for Inactive)
REMARK    1  A    between atoms: C3_4  and  N2_5 
REMARK    2  A    between atoms: N2_5  and  C4_7 
REMARK    3  A    between atoms: C4_7  and  C6_12 
REMARK    4  A    between atoms: N3_8  and  C5_10 
REMARK    5  A    between atoms: C11_20  and  O2_21 
ROOT
HETATM    1  N1  UNL     1      83.843  35.464  13.852  1.00  0.00    -0.191 NA
HETATM    2  C1  UNL     1      84.696  34.931  13.236  1.00  0.00     0.103 C 
HETATM    3  C2  UNL     1      85.743  34.241  12.445  1.00  0.00     0.085 A 
HETATM    4  C3  UNL     1      86.992  34.759  12.411  1.00  0.00     0.097 A 
HETATM    5  S1  UNL     1      87.828  33.638  11.379  1.00  0.00    -0.075 SA
HETATM    6  C12 UNL     1      86.556  32.568  11.042  1.00  0.00    -0.007 A 
HETATM    7  C13 UNL     1      85.513  33.098  11.732  1.00  0.00    -0.021 A 
HETATM    8  C14 UNL     1      84.180  32.350  11.639  1.00  0.00     0.041 C 
HETATM    9  C15 UNL     1      84.473  30.912  11.382  1.00  0.00     0.005 C 
HETATM   10  C16 UNL     1      85.124  30.878   9.990  1.00  0.00     0.005 C 
HETATM   11  C17 UNL     1      86.525  31.332  10.201  1.00  0.00     0.047 C 
ENDROOT
BRANCH   4  12
HETATM   12  N2  UNL     1      87.639  35.880  12.989  1.00  0.00    -0.335 N 
ATOM     13  H2  UNL     1      87.176  36.289  13.801  1.00  0.00     0.168 HD
BRANCH  12  14
HETATM   14  C4  UNL     1      88.841  36.505  12.587  1.00  0.00     0.121 C 
HETATM   15  N3  UNL     1      89.766  35.752  12.163  1.00  0.00    -0.320 N 
ATOM     16  H3  UNL     1      89.523  34.761  12.162  1.00  0.00     0.169 HD
BRANCH  15  17
HETATM   17  C5  UNL     1      91.039  36.014  11.702  1.00  0.00     0.354 C 
HETATM   18  O1  UNL     1      91.189  36.282  10.462  1.00  0.00    -0.283 OA
ENDBRANCH  15  17
BRANCH  14  19
HETATM   19  C6  UNL     1      88.992  37.934  12.686  1.00  0.00     0.045 A 
HETATM   20  C7  UNL     1      89.544  38.577  13.759  1.00  0.00     0.044 A 
HETATM   21  C8  UNL     1      89.665  39.947  13.840  1.00  0.00     0.058 A 
HETATM   22 CL1  UNL     1      90.383  40.669  15.255  1.00  0.00    -0.082 Cl
HETATM   23  C9  UNL     1      89.227  40.747  12.825  1.00  0.00     0.080 A 
HETATM   24 CL2  UNL     1      89.355  42.484  12.877  1.00  0.00    -0.081 Cl
HETATM   25  C10 UNL     1      88.658  40.146  11.707  1.00  0.00     0.091 A 
HETATM   26 CL3  UNL     1      88.093  41.149  10.400  1.00  0.00    -0.079 Cl
HETATM   27  C11 UNL     1      88.551  38.778  11.655  1.00  0.00     0.103 A 
BRANCH  27  28
HETATM   28  O2  UNL     1      87.982  38.231  10.534  1.00  0.00    -0.358 OA
ATOM     29  H2  UNL     1      88.537  37.975   9.807  1.00  0.00     0.217 HD
ENDBRANCH  27  28
ENDBRANCH  14  19
ENDBRANCH  12  14
ENDBRANCH   4  12
TORSDOF 5
ENDMDL
MODEL 3
REMARK VINA RESULT: -8.415992420      1.406      2.266
REMARK  5 active torsions:
REMARK  status: ('A' for Active; 'I' for Inactive)
REMARK    1  A    between atoms: C3_4  and  N2_5 
REMARK    2  A    between atoms: N2_5  and  C4_7 
REMARK    3  A    between atoms: C4_7  and  C6_12 
REMARK    4  A    between atoms: N3_8  and  C5_10 
REMARK    5  A    between atoms: C11_20  and  O2_21 
ROOT
HETATM    1  N1  UNL     1      85.082  36.145  12.827  1.00  0.00    -0.191 NA
HETATM    2  C1  UNL     1      86.220  36.090  12.523  1.00  0.00     0.103 C 
HETATM    3  C2  UNL     1      87.657  36.054  12.157  1.00  0.00     0.085 A 
HETATM    4  C3  UNL     1      88.188  34.902  11.685  1.00  0.00     0.097 A 
HETATM    5  S1  UNL     1      89.847  35.344  11.418  1.00  0.00    -0.075 SA
HETATM    6  C12 UNL     1      89.787  36.964  11.916  1.00  0.00    -0.007 A 
HETATM    7  C13 UNL     1      88.489  37.131  12.278  1.00  0.00    -0.021 A 
HETATM    8  C14 UNL     1      88.092  38.520  12.785  1.00  0.00     0.041 C 
HETATM    9  C15 UNL     1      89.005  39.519  12.160  1.00  0.00     0.005 C 
HETATM   10  C16 UNL     1      90.397  39.198  12.724  1.00  0.00     0.005 C 
HETATM   11  C17 UNL     1      90.862  38.003  11.967  1.00  0.00     0.047 C 
ENDROOT
BRANCH   4  12
HETATM   12  N2  UNL     1      87.699  33.602  11.406  1.00  0.00    -0.335 N 
ATOM     13  H2  UNL     1      88.139  33.122  10.620  1.00  0.00     0.168 HD
BRANCH  12  14
HETATM   14  C4  UNL     1      86.681  32.883  12.072  1.00  0.00     0.121 C 
HETATM   15  N3  UNL     1      86.655  32.963  13.336  1.00  0.00    -0.320 N 
ATOM     16  H3  UNL     1      87.389  33.553  13.727  1.00  0.00     0.169 HD
BRANCH  15  17
HETATM   17  C5  UNL     1      85.824  32.406  14.285  1.00  0.00     0.354 C 
HETATM   18  O1  UNL     1      85.030  33.180  14.922  1.00  0.00    -0.283 OA
ENDBRANCH  15  17
BRANCH  14  19
HETATM   19  C6  UNL     1      85.741  32.084  11.330  1.00  0.00     0.045 A 
HETATM   20  C7  UNL     1      86.087  31.018  10.546  1.00  0.00     0.044 A 
HETATM   21  C8  UNL     1      85.173  30.276   9.831  1.00  0.00     0.058 A 
HETATM   22 CL1  UNL     1      85.718  28.935   8.859  1.00  0.00    -0.082 Cl
HETATM   23  C9  UNL     1      83.843  30.580   9.872  1.00  0.00     0.080 A 
HETATM   24 CL2  UNL     1      82.645  29.676   8.987  1.00  0.00    -0.081 Cl
HETATM   25  C10 UNL     1      83.433  31.655  10.655  1.00  0.00     0.091 A 
HETATM   26 CL3  UNL     1      81.740  32.059  10.723  1.00  0.00    -0.079 Cl
HETATM   27  C11 UNL     1      84.368  32.376  11.357  1.00  0.00     0.103 A 
BRANCH  27  28
HETATM   28  O2  UNL     1      83.918  33.426  12.114  1.00  0.00    -0.358 OA
ATOM     29  H2  UNL     1      83.061  33.375  12.520  1.00  0.00     0.217 HD
ENDBRANCH  27  28
ENDBRANCH  14  19
ENDBRANCH  12  14
ENDBRANCH   4  12
TORSDOF 5
ENDMDL
MODEL 4
REMARK VINA RESULT: -8.231583625     14.607     16.961
REMARK  5 active torsions:
REMARK  status: ('A' for Active; 'I' for Inactive)
REMARK    1  A    between atoms: C3_4  and  N2_5 
REMARK    2  A    between atoms: N2_5  and  C4_7 
REMARK    3  A    between atoms: C4_7  and  C6_12 
REMARK    4  A    between atoms: N3_8  and  C5_10 
REMARK    5  A    between atoms: C11_20  and  O2_21 
ROOT
HETATM    1  N1  UNL     1      91.052  44.130  16.357  1.00  0.00    -0.191 NA
HETATM    2  C1  UNL     1      91.239  44.512  17.457  1.00  0.00     0.103 C 
HETATM    3  C2  UNL     1      91.507  44.976  18.840  1.00  0.00     0.085 A 
HETATM    4  C3  UNL     1      90.709  45.926  19.382  1.00  0.00     0.097 A 
HETATM    5  S1  UNL     1      91.408  46.136  20.960  1.00  0.00    -0.075 SA
HETATM    6  C12 UNL     1      92.674  45.012  20.856  1.00  0.00    -0.007 A 
HETATM    7  C13 UNL     1      92.532  44.498  19.606  1.00  0.00    -0.021 A 
HETATM    8  C14 UNL     1      93.542  43.426  19.188  1.00  0.00     0.041 C 
HETATM    9  C15 UNL     1      94.014  42.729  20.418  1.00  0.00     0.005 C 
HETATM   10  C16 UNL     1      94.774  43.798  21.218  1.00  0.00     0.005 C 
HETATM   11  C17 UNL     1      93.721  44.635  21.855  1.00  0.00     0.047 C 
ENDROOT
BRANCH   4  12
HETATM   12  N2  UNL     1      89.574  46.658  18.956  1.00  0.00    -0.335 N 
ATOM     13  H2  UNL     1      89.089  46.288  18.139  1.00  0.00     0.168 HD
BRANCH  12  14
HETATM   14  C4  UNL     1      89.026  47.834  19.514  1.00  0.00     0.121 C 
HETATM   15  N3  UNL     1      89.804  48.825  19.644  1.00  0.00    -0.320 N 
ATOM     16  H3  UNL     1      90.755  48.648  19.320  1.00  0.00     0.169 HD
BRANCH  15  17
HETATM   17  C5  UNL     1      89.613  50.098  20.140  1.00  0.00     0.354 C 
HETATM   18  O1  UNL     1      89.837  50.303  21.381  1.00  0.00    -0.283 OA
ENDBRANCH  15  17
BRANCH  14  19
HETATM   19  C6  UNL     1      87.648  47.876  19.931  1.00  0.00     0.045 A 
HETATM   20  C7  UNL     1      86.588  47.988  19.074  1.00  0.00     0.044 A 
HETATM   21  C8  UNL     1      85.277  48.042  19.495  1.00  0.00     0.058 A 
HETATM   22 CL1  UNL     1      83.997  48.189  18.320  1.00  0.00    -0.082 Cl
HETATM   23  C9  UNL     1      84.968  47.983  20.823  1.00  0.00     0.080 A 
HETATM   24 CL2  UNL     1      83.328  48.048  21.409  1.00  0.00    -0.081 Cl
HETATM   25  C10 UNL     1      86.007  47.867  21.740  1.00  0.00     0.091 A 
HETATM   26 CL3  UNL     1      85.635  47.790  23.440  1.00  0.00    -0.079 Cl
HETATM   27  C11 UNL     1      87.304  47.816  21.290  1.00  0.00     0.103 A 
BRANCH  27  28
HETATM   28  O2  UNL     1      88.294  47.701  22.231  1.00  0.00    -0.358 OA
ATOM     29  H2  UNL     1      88.133  47.197  23.019  1.00  0.00     0.217 HD
ENDBRANCH  27  28
ENDBRANCH  14  19
ENDBRANCH  12  14
ENDBRANCH   4  12
TORSDOF 5
ENDMDL
MODEL 5
REMARK VINA RESULT: -8.210722481     13.914     16.387
REMARK  5 active torsions:
REMARK  status: ('A' for Active; 'I' for Inactive)
REMARK    1  A    between atoms: C3_4  and  N2_5 
REMARK    2  A    between atoms: N2_5  and  C4_7 
REMARK    3  A    between atoms: C4_7  and  C6_12 
REMARK    4  A    between atoms: N3_8  and  C5_10 
REMARK    5  A    between atoms: C11_20  and  O2_21 
ROOT
HETATM    1  N1  UNL     1      90.985  44.149  16.338  1.00  0.00    -0.191 NA
HETATM    2  C1  UNL     1      91.177  44.542  17.434  1.00  0.00     0.103 C 
HETATM    3  C2  UNL     1      91.450  45.020  18.810  1.00  0.00     0.085 A 
HETATM    4  C3  UNL     1      90.661  45.982  19.342  1.00  0.00     0.097 A 
HETATM    5  S1  UNL     1      91.364  46.205  20.917  1.00  0.00    -0.075 SA
HETATM    6  C12 UNL     1      92.620  45.069  20.824  1.00  0.00    -0.007 A 
HETATM    7  C13 UNL     1      92.472  44.542  19.581  1.00  0.00    -0.021 A 
HETATM    8  C14 UNL     1      93.472  43.457  19.174  1.00  0.00     0.041 C 
HETATM    9  C15 UNL     1      93.940  42.770  20.411  1.00  0.00     0.005 C 
HETATM   10  C16 UNL     1      94.710  43.842  21.198  1.00  0.00     0.005 C 
HETATM   11  C17 UNL     1      93.665  44.695  21.827  1.00  0.00     0.047 C 
ENDROOT
BRANCH   4  12
HETATM   12  N2  UNL     1      89.532  46.720  18.909  1.00  0.00    -0.335 N 
ATOM     13  H2  UNL     1      89.394  46.767  17.899  1.00  0.00     0.168 HD
BRANCH  12  14
HETATM   14  C4  UNL     1      88.571  47.398  19.692  1.00  0.00     0.121 C 
HETATM   15  N3  UNL     1      88.825  47.530  20.925  1.00  0.00    -0.320 N 
ATOM     16  H3  UNL     1      89.715  47.121  21.209  1.00  0.00     0.169 HD
BRANCH  15  17
HETATM   17  C5  UNL     1      88.129  48.121  21.959  1.00  0.00     0.354 C 
HETATM   18  O1  UNL     1      88.487  49.287  22.339  1.00  0.00    -0.283 OA
ENDBRANCH  15  17
BRANCH  14  19
HETATM   19  C6  UNL     1      87.355  47.889  19.097  1.00  0.00     0.045 A 
HETATM   20  C7  UNL     1      86.995  49.208  19.059  1.00  0.00     0.044 A 
HETATM   21  C8  UNL     1      85.818  49.655  18.499  1.00  0.00     0.058 A 
HETATM   22 CL1  UNL     1      85.452  51.360  18.503  1.00  0.00    -0.082 Cl
HETATM   23  C9  UNL     1      84.934  48.779  17.941  1.00  0.00     0.080 A 
HETATM   24 CL2  UNL     1      83.432  49.290  17.220  1.00  0.00    -0.081 Cl
HETATM   25  C10 UNL     1      85.250  47.424  17.950  1.00  0.00     0.091 A 
HETATM   26 CL3  UNL     1      84.135  46.287  17.243  1.00  0.00    -0.079 Cl
HETATM   27  C11 UNL     1      86.430  47.008  18.516  1.00  0.00     0.103 A 
BRANCH  27  28
HETATM   28  O2  UNL     1      86.698  45.664  18.502  1.00  0.00    -0.358 OA
ATOM     29  H2  UNL     1      85.982  45.046  18.416  1.00  0.00     0.217 HD
ENDBRANCH  27  28
ENDBRANCH  14  19
ENDBRANCH  12  14
ENDBRANCH   4  12
TORSDOF 5
ENDMDL
