MODEL 1
REMARK VINA RESULT: -6.878813092      0.000      0.000
REMARK  16 active torsions:
REMARK  status: ('A' for Active; 'I' for Inactive)
REMARK    1  A    between atoms: C4_4  and  C5_5 
REMARK    2  A    between atoms: C5_5  and  C6_6 
REMARK    3  A    between atoms: C6_6  and  C7_7 
REMARK    4  A    between atoms: C9_9  and  C10_10 
REMARK    5  A    between atoms: C10_10  and  O1_11 
REMARK    6  A    between atoms: O1_11  and  C11_12 
REMARK    7  A    between atoms: C12_13  and  O2_14 
REMARK    8  A    between atoms: C13_16  and  C14_17 
REMARK    9  A    between atoms: C13_16  and  C15_20 
REMARK   10  A    between atoms: C14_17  and  O3_18 
REMARK   11  A    between atoms: C15_20  and  O4_21 
REMARK   12  A    between atoms: C16_23  and  O5_24 
REMARK   13  A    between atoms: C22_31  and  C23_32 
REMARK   14  A    between atoms: C22_31  and  O7_35 
REMARK   15  A    between atoms: C23_32  and  O6_33 
REMARK   16  A    between atoms: O7_35  and  N1_36 
ROOT
HETATM    1  C11 UNL     1     -10.441  75.136 118.319  1.00  0.00     0.159 C 
HETATM    2  C12 UNL     1     -10.035  75.332 116.821  1.00  0.00     0.162 C 
HETATM    3  C13 UNL     1      -9.697  76.731 116.525  1.00  0.00     0.057 C 
HETATM    4  C16 UNL     1      -9.558  77.664 117.669  1.00  0.00     0.138 C 
HETATM    5  C17 UNL     1     -10.573  77.565 118.767  1.00  0.00     0.025 C 
HETATM    6  C18 UNL     1     -11.491  78.721 118.756  1.00  0.00     0.008 C 
HETATM    7  C19 UNL     1     -12.764  78.570 119.509  1.00  0.00     0.008 C 
HETATM    8  C20 UNL     1     -13.267  77.208 119.731  1.00  0.00     0.021 C 
HETATM    9  C21 UNL     1     -14.177  76.717 118.623  1.00  0.00     0.013 C 
HETATM   10  C22 UNL     1     -12.169  76.148 119.921  1.00  0.00     0.119 C 
HETATM   11  C24 UNL     1     -11.323  76.244 118.708  1.00  0.00     0.063 C 
ENDROOT
BRANCH   1  12
HETATM   12  O1  UNL     1      -9.272  75.058 119.028  1.00  0.00    -0.379 OA
BRANCH  12  13
HETATM   13  C10 UNL     1      -8.496  73.950 118.917  1.00  0.00     0.196 C 
BRANCH  13  14
HETATM   14  C9  UNL     1      -8.879  72.899 119.870  1.00  0.00     0.001 C 
HETATM   15  C7  UNL     1      -8.857  71.629 119.620  1.00  0.00    -0.085 C 
HETATM   16  C8  UNL     1      -9.290  70.682 120.733  1.00  0.00     0.043 C 
BRANCH  15  17
HETATM   17  C6  UNL     1      -8.449  71.026 118.351  1.00  0.00     0.037 C 
BRANCH  17  18
HETATM   18  C5  UNL     1      -9.718  70.549 117.624  1.00  0.00     0.031 C 
BRANCH  18  19
HETATM   19  C4  UNL     1      -9.283  69.504 116.666  1.00  0.00    -0.024 C 
HETATM   20  C2  UNL     1      -9.217  68.230 117.026  1.00  0.00    -0.091 C 
HETATM   21  C1  UNL     1      -8.773  67.200 116.031  1.00  0.00     0.042 C 
HETATM   22  C3  UNL     1      -9.574  67.802 118.400  1.00  0.00     0.042 C 
ENDBRANCH  18  19
ENDBRANCH  17  18
ENDBRANCH  15  17
ENDBRANCH  13  14
ENDBRANCH  12  13
ENDBRANCH   1  12
BRANCH   2  23
HETATM   23  O2  UNL     1     -11.132  74.931 116.051  1.00  0.00    -0.392 OA
ATOM     24  H2  UNL     1     -11.361  75.668 115.498  1.00  0.00     0.210 HD
ENDBRANCH   2  23
BRANCH   3  25
HETATM   25  C14 UNL     1     -10.580  77.333 115.425  1.00  0.00     0.181 C 
BRANCH  25  26
HETATM   26  O3  UNL     1     -10.201  76.931 114.159  1.00  0.00    -0.400 OA
ATOM     27  H3  UNL     1      -9.260  76.845 114.069  1.00  0.00     0.209 HD
ENDBRANCH  25  26
ENDBRANCH   3  25
BRANCH   3  28
HETATM   28  C15 UNL     1      -8.291  76.699 115.866  1.00  0.00     0.181 C 
BRANCH  28  29
HETATM   29  O4  UNL     1      -7.956  77.910 115.315  1.00  0.00    -0.400 OA
ATOM     30  H4  UNL     1      -7.720  78.548 115.978  1.00  0.00     0.209 HD
ENDBRANCH  28  29
ENDBRANCH   3  28
BRANCH  10  31
HETATM   31  C23 UNL     1     -11.540  76.453 121.225  1.00  0.00     0.205 C 
BRANCH  31  32
HETATM   32  O6  UNL     1     -10.744  75.339 121.595  1.00  0.00    -0.398 OA
ATOM     33  H6  UNL     1     -10.374  75.517 122.451  1.00  0.00     0.209 HD
ENDBRANCH  31  32
ENDBRANCH  10  31
BRANCH  10  34
HETATM   34  O7  UNL     1     -12.754  74.890 119.921  1.00  0.00    -0.273 OA
BRANCH  34  35
HETATM   35  N1  UNL     1     -13.371  74.540 121.042  1.00  0.00    -0.310 N 
ATOM     36  H12 UNL     1     -14.139  73.868 121.035  1.00  0.00     0.184 HD
ATOM     37  H11 UNL     1     -13.030  74.984 121.894  1.00  0.00     0.184 HD
ENDBRANCH  34  35
ENDBRANCH  10  34
BRANCH   4  38
HETATM   38  O5  UNL     1      -8.232  77.570 118.156  1.00  0.00    -0.394 OA
ATOM     39  H5  UNL     1      -7.828  78.426 118.085  1.00  0.00     0.210 HD
ENDBRANCH   4  38
TORSDOF 16
ENDMDL
MODEL 2
REMARK VINA RESULT: -6.700058442      0.885      1.396
REMARK  16 active torsions:
REMARK  status: ('A' for Active; 'I' for Inactive)
REMARK    1  A    between atoms: C4_4  and  C5_5 
REMARK    2  A    between atoms: C5_5  and  C6_6 
REMARK    3  A    between atoms: C6_6  and  C7_7 
REMARK    4  A    between atoms: C9_9  and  C10_10 
REMARK    5  A    between atoms: C10_10  and  O1_11 
REMARK    6  A    between atoms: O1_11  and  C11_12 
REMARK    7  A    between atoms: C12_13  and  O2_14 
REMARK    8  A    between atoms: C13_16  and  C14_17 
REMARK    9  A    between atoms: C13_16  and  C15_20 
REMARK   10  A    between atoms: C14_17  and  O3_18 
REMARK   11  A    between atoms: C15_20  and  O4_21 
REMARK   12  A    between atoms: C16_23  and  O5_24 
REMARK   13  A    between atoms: C22_31  and  C23_32 
REMARK   14  A    between atoms: C22_31  and  O7_35 
REMARK   15  A    between atoms: C23_32  and  O6_33 
REMARK   16  A    between atoms: O7_35  and  N1_36 
ROOT
HETATM    1  C11 UNL     1     -10.395  75.122 118.190  1.00  0.00     0.159 C 
HETATM    2  C12 UNL     1     -10.025  75.394 116.695  1.00  0.00     0.162 C 
HETATM    3  C13 UNL     1      -9.627  76.792 116.477  1.00  0.00     0.057 C 
HETATM    4  C16 UNL     1      -9.407  77.641 117.672  1.00  0.00     0.138 C 
HETATM    5  C17 UNL     1     -10.392  77.520 118.795  1.00  0.00     0.025 C 
HETATM    6  C18 UNL     1     -11.252  78.718 118.887  1.00  0.00     0.008 C 
HETATM    7  C19 UNL     1     -12.508  78.579 119.671  1.00  0.00     0.008 C 
HETATM    8  C20 UNL     1     -13.071  77.231 119.822  1.00  0.00     0.021 C 
HETATM    9  C21 UNL     1     -14.037  76.858 118.717  1.00  0.00     0.013 C 
HETATM   10  C22 UNL     1     -12.022  76.110 119.909  1.00  0.00     0.119 C 
HETATM   11  C24 UNL     1     -11.209  76.244 118.678  1.00  0.00     0.063 C 
ENDROOT
BRANCH   1  12
HETATM   12  O1  UNL     1      -9.212  74.942 118.855  1.00  0.00    -0.379 OA
BRANCH  12  13
HETATM   13  C10 UNL     1      -8.593  73.735 118.801  1.00  0.00     0.196 C 
BRANCH  13  14
HETATM   14  C9  UNL     1      -9.065  72.816 119.846  1.00  0.00     0.001 C 
HETATM   15  C7  UNL     1      -8.862  71.538 119.854  1.00  0.00    -0.085 C 
HETATM   16  C8  UNL     1      -9.428  70.739 121.023  1.00  0.00     0.043 C 
BRANCH  15  17
HETATM   17  C6  UNL     1      -8.131  70.793 118.828  1.00  0.00     0.037 C 
BRANCH  17  18
HETATM   18  C5  UNL     1      -9.159  70.032 117.973  1.00  0.00     0.031 C 
BRANCH  18  19
HETATM   19  C4  UNL     1      -9.135  70.663 116.632  1.00  0.00    -0.024 C 
HETATM   20  C2  UNL     1     -10.120  71.454 116.229  1.00  0.00    -0.091 C 
HETATM   21  C1  UNL     1     -10.062  72.075 114.866  1.00  0.00     0.042 C 
HETATM   22  C3  UNL     1     -11.283  71.737 117.104  1.00  0.00     0.042 C 
ENDBRANCH  18  19
ENDBRANCH  17  18
ENDBRANCH  15  17
ENDBRANCH  13  14
ENDBRANCH  12  13
ENDBRANCH   1  12
BRANCH   2  23
HETATM   23  O2  UNL     1     -11.163  75.097 115.938  1.00  0.00    -0.392 OA
ATOM     24  H2  UNL     1     -11.514  75.927 115.635  1.00  0.00     0.210 HD
ENDBRANCH   2  23
BRANCH   3  25
HETATM   25  C14 UNL     1     -10.511  77.505 115.447  1.00  0.00     0.181 C 
BRANCH  25  26
HETATM   26  O3  UNL     1     -10.178  77.184 114.146  1.00  0.00    -0.400 OA
ATOM     27  H3  UNL     1     -10.175  76.247 113.989  1.00  0.00     0.209 HD
ENDBRANCH  25  26
ENDBRANCH   3  25
BRANCH   3  28
HETATM   28  C15 UNL     1      -8.244  76.736 115.772  1.00  0.00     0.181 C 
BRANCH  28  29
HETATM   29  O4  UNL     1      -7.839  77.972 115.338  1.00  0.00    -0.400 OA
ATOM     30  H4  UNL     1      -7.129  77.913 114.710  1.00  0.00     0.209 HD
ENDBRANCH  28  29
ENDBRANCH   3  28
BRANCH  10  31
HETATM   31  C23 UNL     1     -11.341  76.299 121.208  1.00  0.00     0.205 C 
BRANCH  31  32
HETATM   32  O6  UNL     1     -10.524  75.163 121.440  1.00  0.00    -0.398 OA
ATOM     33  H6  UNL     1     -10.977  74.403 121.095  1.00  0.00     0.209 HD
ENDBRANCH  31  32
ENDBRANCH  10  31
BRANCH  10  34
HETATM   34  O7  UNL     1     -12.669  74.884 119.849  1.00  0.00    -0.273 OA
BRANCH  34  35
HETATM   35  N1  UNL     1     -13.197  74.453 120.987  1.00  0.00    -0.310 N 
ATOM     36  H12 UNL     1     -13.775  75.063 121.566  1.00  0.00     0.184 HD
ATOM     37  H11 UNL     1     -12.988  73.487 121.237  1.00  0.00     0.184 HD
ENDBRANCH  34  35
ENDBRANCH  10  34
BRANCH   4  38
HETATM   38  O5  UNL     1      -8.074  77.452 118.109  1.00  0.00    -0.394 OA
ATOM     39  H5  UNL     1      -7.770  78.265 118.495  1.00  0.00     0.210 HD
ENDBRANCH   4  38
TORSDOF 16
ENDMDL
MODEL 3
REMARK VINA RESULT: -6.634245538      2.517      6.901
REMARK  16 active torsions:
REMARK  status: ('A' for Active; 'I' for Inactive)
REMARK    1  A    between atoms: C4_4  and  C5_5 
REMARK    2  A    between atoms: C5_5  and  C6_6 
REMARK    3  A    between atoms: C6_6  and  C7_7 
REMARK    4  A    between atoms: C9_9  and  C10_10 
REMARK    5  A    between atoms: C10_10  and  O1_11 
REMARK    6  A    between atoms: O1_11  and  C11_12 
REMARK    7  A    between atoms: C12_13  and  O2_14 
REMARK    8  A    between atoms: C13_16  and  C14_17 
REMARK    9  A    between atoms: C13_16  and  C15_20 
REMARK   10  A    between atoms: C14_17  and  O3_18 
REMARK   11  A    between atoms: C15_20  and  O4_21 
REMARK   12  A    between atoms: C16_23  and  O5_24 
REMARK   13  A    between atoms: C22_31  and  C23_32 
REMARK   14  A    between atoms: C22_31  and  O7_35 
REMARK   15  A    between atoms: C23_32  and  O6_33 
REMARK   16  A    between atoms: O7_35  and  N1_36 
ROOT
HETATM    1  C11 UNL     1     -10.163  75.475 117.650  1.00  0.00     0.159 C 
HETATM    2  C12 UNL     1     -10.736  76.588 118.587  1.00  0.00     0.162 C 
HETATM    3  C13 UNL     1     -10.074  76.594 119.898  1.00  0.00     0.057 C 
HETATM    4  C16 UNL     1      -8.859  75.759 120.060  1.00  0.00     0.138 C 
HETATM    5  C17 UNL     1      -8.882  74.385 119.463  1.00  0.00     0.025 C 
HETATM    6  C18 UNL     1      -8.964  73.345 120.509  1.00  0.00     0.008 C 
HETATM    7  C19 UNL     1      -9.390  71.990 120.070  1.00  0.00     0.008 C 
HETATM    8  C20 UNL     1     -10.190  71.891 118.842  1.00  0.00     0.021 C 
HETATM    9  C21 UNL     1     -11.681  71.986 119.089  1.00  0.00     0.013 C 
HETATM   10  C22 UNL     1      -9.837  72.934 117.769  1.00  0.00     0.119 C 
HETATM   11  C24 UNL     1      -9.996  74.246 118.438  1.00  0.00     0.063 C 
ENDROOT
BRANCH   1  12
HETATM   12  O1  UNL     1      -9.004  75.977 117.119  1.00  0.00    -0.379 OA
BRANCH  12  13
HETATM   13  C10 UNL     1      -9.069  76.874 116.102  1.00  0.00     0.196 C 
BRANCH  13  14
HETATM   14  C9  UNL     1      -9.956  76.429 115.018  1.00  0.00     0.001 C 
HETATM   15  C7  UNL     1     -10.695  77.210 114.298  1.00  0.00    -0.085 C 
HETATM   16  C8  UNL     1     -11.554  76.570 113.213  1.00  0.00     0.043 C 
BRANCH  15  17
HETATM   17  C6  UNL     1     -10.773  78.665 114.440  1.00  0.00     0.037 C 
BRANCH  17  18
HETATM   18  C5  UNL     1     -12.239  79.034 114.724  1.00  0.00     0.031 C 
BRANCH  18  19
HETATM   19  C4  UNL     1     -12.436  78.868 116.184  1.00  0.00    -0.024 C 
HETATM   20  C2  UNL     1     -13.322  79.601 116.844  1.00  0.00    -0.091 C 
HETATM   21  C1  UNL     1     -13.495  79.406 118.320  1.00  0.00     0.042 C 
HETATM   22  C3  UNL     1     -14.150  80.614 116.146  1.00  0.00     0.042 C 
ENDBRANCH  18  19
ENDBRANCH  17  18
ENDBRANCH  15  17
ENDBRANCH  13  14
ENDBRANCH  12  13
ENDBRANCH   1  12
BRANCH   2  23
HETATM   23  O2  UNL     1     -12.101  76.320 118.742  1.00  0.00    -0.392 OA
ATOM     24  H2  UNL     1     -12.204  75.913 119.594  1.00  0.00     0.210 HD
ENDBRANCH   2  23
BRANCH   3  25
HETATM   25  C14 UNL     1     -11.053  76.376 121.058  1.00  0.00     0.181 C 
BRANCH  25  26
HETATM   26  O3  UNL     1     -11.587  77.558 121.532  1.00  0.00    -0.400 OA
ATOM     27  H3  UNL     1     -12.336  77.419 122.101  1.00  0.00     0.209 HD
ENDBRANCH  25  26
ENDBRANCH   3  25
BRANCH   3  28
HETATM   28  C15 UNL     1      -9.585  78.051 120.122  1.00  0.00     0.181 C 
BRANCH  28  29
HETATM   29  O4  UNL     1      -8.964  78.202 121.336  1.00  0.00    -0.400 OA
ATOM     30  H4  UNL     1      -8.634  79.085 121.458  1.00  0.00     0.209 HD
ENDBRANCH  28  29
ENDBRANCH   3  28
BRANCH  10  31
HETATM   31  C23 UNL     1      -8.490  72.568 117.282  1.00  0.00     0.205 C 
BRANCH  31  32
HETATM   32  O6  UNL     1      -8.273  73.242 116.053  1.00  0.00    -0.398 OA
ATOM     33  H6  UNL     1      -8.734  74.073 116.091  1.00  0.00     0.209 HD
ENDBRANCH  31  32
ENDBRANCH  10  31
BRANCH  10  34
HETATM   34  O7  UNL     1     -10.780  72.869 116.753  1.00  0.00    -0.273 OA
BRANCH  34  35
HETATM   35  N1  UNL     1     -10.685  71.822 115.943  1.00  0.00    -0.310 N 
ATOM     36  H12 UNL     1     -10.317  70.930 116.273  1.00  0.00     0.184 HD
ATOM     37  H11 UNL     1     -10.999  71.973 114.984  1.00  0.00     0.184 HD
ENDBRANCH  34  35
ENDBRANCH  10  34
BRANCH   4  38
HETATM   38  O5  UNL     1      -7.743  76.513 119.624  1.00  0.00    -0.394 OA
ATOM     39  H5  UNL     1      -7.553  76.268 118.726  1.00  0.00     0.210 HD
ENDBRANCH   4  38
TORSDOF 16
ENDMDL
MODEL 4
REMARK VINA RESULT: -6.374051368      2.042      4.204
REMARK  16 active torsions:
REMARK  status: ('A' for Active; 'I' for Inactive)
REMARK    1  A    between atoms: C4_4  and  C5_5 
REMARK    2  A    between atoms: C5_5  and  C6_6 
REMARK    3  A    between atoms: C6_6  and  C7_7 
REMARK    4  A    between atoms: C9_9  and  C10_10 
REMARK    5  A    between atoms: C10_10  and  O1_11 
REMARK    6  A    between atoms: O1_11  and  C11_12 
REMARK    7  A    between atoms: C12_13  and  O2_14 
REMARK    8  A    between atoms: C13_16  and  C14_17 
REMARK    9  A    between atoms: C13_16  and  C15_20 
REMARK   10  A    between atoms: C14_17  and  O3_18 
REMARK   11  A    between atoms: C15_20  and  O4_21 
REMARK   12  A    between atoms: C16_23  and  O5_24 
REMARK   13  A    between atoms: C22_31  and  C23_32 
REMARK   14  A    between atoms: C22_31  and  O7_35 
REMARK   15  A    between atoms: C23_32  and  O6_33 
REMARK   16  A    between atoms: O7_35  and  N1_36 
ROOT
HETATM    1  C11 UNL     1     -11.366  74.544 120.239  1.00  0.00     0.159 C 
HETATM    2  C12 UNL     1     -12.792  73.916 120.379  1.00  0.00     0.162 C 
HETATM    3  C13 UNL     1     -13.552  74.000 119.125  1.00  0.00     0.057 C 
HETATM    4  C16 UNL     1     -12.823  74.420 117.904  1.00  0.00     0.138 C 
HETATM    5  C17 UNL     1     -11.854  75.556 118.035  1.00  0.00     0.025 C 
HETATM    6  C18 UNL     1     -12.365  76.777 117.382  1.00  0.00     0.008 C 
HETATM    7  C19 UNL     1     -11.718  78.060 117.765  1.00  0.00     0.008 C 
HETATM    8  C20 UNL     1     -11.055  78.125 119.074  1.00  0.00     0.021 C 
HETATM    9  C21 UNL     1     -11.977  78.567 120.191  1.00  0.00     0.013 C 
HETATM   10  C22 UNL     1     -10.398  76.807 119.518  1.00  0.00     0.119 C 
HETATM   11  C24 UNL     1     -11.486  75.802 119.490  1.00  0.00     0.063 C 
ENDROOT
BRANCH   1  12
HETATM   12  O1  UNL     1     -10.583  73.594 119.642  1.00  0.00    -0.379 OA
BRANCH  12  13
HETATM   13  C10 UNL     1      -9.334  73.361 120.120  1.00  0.00     0.196 C 
BRANCH  13  14
HETATM   14  C9  UNL     1      -8.383  73.010 119.057  1.00  0.00     0.001 C 
HETATM   15  C7  UNL     1      -8.061  71.802 118.720  1.00  0.00    -0.085 C 
HETATM   16  C8  UNL     1      -7.053  71.628 117.589  1.00  0.00     0.043 C 
BRANCH  15  17
HETATM   17  C6  UNL     1      -8.588  70.585 119.338  1.00  0.00     0.037 C 
BRANCH  17  18
HETATM   18  C5  UNL     1      -9.762  70.088 118.477  1.00  0.00     0.031 C 
BRANCH  18  19
HETATM   19  C4  UNL     1      -9.353  68.770 117.935  1.00  0.00    -0.024 C 
HETATM   20  C2  UNL     1      -9.274  68.561 116.628  1.00  0.00    -0.091 C 
HETATM   21  C1  UNL     1      -8.856  67.216 116.116  1.00  0.00     0.042 C 
HETATM   22  C3  UNL     1      -9.591  69.637 115.659  1.00  0.00     0.042 C 
ENDBRANCH  18  19
ENDBRANCH  17  18
ENDBRANCH  15  17
ENDBRANCH  13  14
ENDBRANCH  12  13
ENDBRANCH   1  12
BRANCH   2  23
HETATM   23  O2  UNL     1     -13.450  74.632 121.386  1.00  0.00    -0.392 OA
ATOM     24  H2  UNL     1     -12.930  74.533 122.175  1.00  0.00     0.210 HD
ENDBRANCH   2  23
BRANCH   3  25
HETATM   25  C14 UNL     1     -14.865  74.776 119.279  1.00  0.00     0.181 C 
BRANCH  25  26
HETATM   26  O3  UNL     1     -15.871  74.014 119.841  1.00  0.00    -0.400 OA
ATOM     27  H3  UNL     1     -16.349  74.479 120.517  1.00  0.00     0.209 HD
ENDBRANCH  25  26
ENDBRANCH   3  25
BRANCH   3  28
HETATM   28  C15 UNL     1     -14.033  72.555 118.821  1.00  0.00     0.181 C 
BRANCH  28  29
HETATM   29  O4  UNL     1     -13.760  71.696 119.855  1.00  0.00    -0.400 OA
ATOM     30  H4  UNL     1     -14.167  70.847 119.727  1.00  0.00     0.209 HD
ENDBRANCH  28  29
ENDBRANCH   3  28
BRANCH  10  31
HETATM   31  C23 UNL     1      -9.249  76.605 118.609  1.00  0.00     0.205 C 
BRANCH  31  32
HETATM   32  O6  UNL     1      -8.730  77.882 118.274  1.00  0.00    -0.398 OA
ATOM     33  H6  UNL     1      -9.172  78.180 117.488  1.00  0.00     0.209 HD
ENDBRANCH  31  32
ENDBRANCH  10  31
BRANCH  10  34
HETATM   34  O7  UNL     1      -9.985  76.934 120.837  1.00  0.00    -0.273 OA
BRANCH  34  35
HETATM   35  N1  UNL     1      -8.729  77.324 121.014  1.00  0.00    -0.310 N 
ATOM     36  H12 UNL     1      -8.000  77.078 120.344  1.00  0.00     0.184 HD
ATOM     37  H11 UNL     1      -8.549  77.877 121.852  1.00  0.00     0.184 HD
ENDBRANCH  34  35
ENDBRANCH  10  34
BRANCH   4  38
HETATM   38  O5  UNL     1     -12.226  73.272 117.329  1.00  0.00    -0.394 OA
ATOM     39  H5  UNL     1     -11.740  73.544 116.560  1.00  0.00     0.210 HD
ENDBRANCH   4  38
TORSDOF 16
ENDMDL
MODEL 5
REMARK VINA RESULT: -6.349311676      2.596      6.210
REMARK  16 active torsions:
REMARK  status: ('A' for Active; 'I' for Inactive)
REMARK    1  A    between atoms: C4_4  and  C5_5 
REMARK    2  A    between atoms: C5_5  and  C6_6 
REMARK    3  A    between atoms: C6_6  and  C7_7 
REMARK    4  A    between atoms: C9_9  and  C10_10 
REMARK    5  A    between atoms: C10_10  and  O1_11 
REMARK    6  A    between atoms: O1_11  and  C11_12 
REMARK    7  A    between atoms: C12_13  and  O2_14 
REMARK    8  A    between atoms: C13_16  and  C14_17 
REMARK    9  A    between atoms: C13_16  and  C15_20 
REMARK   10  A    between atoms: C14_17  and  O3_18 
REMARK   11  A    between atoms: C15_20  and  O4_21 
REMARK   12  A    between atoms: C16_23  and  O5_24 
REMARK   13  A    between atoms: C22_31  and  C23_32 
REMARK   14  A    between atoms: C22_31  and  O7_35 
REMARK   15  A    between atoms: C23_32  and  O6_33 
REMARK   16  A    between atoms: O7_35  and  N1_36 
ROOT
HETATM    1  C11 UNL     1     -10.259  75.705 117.680  1.00  0.00     0.159 C 
HETATM    2  C12 UNL     1     -10.793  76.783 118.680  1.00  0.00     0.162 C 
HETATM    3  C13 UNL     1     -10.086  76.732 119.967  1.00  0.00     0.057 C 
HETATM    4  C16 UNL     1      -8.872  75.886 120.054  1.00  0.00     0.138 C 
HETATM    5  C17 UNL     1      -8.924  74.536 119.404  1.00  0.00     0.025 C 
HETATM    6  C18 UNL     1      -8.977  73.456 120.409  1.00  0.00     0.008 C 
HETATM    7  C19 UNL     1      -9.426  72.122 119.932  1.00  0.00     0.008 C 
HETATM    8  C20 UNL     1     -10.268  72.076 118.729  1.00  0.00     0.021 C 
HETATM    9  C21 UNL     1     -11.750  72.169 119.031  1.00  0.00     0.013 C 
HETATM   10  C22 UNL     1      -9.946  73.160 117.687  1.00  0.00     0.119 C 
HETATM   11  C24 UNL     1     -10.073  74.445 118.413  1.00  0.00     0.063 C 
ENDROOT
BRANCH   1  12
HETATM   12  O1  UNL     1      -9.116  76.222 117.131  1.00  0.00    -0.379 OA
BRANCH  12  13
HETATM   13  C10 UNL     1      -9.056  76.433 115.791  1.00  0.00     0.196 C 
BRANCH  13  14
HETATM   14  C9  UNL     1      -9.716  77.682 115.390  1.00  0.00     0.001 C 
HETATM   15  C7  UNL     1     -10.551  77.797 114.408  1.00  0.00    -0.085 C 
HETATM   16  C8  UNL     1     -11.139  79.177 114.136  1.00  0.00     0.043 C 
BRANCH  15  17
HETATM   17  C6  UNL     1     -10.980  76.704 113.534  1.00  0.00     0.037 C 
BRANCH  17  18
HETATM   18  C5  UNL     1     -12.518  76.668 113.541  1.00  0.00     0.031 C 
BRANCH  18  19
HETATM   19  C4  UNL     1     -12.905  75.593 114.486  1.00  0.00    -0.024 C 
HETATM   20  C2  UNL     1     -13.569  75.867 115.601  1.00  0.00    -0.091 C 
HETATM   21  C1  UNL     1     -13.944  74.755 116.533  1.00  0.00     0.042 C 
HETATM   22  C3  UNL     1     -13.948  77.259 115.945  1.00  0.00     0.042 C 
ENDBRANCH  18  19
ENDBRANCH  17  18
ENDBRANCH  15  17
ENDBRANCH  13  14
ENDBRANCH  12  13
ENDBRANCH   1  12
BRANCH   2  23
HETATM   23  O2  UNL     1     -12.153  76.515 118.871  1.00  0.00    -0.392 OA
ATOM     24  H2  UNL     1     -12.536  77.299 119.246  1.00  0.00     0.210 HD
ENDBRANCH   2  23
BRANCH   3  25
HETATM   25  C14 UNL     1     -11.027  76.473 121.150  1.00  0.00     0.181 C 
BRANCH  25  26
HETATM   26  O3  UNL     1     -11.581  77.634 121.653  1.00  0.00    -0.400 OA
ATOM     27  H3  UNL     1     -11.780  77.572 122.580  1.00  0.00     0.209 HD
ENDBRANCH  25  26
ENDBRANCH   3  25
BRANCH   3  28
HETATM   28  C15 UNL     1      -9.581  78.177 120.232  1.00  0.00     0.181 C 
BRANCH  28  29
HETATM   29  O4  UNL     1      -8.918  78.277 121.429  1.00  0.00    -0.400 OA
ATOM     30  H4  UNL     1      -9.141  79.075 121.893  1.00  0.00     0.209 HD
ENDBRANCH  28  29
ENDBRANCH   3  28
BRANCH  10  31
HETATM   31  C23 UNL     1      -8.618  72.806 117.139  1.00  0.00     0.205 C 
BRANCH  31  32
HETATM   32  O6  UNL     1      -8.635  71.426 116.814  1.00  0.00    -0.398 OA
ATOM     33  H6  UNL     1      -7.746  71.165 116.604  1.00  0.00     0.209 HD
ENDBRANCH  31  32
ENDBRANCH  10  31
BRANCH  10  34
HETATM   34  O7  UNL     1     -10.923  73.140 116.702  1.00  0.00    -0.273 OA
BRANCH  34  35
HETATM   35  N1  UNL     1     -10.483  73.040 115.454  1.00  0.00    -0.310 N 
ATOM     36  H12 UNL     1      -9.872  72.275 115.169  1.00  0.00     0.184 HD
ATOM     37  H11 UNL     1     -10.794  73.771 114.814  1.00  0.00     0.184 HD
ENDBRANCH  34  35
ENDBRANCH  10  34
BRANCH   4  38
HETATM   38  O5  UNL     1      -7.767  76.651 119.610  1.00  0.00    -0.394 OA
ATOM     39  H5  UNL     1      -7.699  76.555 118.668  1.00  0.00     0.210 HD
ENDBRANCH   4  38
TORSDOF 16
ENDMDL
