MODEL 1
REMARK VINA RESULT: -7.608138099      0.000      0.000
REMARK  14 active torsions:
REMARK  status: ('A' for Active; 'I' for Inactive)
REMARK    1  A    between atoms: C1_2  and  C2_4 
REMARK    2  A    between atoms: C3_6  and  O4_7 
REMARK    3  A    between atoms: O4_7  and  C4_8 
REMARK    4  A    between atoms: C6_10  and  O5_11 
REMARK    5  A    between atoms: C7_13  and  O6_14 
REMARK    6  A    between atoms: C8_16  and  C9_17 
REMARK    7  A    between atoms: C9_17  and  O7_18 
REMARK    8  A    between atoms: C10_21  and  C11_22 
REMARK    9  A    between atoms: C11_22  and  C12_23 
REMARK   10  A    between atoms: C12_23  and  C13_24 
REMARK   11  A    between atoms: C13_24  and  C14_25 
REMARK   12  A    between atoms: C14_25  and  C15_26 
REMARK   13  A    between atoms: C21_32  and  O9_33 
REMARK   14  A    between atoms: C22_35  and  O10_36 
ROOT
HETATM    1  C2  UNL     1      -9.865  77.304 117.323  1.00  0.00     0.256 C 
HETATM    2  O3  UNL     1     -10.774  76.343 117.518  1.00  0.00    -0.342 OA
HETATM    3  C3  UNL     1     -10.910  75.805 118.779  1.00  0.00     0.270 C 
HETATM    4  C10 UNL     1     -11.270  76.939 119.684  1.00  0.00     0.072 C 
HETATM    5  C21 UNL     1     -10.182  77.994 119.705  1.00  0.00     0.158 C 
HETATM    6  C22 UNL     1      -9.262  77.895 118.546  1.00  0.00     0.187 C 
ENDROOT
BRANCH   3   7
HETATM    7  O4  UNL     1      -9.780  75.167 119.204  1.00  0.00    -0.331 OA
BRANCH   7   8
HETATM    8  C4  UNL     1      -9.754  73.813 119.181  1.00  0.00     0.266 C 
HETATM    9  C5  UNL     1      -8.938  73.098 120.194  1.00  0.00     0.095 C 
HETATM   10  C6  UNL     1      -9.443  71.642 120.179  1.00  0.00     0.154 C 
HETATM   11  C7  UNL     1      -9.384  71.094 118.797  1.00  0.00     0.178 C 
HETATM   12  C8  UNL     1      -9.598  72.052 117.691  1.00  0.00     0.179 C 
HETATM   13  O8  UNL     1      -9.310  73.357 117.929  1.00  0.00    -0.351 OA
BRANCH  10  14
HETATM   14  O5  UNL     1     -10.772  71.605 120.615  1.00  0.00    -0.393 OA
ATOM     15  H5  UNL     1     -11.219  70.875 120.204  1.00  0.00     0.210 HD
ENDBRANCH  10  14
BRANCH  11  16
HETATM   16  O6  UNL     1      -8.096  70.532 118.630  1.00  0.00    -0.390 OA
ATOM     17  H6  UNL     1      -7.495  71.054 119.149  1.00  0.00     0.210 HD
ENDBRANCH  11  16
BRANCH  12  18
HETATM   18  C9  UNL     1      -8.849  71.610 116.431  1.00  0.00     0.198 C 
BRANCH  18  19
HETATM   19  O7  UNL     1      -7.862  72.501 116.070  1.00  0.00    -0.398 OA
ATOM     20  H7  UNL     1      -7.175  72.563 116.723  1.00  0.00     0.209 HD
ENDBRANCH  18  19
ENDBRANCH  12  18
ENDBRANCH   7   8
ENDBRANCH   3   7
BRANCH   4  21
HETATM   21  C11 UNL     1     -11.586  76.484 121.071  1.00  0.00     0.012 C 
BRANCH  21  22
HETATM   22  C12 UNL     1     -12.978  76.871 121.499  1.00  0.00     0.001 C 
BRANCH  22  23
HETATM   23  C13 UNL     1     -12.838  78.197 122.252  1.00  0.00     0.000 C 
BRANCH  23  24
HETATM   24  C14 UNL     1     -14.233  78.558 122.739  1.00  0.00     0.004 C 
BRANCH  24  25
HETATM   25  C15 UNL     1     -14.508  80.026 122.489  1.00  0.00    -0.014 C 
HETATM   26  C16 UNL     1     -15.292  80.243 121.235  1.00  0.00     0.004 C 
HETATM   27  C17 UNL     1     -16.074  81.536 121.247  1.00  0.00     0.000 C 
HETATM   28  C18 UNL     1     -15.376  82.503 122.168  1.00  0.00     0.000 C 
HETATM   29  C19 UNL     1     -15.568  82.007 123.591  1.00  0.00     0.000 C 
HETATM   30  C20 UNL     1     -15.223  80.556 123.715  1.00  0.00     0.004 C 
ENDBRANCH  24  25
ENDBRANCH  23  24
ENDBRANCH  22  23
ENDBRANCH  21  22
ENDBRANCH   4  21
BRANCH   1  31
HETATM   31  C1  UNL     1      -8.698  76.780 116.493  1.00  0.00     0.206 C 
HETATM   32  O1  UNL     1      -8.720  75.598 116.094  1.00  0.00    -0.646 OA
HETATM   33  O2  UNL     1      -7.630  77.586 116.180  1.00  0.00    -0.646 OA
ENDBRANCH   1  31
BRANCH   5  34
HETATM   34  O9  UNL     1      -9.423  77.734 120.867  1.00  0.00    -0.392 OA
ATOM     35  H9  UNL     1      -8.668  77.238 120.574  1.00  0.00     0.210 HD
ENDBRANCH   5  34
BRANCH   6  36
HETATM   36  O10 UNL     1      -8.022  77.300 118.837  1.00  0.00    -0.390 OA
ATOM     37  H10 UNL     1      -7.664  77.636 119.650  1.00  0.00     0.210 HD
ENDBRANCH   6  36
TORSDOF 14
ENDMDL
MODEL 2
REMARK VINA RESULT: -7.462026256      1.228      1.991
REMARK  14 active torsions:
REMARK  status: ('A' for Active; 'I' for Inactive)
REMARK    1  A    between atoms: C1_2  and  C2_4 
REMARK    2  A    between atoms: C3_6  and  O4_7 
REMARK    3  A    between atoms: O4_7  and  C4_8 
REMARK    4  A    between atoms: C6_10  and  O5_11 
REMARK    5  A    between atoms: C7_13  and  O6_14 
REMARK    6  A    between atoms: C8_16  and  C9_17 
REMARK    7  A    between atoms: C9_17  and  O7_18 
REMARK    8  A    between atoms: C10_21  and  C11_22 
REMARK    9  A    between atoms: C11_22  and  C12_23 
REMARK   10  A    between atoms: C12_23  and  C13_24 
REMARK   11  A    between atoms: C13_24  and  C14_25 
REMARK   12  A    between atoms: C14_25  and  C15_26 
REMARK   13  A    between atoms: C21_32  and  O9_33 
REMARK   14  A    between atoms: C22_35  and  O10_36 
ROOT
HETATM    1  C2  UNL     1      -9.804  77.457 117.570  1.00  0.00     0.256 C 
HETATM    2  O3  UNL     1     -10.685  76.460 117.438  1.00  0.00    -0.342 OA
HETATM    3  C3  UNL     1     -10.895  75.615 118.506  1.00  0.00     0.270 C 
HETATM    4  C10 UNL     1     -11.370  76.472 119.634  1.00  0.00     0.072 C 
HETATM    5  C21 UNL     1     -10.332  77.508 120.014  1.00  0.00     0.158 C 
HETATM    6  C22 UNL     1      -9.321  77.729 118.949  1.00  0.00     0.187 C 
ENDROOT
BRANCH   3   7
HETATM    7  O4  UNL     1      -9.775  74.912 118.849  1.00  0.00    -0.331 OA
BRANCH   7   8
HETATM    8  C4  UNL     1      -9.796  73.564 118.729  1.00  0.00     0.266 C 
HETATM    9  C5  UNL     1      -9.139  72.745 119.779  1.00  0.00     0.095 C 
HETATM   10  C6  UNL     1      -9.689  71.317 119.595  1.00  0.00     0.154 C 
HETATM   11  C7  UNL     1      -9.478  70.864 118.194  1.00  0.00     0.178 C 
HETATM   12  C8  UNL     1      -9.517  71.904 117.144  1.00  0.00     0.179 C 
HETATM   13  O8  UNL     1      -9.215  73.176 117.511  1.00  0.00    -0.351 OA
BRANCH  10  14
HETATM   14  O5  UNL     1     -11.063  71.311 119.861  1.00  0.00    -0.393 OA
ATOM     15  H5  UNL     1     -11.249  71.907 120.577  1.00  0.00     0.210 HD
ENDBRANCH  10  14
BRANCH  11  16
HETATM   16  O6  UNL     1      -8.201  70.257 118.144  1.00  0.00    -0.390 OA
ATOM     17  H6  UNL     1      -7.737  70.645 117.411  1.00  0.00     0.210 HD
ENDBRANCH  11  16
BRANCH  12  18
HETATM   18  C9  UNL     1      -8.633  71.516 115.956  1.00  0.00     0.198 C 
BRANCH  18  19
HETATM   19  O7  UNL     1      -7.479  72.267 115.896  1.00  0.00    -0.398 OA
ATOM     20  H7  UNL     1      -7.461  72.953 116.553  1.00  0.00     0.209 HD
ENDBRANCH  18  19
ENDBRANCH  12  18
ENDBRANCH   7   8
ENDBRANCH   3   7
BRANCH   4  21
HETATM   21  C11 UNL     1     -11.772  75.671 120.829  1.00  0.00     0.012 C 
BRANCH  21  22
HETATM   22  C12 UNL     1     -12.873  74.691 120.518  1.00  0.00     0.001 C 
BRANCH  22  23
HETATM   23  C13 UNL     1     -14.142  75.258 121.159  1.00  0.00     0.000 C 
BRANCH  23  24
HETATM   24  C14 UNL     1     -14.934  75.906 120.034  1.00  0.00     0.004 C 
BRANCH  24  25
HETATM   25  C15 UNL     1     -15.169  77.370 120.338  1.00  0.00    -0.014 C 
HETATM   26  C16 UNL     1     -14.549  77.780 121.634  1.00  0.00     0.004 C 
HETATM   27  C17 UNL     1     -14.238  79.257 121.697  1.00  0.00     0.000 C 
HETATM   28  C18 UNL     1     -15.180  79.979 120.768  1.00  0.00     0.000 C 
HETATM   29  C19 UNL     1     -14.781  79.635 119.345  1.00  0.00     0.000 C 
HETATM   30  C20 UNL     1     -14.622  78.157 119.163  1.00  0.00     0.004 C 
ENDBRANCH  24  25
ENDBRANCH  23  24
ENDBRANCH  22  23
ENDBRANCH  21  22
ENDBRANCH   4  21
BRANCH   1  31
HETATM   31  C1  UNL     1      -8.557  77.187 116.736  1.00  0.00     0.206 C 
HETATM   32  O1  UNL     1      -8.492  76.139 116.063  1.00  0.00    -0.646 OA
HETATM   33  O2  UNL     1      -7.510  78.076 116.715  1.00  0.00    -0.646 OA
ENDBRANCH   1  31
BRANCH   5  34
HETATM   34  O9  UNL     1      -9.653  76.976 121.132  1.00  0.00    -0.392 OA
ATOM     35  H9  UNL     1      -9.110  77.682 121.461  1.00  0.00     0.210 HD
ENDBRANCH   5  34
BRANCH   6  36
HETATM   36  O10 UNL     1      -8.085  77.105 119.184  1.00  0.00    -0.390 OA
ATOM     37  H10 UNL     1      -7.387  77.535 118.703  1.00  0.00     0.210 HD
ENDBRANCH   6  36
TORSDOF 14
ENDMDL
MODEL 3
REMARK VINA RESULT: -7.409133786      2.487      3.450
REMARK  14 active torsions:
REMARK  status: ('A' for Active; 'I' for Inactive)
REMARK    1  A    between atoms: C1_2  and  C2_4 
REMARK    2  A    between atoms: C3_6  and  O4_7 
REMARK    3  A    between atoms: O4_7  and  C4_8 
REMARK    4  A    between atoms: C6_10  and  O5_11 
REMARK    5  A    between atoms: C7_13  and  O6_14 
REMARK    6  A    between atoms: C8_16  and  C9_17 
REMARK    7  A    between atoms: C9_17  and  O7_18 
REMARK    8  A    between atoms: C10_21  and  C11_22 
REMARK    9  A    between atoms: C11_22  and  C12_23 
REMARK   10  A    between atoms: C12_23  and  C13_24 
REMARK   11  A    between atoms: C13_24  and  C14_25 
REMARK   12  A    between atoms: C14_25  and  C15_26 
REMARK   13  A    between atoms: C21_32  and  O9_33 
REMARK   14  A    between atoms: C22_35  and  O10_36 
ROOT
HETATM    1  C2  UNL     1      -9.805  77.468 117.593  1.00  0.00     0.256 C 
HETATM    2  O3  UNL     1     -10.690  76.473 117.478  1.00  0.00    -0.342 OA
HETATM    3  C3  UNL     1     -10.891  75.635 118.553  1.00  0.00     0.270 C 
HETATM    4  C10 UNL     1     -11.350  76.502 119.681  1.00  0.00     0.072 C 
HETATM    5  C21 UNL     1     -10.304  77.537 120.042  1.00  0.00     0.158 C 
HETATM    6  C22 UNL     1      -9.305  77.747 118.964  1.00  0.00     0.187 C 
ENDROOT
BRANCH   3   7
HETATM    7  O4  UNL     1      -9.769  74.932 118.888  1.00  0.00    -0.331 OA
BRANCH   7   8
HETATM    8  C4  UNL     1      -9.787  73.584 118.753  1.00  0.00     0.266 C 
HETATM    9  C5  UNL     1      -9.111  72.755 119.783  1.00  0.00     0.095 C 
HETATM   10  C6  UNL     1      -9.659  71.328 119.591  1.00  0.00     0.154 C 
HETATM   11  C7  UNL     1      -9.468  70.892 118.182  1.00  0.00     0.178 C 
HETATM   12  C8  UNL     1      -9.526  71.944 117.144  1.00  0.00     0.179 C 
HETATM   13  O8  UNL     1      -9.223  73.213 117.522  1.00  0.00    -0.351 OA
BRANCH  10  14
HETATM   14  O5  UNL     1     -11.029  71.314 119.878  1.00  0.00    -0.393 OA
ATOM     15  H5  UNL     1     -11.512  71.059 119.100  1.00  0.00     0.210 HD
ENDBRANCH  10  14
BRANCH  11  16
HETATM   16  O6  UNL     1      -8.189  70.290 118.106  1.00  0.00    -0.390 OA
ATOM     17  H6  UNL     1      -7.713  70.737 117.415  1.00  0.00     0.210 HD
ENDBRANCH  11  16
BRANCH  12  18
HETATM   18  C9  UNL     1      -8.659  71.573 115.939  1.00  0.00     0.198 C 
BRANCH  18  19
HETATM   19  O7  UNL     1      -7.452  72.239 115.938  1.00  0.00    -0.398 OA
ATOM     20  H7  UNL     1      -6.972  72.115 115.128  1.00  0.00     0.209 HD
ENDBRANCH  18  19
ENDBRANCH  12  18
ENDBRANCH   7   8
ENDBRANCH   3   7
BRANCH   4  21
HETATM   21  C11 UNL     1     -11.740  75.709 120.886  1.00  0.00     0.012 C 
BRANCH  21  22
HETATM   22  C12 UNL     1     -13.019  74.940 120.677  1.00  0.00     0.001 C 
BRANCH  22  23
HETATM   23  C13 UNL     1     -14.089  75.980 120.336  1.00  0.00     0.000 C 
BRANCH  23  24
HETATM   24  C14 UNL     1     -14.975  76.097 121.568  1.00  0.00     0.004 C 
BRANCH  24  25
HETATM   25  C15 UNL     1     -15.813  74.846 121.726  1.00  0.00    -0.014 C 
HETATM   26  C16 UNL     1     -16.301  74.673 123.128  1.00  0.00     0.004 C 
HETATM   27  C17 UNL     1     -17.559  73.841 123.215  1.00  0.00     0.000 C 
HETATM   28  C18 UNL     1     -17.601  72.920 122.022  1.00  0.00     0.000 C 
HETATM   29  C19 UNL     1     -17.870  73.769 120.792  1.00  0.00     0.000 C 
HETATM   30  C20 UNL     1     -16.950  74.948 120.729  1.00  0.00     0.004 C 
ENDBRANCH  24  25
ENDBRANCH  23  24
ENDBRANCH  22  23
ENDBRANCH  21  22
ENDBRANCH   4  21
BRANCH   1  31
HETATM   31  C1  UNL     1      -8.568  77.188 116.746  1.00  0.00     0.206 C 
HETATM   32  O1  UNL     1      -8.509  76.129 116.090  1.00  0.00    -0.646 OA
HETATM   33  O2  UNL     1      -7.526  78.081 116.695  1.00  0.00    -0.646 OA
ENDBRANCH   1  31
BRANCH   5  34
HETATM   34  O9  UNL     1      -9.614  77.010 121.155  1.00  0.00    -0.392 OA
ATOM     35  H9  UNL     1      -9.823  77.585 121.882  1.00  0.00     0.210 HD
ENDBRANCH   5  34
BRANCH   6  36
HETATM   36  O10 UNL     1      -8.068  77.120 119.189  1.00  0.00    -0.390 OA
ATOM     37  H10 UNL     1      -7.377  77.761 119.312  1.00  0.00     0.210 HD
ENDBRANCH   6  36
TORSDOF 14
ENDMDL
MODEL 4
REMARK VINA RESULT: -7.335774997      2.042      5.277
REMARK  14 active torsions:
REMARK  status: ('A' for Active; 'I' for Inactive)
REMARK    1  A    between atoms: C1_2  and  C2_4 
REMARK    2  A    between atoms: C3_6  and  O4_7 
REMARK    3  A    between atoms: O4_7  and  C4_8 
REMARK    4  A    between atoms: C6_10  and  O5_11 
REMARK    5  A    between atoms: C7_13  and  O6_14 
REMARK    6  A    between atoms: C8_16  and  C9_17 
REMARK    7  A    between atoms: C9_17  and  O7_18 
REMARK    8  A    between atoms: C10_21  and  C11_22 
REMARK    9  A    between atoms: C11_22  and  C12_23 
REMARK   10  A    between atoms: C12_23  and  C13_24 
REMARK   11  A    between atoms: C13_24  and  C14_25 
REMARK   12  A    between atoms: C14_25  and  C15_26 
REMARK   13  A    between atoms: C21_32  and  O9_33 
REMARK   14  A    between atoms: C22_35  and  O10_36 
ROOT
HETATM    1  C2  UNL     1      -8.365  71.272 118.475  1.00  0.00     0.256 C 
HETATM    2  O3  UNL     1      -7.884  72.455 118.081  1.00  0.00    -0.342 OA
HETATM    3  C3  UNL     1      -8.608  73.593 118.361  1.00  0.00     0.270 C 
HETATM    4  C10 UNL     1      -8.744  73.648 119.849  1.00  0.00     0.072 C 
HETATM    5  C21 UNL     1      -9.486  72.439 120.380  1.00  0.00     0.158 C 
HETATM    6  C22 UNL     1      -9.513  71.311 119.417  1.00  0.00     0.187 C 
ENDROOT
BRANCH   3   7
HETATM    7  O4  UNL     1      -9.828  73.604 117.748  1.00  0.00    -0.331 OA
BRANCH   7   8
HETATM    8  C4  UNL     1     -10.172  74.689 117.013  1.00  0.00     0.266 C 
HETATM    9  C5  UNL     1     -10.791  74.479 115.680  1.00  0.00     0.095 C 
HETATM   10  C6  UNL     1     -11.435  75.828 115.306  1.00  0.00     0.154 C 
HETATM   11  C7  UNL     1     -10.426  76.918 115.387  1.00  0.00     0.178 C 
HETATM   12  C8  UNL     1      -9.361  76.766 116.401  1.00  0.00     0.179 C 
HETATM   13  O8  UNL     1      -9.050  75.505 116.798  1.00  0.00    -0.351 OA
BRANCH  10  14
HETATM   14  O5  UNL     1     -12.470  76.114 116.205  1.00  0.00    -0.393 OA
ATOM     15  H5  UNL     1     -12.908  76.914 115.938  1.00  0.00     0.210 HD
ENDBRANCH  10  14
BRANCH  11  16
HETATM   16  O6  UNL     1      -9.799  76.994 114.120  1.00  0.00    -0.390 OA
ATOM     17  H6  UNL     1      -9.673  76.102 113.818  1.00  0.00     0.210 HD
ENDBRANCH  11  16
BRANCH  12  18
HETATM   18  C9  UNL     1      -8.076  77.468 115.956  1.00  0.00     0.198 C 
BRANCH  18  19
HETATM   19  O7  UNL     1      -7.447  78.117 116.996  1.00  0.00    -0.398 OA
ATOM     20  H7  UNL     1      -7.292  77.543 117.737  1.00  0.00     0.209 HD
ENDBRANCH  18  19
ENDBRANCH  12  18
ENDBRANCH   7   8
ENDBRANCH   3   7
BRANCH   4  21
HETATM   21  C11 UNL     1      -9.395  74.910 120.315  1.00  0.00     0.012 C 
BRANCH  21  22
HETATM   22  C12 UNL     1      -8.543  76.125 120.055  1.00  0.00     0.001 C 
BRANCH  22  23
HETATM   23  C13 UNL     1      -9.240  77.292 120.758  1.00  0.00     0.000 C 
BRANCH  23  24
HETATM   24  C14 UNL     1     -10.047  78.012 119.688  1.00  0.00     0.004 C 
BRANCH  24  25
HETATM   25  C15 UNL     1     -11.372  78.473 120.257  1.00  0.00    -0.014 C 
HETATM   26  C16 UNL     1     -12.443  78.520 119.216  1.00  0.00     0.004 C 
HETATM   27  C17 UNL     1     -13.832  78.386 119.795  1.00  0.00     0.000 C 
HETATM   28  C18 UNL     1     -13.802  78.880 121.218  1.00  0.00     0.000 C 
HETATM   29  C19 UNL     1     -13.022  77.870 122.041  1.00  0.00     0.000 C 
HETATM   30  C20 UNL     1     -11.715  77.531 121.395  1.00  0.00     0.004 C 
ENDBRANCH  24  25
ENDBRANCH  23  24
ENDBRANCH  22  23
ENDBRANCH  21  22
ENDBRANCH   4  21
BRANCH   1  31
HETATM   31  C1  UNL     1      -8.835  70.456 117.275  1.00  0.00     0.206 C 
HETATM   32  O1  UNL     1      -9.021  69.230 117.412  1.00  0.00    -0.646 OA
HETATM   33  O2  UNL     1      -9.055  71.048 116.055  1.00  0.00    -0.646 OA
ENDBRANCH   1  31
BRANCH   5  34
HETATM   34  O9  UNL     1     -10.820  72.863 120.568  1.00  0.00    -0.392 OA
ATOM     35  H9  UNL     1     -11.193  72.263 121.202  1.00  0.00     0.210 HD
ENDBRANCH   5  34
BRANCH   6  36
HETATM   36  O10 UNL     1     -10.732  71.158 118.735  1.00  0.00    -0.390 OA
ATOM     37  H10 UNL     1     -11.230  71.967 118.739  1.00  0.00     0.210 HD
ENDBRANCH   6  36
TORSDOF 14
ENDMDL
MODEL 5
REMARK VINA RESULT: -7.313031084      2.061      3.417
REMARK  14 active torsions:
REMARK  status: ('A' for Active; 'I' for Inactive)
REMARK    1  A    between atoms: C1_2  and  C2_4 
REMARK    2  A    between atoms: C3_6  and  O4_7 
REMARK    3  A    between atoms: O4_7  and  C4_8 
REMARK    4  A    between atoms: C6_10  and  O5_11 
REMARK    5  A    between atoms: C7_13  and  O6_14 
REMARK    6  A    between atoms: C8_16  and  C9_17 
REMARK    7  A    between atoms: C9_17  and  O7_18 
REMARK    8  A    between atoms: C10_21  and  C11_22 
REMARK    9  A    between atoms: C11_22  and  C12_23 
REMARK   10  A    between atoms: C12_23  and  C13_24 
REMARK   11  A    between atoms: C13_24  and  C14_25 
REMARK   12  A    between atoms: C14_25  and  C15_26 
REMARK   13  A    between atoms: C21_32  and  O9_33 
REMARK   14  A    between atoms: C22_35  and  O10_36 
ROOT
HETATM    1  C2  UNL     1      -9.822  77.317 117.343  1.00  0.00     0.256 C 
HETATM    2  O3  UNL     1     -10.750  76.397 117.624  1.00  0.00    -0.342 OA
HETATM    3  C3  UNL     1     -10.822  75.897 118.906  1.00  0.00     0.270 C 
HETATM    4  C10 UNL     1     -11.081  77.066 119.800  1.00  0.00     0.072 C 
HETATM    5  C21 UNL     1      -9.956  78.079 119.721  1.00  0.00     0.158 C 
HETATM    6  C22 UNL     1      -9.118  77.917 118.507  1.00  0.00     0.187 C 
ENDROOT
BRANCH   3   7
HETATM    7  O4  UNL     1      -9.690  75.227 119.274  1.00  0.00    -0.331 OA
BRANCH   7   8
HETATM    8  C4  UNL     1      -9.702  73.873 119.246  1.00  0.00     0.266 C 
HETATM    9  C5  UNL     1      -8.905  73.133 120.256  1.00  0.00     0.095 C 
HETATM   10  C6  UNL     1      -9.449  71.691 120.237  1.00  0.00     0.154 C 
HETATM   11  C7  UNL     1      -9.406  71.146 118.853  1.00  0.00     0.178 C 
HETATM   12  C8  UNL     1      -9.593  72.114 117.750  1.00  0.00     0.179 C 
HETATM   13  O8  UNL     1      -9.270  73.410 117.992  1.00  0.00    -0.351 OA
BRANCH  10  14
HETATM   14  O5  UNL     1     -10.779  71.690 120.673  1.00  0.00    -0.393 OA
ATOM     15  H5  UNL     1     -11.016  70.816 120.960  1.00  0.00     0.210 HD
ENDBRANCH  10  14
BRANCH  11  16
HETATM   16  O6  UNL     1      -8.134  70.549 118.683  1.00  0.00    -0.390 OA
ATOM     17  H6  UNL     1      -7.626  71.131 118.130  1.00  0.00     0.210 HD
ENDBRANCH  11  16
BRANCH  12  18
HETATM   18  C9  UNL     1      -8.857  71.655 116.489  1.00  0.00     0.198 C 
BRANCH  18  19
HETATM   19  O7  UNL     1      -7.868  72.537 116.111  1.00  0.00    -0.398 OA
ATOM     20  H7  UNL     1      -7.680  72.491 115.181  1.00  0.00     0.209 HD
ENDBRANCH  18  19
ENDBRANCH  12  18
ENDBRANCH   7   8
ENDBRANCH   3   7
BRANCH   4  21
HETATM   21  C11 UNL     1     -11.320  76.658 121.217  1.00  0.00     0.012 C 
BRANCH  21  22
HETATM   22  C12 UNL     1     -12.434  77.444 121.859  1.00  0.00     0.001 C 
BRANCH  22  23
HETATM   23  C13 UNL     1     -13.605  77.404 120.874  1.00  0.00     0.000 C 
BRANCH  23  24
HETATM   24  C14 UNL     1     -14.502  76.262 121.327  1.00  0.00     0.004 C 
BRANCH  24  25
HETATM   25  C15 UNL     1     -14.706  75.279 120.193  1.00  0.00    -0.014 C 
HETATM   26  C16 UNL     1     -14.591  75.935 118.855  1.00  0.00     0.004 C 
HETATM   27  C17 UNL     1     -14.199  74.972 117.760  1.00  0.00     0.000 C 
HETATM   28  C18 UNL     1     -14.651  73.591 118.159  1.00  0.00     0.000 C 
HETATM   29  C19 UNL     1     -13.773  73.131 119.309  1.00  0.00     0.000 C 
HETATM   30  C20 UNL     1     -13.688  74.172 120.381  1.00  0.00     0.004 C 
ENDBRANCH  24  25
ENDBRANCH  23  24
ENDBRANCH  22  23
ENDBRANCH  21  22
ENDBRANCH   4  21
BRANCH   1  31
HETATM   31  C1  UNL     1      -8.732  76.729 116.454  1.00  0.00     0.206 C 
HETATM   32  O1  UNL     1      -8.822  75.540 116.091  1.00  0.00    -0.646 OA
HETATM   33  O2  UNL     1      -7.659  77.486 116.049  1.00  0.00    -0.646 OA
ENDBRANCH   1  31
BRANCH   5  34
HETATM   34  O9  UNL     1      -9.132  77.821 120.838  1.00  0.00    -0.392 OA
ATOM     35  H9  UNL     1      -8.850  78.672 121.150  1.00  0.00     0.210 HD
ENDBRANCH   5  34
BRANCH   6  36
HETATM   36  O10 UNL     1      -7.885  77.283 118.734  1.00  0.00    -0.390 OA
ATOM     37  H10 UNL     1      -7.945  76.663 119.452  1.00  0.00     0.210 HD
ENDBRANCH   6  36
TORSDOF 14
ENDMDL
