MODEL 1
REMARK VINA RESULT: -7.102544583      0.000      0.000
REMARK  16 active torsions:
REMARK  status: ('A' for Active; 'I' for Inactive)
REMARK    1  A    between atoms: C2_2  and  C3_3 
REMARK    2  A    between atoms: C3_3  and  C4_4 
REMARK    3  A    between atoms: C4_4  and  C5_5 
REMARK    4  A    between atoms: C5_5  and  C6_6 
REMARK    5  A    between atoms: C6_6  and  O1_8 
REMARK    6  A    between atoms: C6_6  and  C8_10 
REMARK    7  A    between atoms: C8_10  and  O2_11 
REMARK    8  A    between atoms: C8_10  and  C9_13 
REMARK    9  A    between atoms: C9_13  and  C11_15 
REMARK   10  A    between atoms: C9_13  and  C17_23 
REMARK   11  A    between atoms: C14_18  and  O3_19 
REMARK   12  A    between atoms: C19_26  and  O5_27 
REMARK   13  A    between atoms: C20_29  and  O6_30 
REMARK   14  A    between atoms: C21_32  and  O7_33 
REMARK   15  A    between atoms: C21_32  and  C22_35 
REMARK   16  A    between atoms: C22_35  and  O8_36 
ROOT
HETATM    1  C9  UNL     1      -9.657  76.264 119.359  1.00  0.00     0.042 C 
HETATM    2  C10 UNL     1      -8.258  76.687 119.739  1.00  0.00     0.024 C 
ENDROOT
BRANCH   1   3
HETATM    3  C8  UNL     1     -10.737  77.179 119.654  1.00  0.00     0.165 C 
BRANCH   3   4
HETATM    4  C6  UNL     1     -11.850  77.011 120.574  1.00  0.00     0.081 C 
HETATM    5  C7  UNL     1     -13.016  76.179 120.169  1.00  0.00     0.049 C 
BRANCH   4   6
HETATM    6  C5  UNL     1     -12.403  78.409 120.921  1.00  0.00     0.040 C 
BRANCH   6   7
HETATM    7  C4  UNL     1     -13.815  78.609 120.528  1.00  0.00     0.003 C 
BRANCH   7   8
HETATM    8  C3  UNL     1     -14.529  79.427 121.576  1.00  0.00    -0.000 C 
BRANCH   8   9
HETATM    9  C2  UNL     1     -14.195  78.946 122.957  1.00  0.00    -0.005 C 
HETATM   10  C1  UNL     1     -14.924  79.790 124.018  1.00  0.00     0.005 C 
ENDBRANCH   8   9
ENDBRANCH   7   8
ENDBRANCH   6   7
ENDBRANCH   4   6
BRANCH   4  11
HETATM   11  O1  UNL     1     -11.479  76.530 121.852  1.00  0.00    -0.388 OA
ATOM     12  H1  UNL     1     -10.997  75.744 121.625  1.00  0.00     0.210 HD
ENDBRANCH   4  11
ENDBRANCH   3   4
BRANCH   3  13
HETATM   13  O2  UNL     1     -10.476  78.538 119.505  1.00  0.00    -0.392 OA
ATOM     14  H2  UNL     1     -10.142  78.881 120.326  1.00  0.00     0.210 HD
ENDBRANCH   3  13
ENDBRANCH   1   3
BRANCH   1  15
HETATM   15  C11 UNL     1      -9.524  76.394 117.768  1.00  0.00     0.023 C 
HETATM   16  C12 UNL     1     -10.851  76.560 117.193  1.00  0.00    -0.022 C 
HETATM   17  C13 UNL     1     -10.967  77.012 115.935  1.00  0.00     0.001 C 
HETATM   18  C14 UNL     1      -9.805  77.346 115.112  1.00  0.00     0.140 C 
HETATM   19  C15 UNL     1      -8.484  77.210 115.761  1.00  0.00     0.036 C 
HETATM   20  C16 UNL     1      -8.535  77.340 117.308  1.00  0.00     0.012 C 
BRANCH  18  21
HETATM   21  O3  UNL     1     -10.012  78.658 114.624  1.00  0.00    -0.392 OA
ATOM     22  H3  UNL     1     -10.952  78.786 114.574  1.00  0.00     0.210 HD
ENDBRANCH  18  21
ENDBRANCH   1  15
BRANCH   1  23
HETATM   23  C17 UNL     1      -9.817  74.803 119.542  1.00  0.00     0.272 C 
HETATM   24  O4  UNL     1      -9.440  74.376 120.786  1.00  0.00    -0.350 OA
HETATM   25  C18 UNL     1      -9.141  73.022 120.690  1.00  0.00     0.188 C 
HETATM   26  C19 UNL     1     -10.399  72.240 120.456  1.00  0.00     0.181 C 
HETATM   27  C23 UNL     1      -8.437  73.021 119.322  1.00  0.00     0.195 C 
HETATM   28  C20 UNL     1     -10.309  71.655 119.042  1.00  0.00     0.188 C 
HETATM   29  C21 UNL     1      -8.816  71.666 118.827  1.00  0.00     0.136 C 
HETATM   30  O9  UNL     1      -8.963  74.085 118.660  1.00  0.00    -0.349 OA
BRANCH  26  31
HETATM   31  O5  UNL     1     -10.437  71.169 121.348  1.00  0.00    -0.390 OA
ATOM     32  H5  UNL     1     -10.866  71.450 122.147  1.00  0.00     0.210 HD
ENDBRANCH  26  31
BRANCH  28  33
HETATM   33  O6  UNL     1     -10.776  70.336 119.054  1.00  0.00    -0.390 OA
ATOM     34  H6  UNL     1     -11.568  70.279 118.533  1.00  0.00     0.210 HD
ENDBRANCH  28  33
BRANCH  29  35
HETATM   35  O7  UNL     1      -8.238  70.723 119.680  1.00  0.00    -0.382 OA
ATOM     36  H7  UNL     1      -7.347  70.994 119.870  1.00  0.00     0.210 HD
ENDBRANCH  29  35
BRANCH  29  37
HETATM   37  C22 UNL     1      -8.381  71.336 117.443  1.00  0.00     0.207 C 
BRANCH  37  38
HETATM   38  O8  UNL     1      -8.315  70.003 117.133  1.00  0.00    -0.398 OA
ATOM     39  H8  UNL     1      -9.133  69.522 117.172  1.00  0.00     0.209 HD
ENDBRANCH  37  38
ENDBRANCH  29  37
ENDBRANCH   1  23
TORSDOF 16
ENDMDL
MODEL 2
REMARK VINA RESULT: -7.019252932      1.629      2.357
REMARK  16 active torsions:
REMARK  status: ('A' for Active; 'I' for Inactive)
REMARK    1  A    between atoms: C2_2  and  C3_3 
REMARK    2  A    between atoms: C3_3  and  C4_4 
REMARK    3  A    between atoms: C4_4  and  C5_5 
REMARK    4  A    between atoms: C5_5  and  C6_6 
REMARK    5  A    between atoms: C6_6  and  O1_8 
REMARK    6  A    between atoms: C6_6  and  C8_10 
REMARK    7  A    between atoms: C8_10  and  O2_11 
REMARK    8  A    between atoms: C8_10  and  C9_13 
REMARK    9  A    between atoms: C9_13  and  C11_15 
REMARK   10  A    between atoms: C9_13  and  C17_23 
REMARK   11  A    between atoms: C14_18  and  O3_19 
REMARK   12  A    between atoms: C19_26  and  O5_27 
REMARK   13  A    between atoms: C20_29  and  O6_30 
REMARK   14  A    between atoms: C21_32  and  O7_33 
REMARK   15  A    between atoms: C21_32  and  C22_35 
REMARK   16  A    between atoms: C22_35  and  O8_36 
ROOT
HETATM    1  C9  UNL     1     -10.080  75.395 119.738  1.00  0.00     0.042 C 
HETATM    2  C10 UNL     1      -8.749  75.829 120.308  1.00  0.00     0.024 C 
ENDROOT
BRANCH   1   3
HETATM    3  C8  UNL     1     -11.276  75.932 120.346  1.00  0.00     0.165 C 
BRANCH   3   4
HETATM    4  C6  UNL     1     -12.643  75.445 120.257  1.00  0.00     0.081 C 
HETATM    5  C7  UNL     1     -13.182  75.014 118.939  1.00  0.00     0.049 C 
BRANCH   4   6
HETATM    6  C5  UNL     1     -13.583  76.550 120.780  1.00  0.00     0.040 C 
BRANCH   6   7
HETATM    7  C4  UNL     1     -14.176  77.386 119.714  1.00  0.00     0.003 C 
BRANCH   7   8
HETATM    8  C3  UNL     1     -13.570  78.768 119.748  1.00  0.00    -0.000 C 
BRANCH   8   9
HETATM    9  C2  UNL     1     -12.450  78.891 118.758  1.00  0.00    -0.005 C 
HETATM   10  C1  UNL     1     -12.898  78.409 117.367  1.00  0.00     0.005 C 
ENDBRANCH   8   9
ENDBRANCH   7   8
ENDBRANCH   6   7
ENDBRANCH   4   6
BRANCH   4  11
HETATM   11  O1  UNL     1     -12.938  74.382 121.143  1.00  0.00    -0.388 OA
ATOM     12  H1  UNL     1     -13.531  73.857 120.619  1.00  0.00     0.210 HD
ENDBRANCH   4  11
ENDBRANCH   3   4
BRANCH   3  13
HETATM   13  O2  UNL     1     -11.123  76.631 121.541  1.00  0.00    -0.392 OA
ATOM     14  H2  UNL     1     -11.643  77.424 121.504  1.00  0.00     0.210 HD
ENDBRANCH   3  13
ENDBRANCH   1   3
BRANCH   1  15
HETATM   15  C11 UNL     1     -10.016  76.189 118.349  1.00  0.00     0.023 C 
HETATM   16  C12 UNL     1      -8.895  77.116 118.384  1.00  0.00    -0.022 C 
HETATM   17  C13 UNL     1      -8.447  77.646 117.234  1.00  0.00     0.001 C 
HETATM   18  C14 UNL     1      -9.046  77.324 115.939  1.00  0.00     0.140 C 
HETATM   19  C15 UNL     1     -10.146  76.338 115.953  1.00  0.00     0.036 C 
HETATM   20  C16 UNL     1     -10.093  75.367 117.164  1.00  0.00     0.012 C 
BRANCH  18  21
HETATM   21  O3  UNL     1      -7.991  76.915 115.091  1.00  0.00    -0.392 OA
ATOM     22  H3  UNL     1      -8.311  76.170 114.594  1.00  0.00     0.210 HD
ENDBRANCH  18  21
ENDBRANCH   1  15
BRANCH   1  23
HETATM   23  C17 UNL     1     -10.010  73.984 119.296  1.00  0.00     0.272 C 
HETATM   24  O4  UNL     1     -10.147  73.093 120.327  1.00  0.00    -0.350 OA
HETATM   25  C18 UNL     1      -9.573  71.893 119.921  1.00  0.00     0.188 C 
HETATM   26  C19 UNL     1     -10.415  71.266 118.850  1.00  0.00     0.181 C 
HETATM   27  C23 UNL     1      -8.352  72.446 119.166  1.00  0.00     0.195 C 
HETATM   28  C20 UNL     1      -9.594  71.301 117.555  1.00  0.00     0.188 C 
HETATM   29  C21 UNL     1      -8.195  71.403 118.111  1.00  0.00     0.136 C 
HETATM   30  O9  UNL     1      -8.730  73.684 118.753  1.00  0.00    -0.349 OA
BRANCH  26  31
HETATM   31  O5  UNL     1     -10.630  69.927 119.172  1.00  0.00    -0.390 OA
ATOM     32  H5  UNL     1     -11.231  69.552 118.539  1.00  0.00     0.210 HD
ENDBRANCH  26  31
BRANCH  28  33
HETATM   33  O6  UNL     1      -9.746  70.086 116.877  1.00  0.00    -0.390 OA
ATOM     34  H6  UNL     1      -9.015  69.516 117.084  1.00  0.00     0.210 HD
ENDBRANCH  28  33
BRANCH  29  35
HETATM   35  O7  UNL     1      -7.880  70.199 118.745  1.00  0.00    -0.382 OA
ATOM     36  H7  UNL     1      -7.095  70.328 119.265  1.00  0.00     0.210 HD
ENDBRANCH  29  35
BRANCH  29  37
HETATM   37  C22 UNL     1      -7.137  71.660 117.097  1.00  0.00     0.207 C 
BRANCH  37  38
HETATM   38  O8  UNL     1      -7.538  72.307 115.957  1.00  0.00    -0.398 OA
ATOM     39  H8  UNL     1      -6.895  72.365 115.260  1.00  0.00     0.209 HD
ENDBRANCH  37  38
ENDBRANCH  29  37
ENDBRANCH   1  23
TORSDOF 16
ENDMDL
MODEL 3
REMARK VINA RESULT: -7.002259569      1.364      2.342
REMARK  16 active torsions:
REMARK  status: ('A' for Active; 'I' for Inactive)
REMARK    1  A    between atoms: C2_2  and  C3_3 
REMARK    2  A    between atoms: C3_3  and  C4_4 
REMARK    3  A    between atoms: C4_4  and  C5_5 
REMARK    4  A    between atoms: C5_5  and  C6_6 
REMARK    5  A    between atoms: C6_6  and  O1_8 
REMARK    6  A    between atoms: C6_6  and  C8_10 
REMARK    7  A    between atoms: C8_10  and  O2_11 
REMARK    8  A    between atoms: C8_10  and  C9_13 
REMARK    9  A    between atoms: C9_13  and  C11_15 
REMARK   10  A    between atoms: C9_13  and  C17_23 
REMARK   11  A    between atoms: C14_18  and  O3_19 
REMARK   12  A    between atoms: C19_26  and  O5_27 
REMARK   13  A    between atoms: C20_29  and  O6_30 
REMARK   14  A    between atoms: C21_32  and  O7_33 
REMARK   15  A    between atoms: C21_32  and  C22_35 
REMARK   16  A    between atoms: C22_35  and  O8_36 
ROOT
HETATM    1  C9  UNL     1     -10.155  75.549 119.128  1.00  0.00     0.042 C 
HETATM    2  C10 UNL     1      -9.017  76.029 119.999  1.00  0.00     0.024 C 
ENDROOT
BRANCH   1   3
HETATM    3  C8  UNL     1     -11.478  76.056 119.415  1.00  0.00     0.165 C 
BRANCH   3   4
HETATM    4  C6  UNL     1     -12.269  75.907 120.626  1.00  0.00     0.081 C 
HETATM    5  C7  UNL     1     -13.334  74.870 120.682  1.00  0.00     0.049 C 
BRANCH   4   6
HETATM    6  C5  UNL     1     -12.951  77.258 120.925  1.00  0.00     0.040 C 
BRANCH   6   7
HETATM    7  C4  UNL     1     -12.525  77.876 122.199  1.00  0.00     0.003 C 
BRANCH   7   8
HETATM    8  C3  UNL     1     -13.729  78.146 123.067  1.00  0.00    -0.000 C 
BRANCH   8   9
HETATM    9  C2  UNL     1     -14.436  79.396 122.637  1.00  0.00    -0.005 C 
HETATM   10  C1  UNL     1     -15.000  80.149 123.855  1.00  0.00     0.005 C 
ENDBRANCH   8   9
ENDBRANCH   7   8
ENDBRANCH   6   7
ENDBRANCH   4   6
BRANCH   4  11
HETATM   11  O1  UNL     1     -11.502  75.713 121.799  1.00  0.00    -0.388 OA
ATOM     12  H1  UNL     1     -11.374  74.772 121.788  1.00  0.00     0.210 HD
ENDBRANCH   4  11
ENDBRANCH   3   4
BRANCH   3  13
HETATM   13  O2  UNL     1     -11.867  77.222 118.762  1.00  0.00    -0.392 OA
ATOM     14  H2  UNL     1     -12.229  76.994 117.914  1.00  0.00     0.210 HD
ENDBRANCH   3  13
ENDBRANCH   1   3
BRANCH   1  15
HETATM   15  C11 UNL     1      -9.774  76.333 117.783  1.00  0.00     0.023 C 
HETATM   16  C12 UNL     1      -8.884  77.437 118.114  1.00  0.00    -0.022 C 
HETATM   17  C13 UNL     1      -8.180  78.026 117.135  1.00  0.00     0.001 C 
HETATM   18  C14 UNL     1      -8.272  77.598 115.739  1.00  0.00     0.140 C 
HETATM   19  C15 UNL     1      -9.148  76.440 115.465  1.00  0.00     0.036 C 
HETATM   20  C16 UNL     1      -9.335  75.501 116.688  1.00  0.00     0.012 C 
BRANCH  18  21
HETATM   21  O3  UNL     1      -6.949  77.366 115.294  1.00  0.00    -0.392 OA
ATOM     22  H3  UNL     1      -6.583  78.214 115.068  1.00  0.00     0.210 HD
ENDBRANCH  18  21
ENDBRANCH   1  15
BRANCH   1  23
HETATM   23  C17 UNL     1      -9.940  74.137 118.739  1.00  0.00     0.272 C 
HETATM   24  O4  UNL     1     -11.009  73.597 118.078  1.00  0.00    -0.350 OA
HETATM   25  C18 UNL     1     -10.932  72.215 118.218  1.00  0.00     0.188 C 
HETATM   26  C19 UNL     1      -9.773  71.689 117.424  1.00  0.00     0.181 C 
HETATM   27  C23 UNL     1     -10.454  72.141 119.678  1.00  0.00     0.195 C 
HETATM   28  C20 UNL     1      -8.745  71.158 118.430  1.00  0.00     0.188 C 
HETATM   29  C21 UNL     1      -9.626  70.901 119.626  1.00  0.00     0.136 C 
HETATM   30  O9  UNL     1      -9.794  73.311 119.887  1.00  0.00    -0.349 OA
BRANCH  26  31
HETATM   31  O5  UNL     1     -10.205  70.609 116.658  1.00  0.00    -0.390 OA
ATOM     32  H5  UNL     1     -10.564  69.946 117.236  1.00  0.00     0.210 HD
ENDBRANCH  26  31
BRANCH  28  33
HETATM   33  O6  UNL     1      -8.219  69.949 117.960  1.00  0.00    -0.390 OA
ATOM     34  H6  UNL     1      -7.912  69.432 118.696  1.00  0.00     0.210 HD
ENDBRANCH  28  33
BRANCH  29  35
HETATM   35  O7  UNL     1     -10.477  69.834 119.330  1.00  0.00    -0.382 OA
ATOM     36  H7  UNL     1     -10.102  69.039 119.694  1.00  0.00     0.210 HD
ENDBRANCH  29  35
BRANCH  29  37
HETATM   37  C22 UNL     1      -8.898  70.555 120.876  1.00  0.00     0.207 C 
BRANCH  37  38
HETATM   38  O8  UNL     1      -9.583  69.787 121.781  1.00  0.00    -0.398 OA
ATOM     39  H8  UNL     1      -9.899  70.236 122.557  1.00  0.00     0.209 HD
ENDBRANCH  37  38
ENDBRANCH  29  37
ENDBRANCH   1  23
TORSDOF 16
ENDMDL
MODEL 4
REMARK VINA RESULT: -6.830296181      1.699      2.948
REMARK  16 active torsions:
REMARK  status: ('A' for Active; 'I' for Inactive)
REMARK    1  A    between atoms: C2_2  and  C3_3 
REMARK    2  A    between atoms: C3_3  and  C4_4 
REMARK    3  A    between atoms: C4_4  and  C5_5 
REMARK    4  A    between atoms: C5_5  and  C6_6 
REMARK    5  A    between atoms: C6_6  and  O1_8 
REMARK    6  A    between atoms: C6_6  and  C8_10 
REMARK    7  A    between atoms: C8_10  and  O2_11 
REMARK    8  A    between atoms: C8_10  and  C9_13 
REMARK    9  A    between atoms: C9_13  and  C11_15 
REMARK   10  A    between atoms: C9_13  and  C17_23 
REMARK   11  A    between atoms: C14_18  and  O3_19 
REMARK   12  A    between atoms: C19_26  and  O5_27 
REMARK   13  A    between atoms: C20_29  and  O6_30 
REMARK   14  A    between atoms: C21_32  and  O7_33 
REMARK   15  A    between atoms: C21_32  and  C22_35 
REMARK   16  A    between atoms: C22_35  and  O8_36 
ROOT
HETATM    1  C9  UNL     1     -10.410  75.259 119.250  1.00  0.00     0.042 C 
HETATM    2  C10 UNL     1      -9.312  75.765 120.156  1.00  0.00     0.024 C 
ENDROOT
BRANCH   1   3
HETATM    3  C8  UNL     1     -11.764  75.677 119.539  1.00  0.00     0.165 C 
BRANCH   3   4
HETATM    4  C6  UNL     1     -12.256  76.463 120.658  1.00  0.00     0.081 C 
HETATM    5  C7  UNL     1     -13.646  76.251 121.147  1.00  0.00     0.049 C 
BRANCH   4   6
HETATM    6  C5  UNL     1     -12.142  77.956 120.284  1.00  0.00     0.040 C 
BRANCH   6   7
HETATM    7  C4  UNL     1     -13.445  78.650 120.183  1.00  0.00     0.003 C 
BRANCH   7   8
HETATM    8  C3  UNL     1     -13.648  79.158 118.777  1.00  0.00    -0.000 C 
BRANCH   8   9
HETATM    9  C2  UNL     1     -12.355  79.183 118.019  1.00  0.00    -0.005 C 
HETATM   10  C1  UNL     1     -12.574  78.764 116.554  1.00  0.00     0.005 C 
ENDBRANCH   8   9
ENDBRANCH   7   8
ENDBRANCH   6   7
ENDBRANCH   4   6
BRANCH   4  11
HETATM   11  O1  UNL     1     -11.443  76.400 121.814  1.00  0.00    -0.388 OA
ATOM     12  H1  UNL     1     -11.993  76.834 122.455  1.00  0.00     0.210 HD
ENDBRANCH   4  11
ENDBRANCH   3   4
BRANCH   3  13
HETATM   13  O2  UNL     1     -12.621  75.846 118.455  1.00  0.00    -0.392 OA
ATOM     14  H2  UNL     1     -12.972  76.728 118.473  1.00  0.00     0.210 HD
ENDBRANCH   3  13
ENDBRANCH   1   3
BRANCH   1  15
HETATM   15  C11 UNL     1     -10.059  76.118 117.944  1.00  0.00     0.023 C 
HETATM   16  C12 UNL     1      -9.180  77.216 118.322  1.00  0.00    -0.022 C 
HETATM   17  C13 UNL     1      -8.498  77.866 117.367  1.00  0.00     0.001 C 
HETATM   18  C14 UNL     1      -8.603  77.513 115.951  1.00  0.00     0.140 C 
HETATM   19  C15 UNL     1      -9.467  76.359 115.627  1.00  0.00     0.036 C 
HETATM   20  C16 UNL     1      -9.624  75.353 116.800  1.00  0.00     0.012 C 
BRANCH  18  21
HETATM   21  O3  UNL     1      -7.284  77.325 115.477  1.00  0.00    -0.392 OA
ATOM     22  H3  UNL     1      -7.026  76.444 115.726  1.00  0.00     0.210 HD
ENDBRANCH  18  21
ENDBRANCH   1  15
BRANCH   1  23
HETATM   23  C17 UNL     1     -10.110  73.879 118.806  1.00  0.00     0.272 C 
HETATM   24  O4  UNL     1     -11.144  73.302 118.118  1.00  0.00    -0.350 OA
HETATM   25  C18 UNL     1     -10.984  71.923 118.204  1.00  0.00     0.188 C 
HETATM   26  C19 UNL     1      -9.794  71.500 117.395  1.00  0.00     0.181 C 
HETATM   27  C23 UNL     1     -10.506  71.820 119.662  1.00  0.00     0.195 C 
HETATM   28  C20 UNL     1      -8.738  70.991 118.383  1.00  0.00     0.188 C 
HETATM   29  C21 UNL     1      -9.606  70.634 119.564  1.00  0.00     0.136 C 
HETATM   30  O9  UNL     1      -9.918  73.017 119.921  1.00  0.00    -0.349 OA
BRANCH  26  31
HETATM   31  O5  UNL     1     -10.159  70.427 116.584  1.00  0.00    -0.390 OA
ATOM     32  H5  UNL     1      -9.614  69.679 116.800  1.00  0.00     0.210 HD
ENDBRANCH  26  31
BRANCH  28  33
HETATM   33  O6  UNL     1      -8.140  69.835 117.869  1.00  0.00    -0.390 OA
ATOM     34  H6  UNL     1      -7.992  69.216 118.574  1.00  0.00     0.210 HD
ENDBRANCH  28  33
BRANCH  29  35
HETATM   35  O7  UNL     1     -10.390  69.530 119.222  1.00  0.00    -0.382 OA
ATOM     36  H7  UNL     1     -10.885  69.742 118.439  1.00  0.00     0.210 HD
ENDBRANCH  29  35
BRANCH  29  37
HETATM   37  C22 UNL     1      -8.860  70.282 120.803  1.00  0.00     0.207 C 
BRANCH  37  38
HETATM   38  O8  UNL     1      -9.614  69.818 121.850  1.00  0.00    -0.398 OA
ATOM     39  H8  UNL     1     -10.556  69.911 121.760  1.00  0.00     0.209 HD
ENDBRANCH  37  38
ENDBRANCH  29  37
ENDBRANCH   1  23
TORSDOF 16
ENDMDL
MODEL 5
REMARK VINA RESULT: -6.827768309      3.209      6.109
REMARK  16 active torsions:
REMARK  status: ('A' for Active; 'I' for Inactive)
REMARK    1  A    between atoms: C2_2  and  C3_3 
REMARK    2  A    between atoms: C3_3  and  C4_4 
REMARK    3  A    between atoms: C4_4  and  C5_5 
REMARK    4  A    between atoms: C5_5  and  C6_6 
REMARK    5  A    between atoms: C6_6  and  O1_8 
REMARK    6  A    between atoms: C6_6  and  C8_10 
REMARK    7  A    between atoms: C8_10  and  O2_11 
REMARK    8  A    between atoms: C8_10  and  C9_13 
REMARK    9  A    between atoms: C9_13  and  C11_15 
REMARK   10  A    between atoms: C9_13  and  C17_23 
REMARK   11  A    between atoms: C14_18  and  O3_19 
REMARK   12  A    between atoms: C19_26  and  O5_27 
REMARK   13  A    between atoms: C20_29  and  O6_30 
REMARK   14  A    between atoms: C21_32  and  O7_33 
REMARK   15  A    between atoms: C21_32  and  C22_35 
REMARK   16  A    between atoms: C22_35  and  O8_36 
ROOT
HETATM    1  C9  UNL     1     -12.121  73.652 118.792  1.00  0.00     0.042 C 
HETATM    2  C10 UNL     1     -12.306  73.713 117.294  1.00  0.00     0.024 C 
ENDROOT
BRANCH   1   3
HETATM    3  C8  UNL     1     -13.290  73.386 119.601  1.00  0.00     0.165 C 
BRANCH   3   4
HETATM    4  C6  UNL     1     -14.390  72.472 119.343  1.00  0.00     0.081 C 
HETATM    5  C7  UNL     1     -14.717  72.097 117.940  1.00  0.00     0.049 C 
BRANCH   4   6
HETATM    6  C5  UNL     1     -15.672  73.077 119.949  1.00  0.00     0.040 C 
BRANCH   6   7
HETATM    7  C4  UNL     1     -16.874  72.907 119.103  1.00  0.00     0.003 C 
BRANCH   7   8
HETATM    8  C3  UNL     1     -17.913  72.101 119.844  1.00  0.00    -0.000 C 
BRANCH   8   9
HETATM    9  C2  UNL     1     -17.626  72.071 121.315  1.00  0.00    -0.005 C 
HETATM   10  C1  UNL     1     -18.902  72.362 122.125  1.00  0.00     0.005 C 
ENDBRANCH   8   9
ENDBRANCH   7   8
ENDBRANCH   6   7
ENDBRANCH   4   6
BRANCH   4  11
HETATM   11  O1  UNL     1     -14.300  71.245 120.042  1.00  0.00    -0.388 OA
ATOM     12  H1  UNL     1     -13.494  71.365 120.531  1.00  0.00     0.210 HD
ENDBRANCH   4  11
ENDBRANCH   3   4
BRANCH   3  13
HETATM   13  O2  UNL     1     -13.164  73.565 120.976  1.00  0.00    -0.392 OA
ATOM     14  H2  UNL     1     -13.898  73.146 121.410  1.00  0.00     0.210 HD
ENDBRANCH   3  13
ENDBRANCH   1   3
BRANCH   1  15
HETATM   15  C11 UNL     1     -11.324  72.265 118.879  1.00  0.00     0.023 C 
HETATM   16  C12 UNL     1     -10.968  71.838 117.534  1.00  0.00    -0.022 C 
HETATM   17  C13 UNL     1     -10.028  70.893 117.374  1.00  0.00     0.001 C 
HETATM   18  C14 UNL     1      -9.343  70.271 118.508  1.00  0.00     0.140 C 
HETATM   19  C15 UNL     1      -9.703  70.778 119.848  1.00  0.00     0.036 C 
HETATM   20  C16 UNL     1     -10.243  72.234 119.837  1.00  0.00     0.012 C 
BRANCH  18  21
HETATM   21  O3  UNL     1      -7.955  70.391 118.261  1.00  0.00    -0.392 OA
ATOM     22  H3  UNL     1      -7.598  70.928 118.959  1.00  0.00     0.210 HD
ENDBRANCH  18  21
ENDBRANCH   1  15
BRANCH   1  23
HETATM   23  C17 UNL     1     -11.096  74.630 119.220  1.00  0.00     0.272 C 
HETATM   24  O4  UNL     1     -11.575  75.547 120.118  1.00  0.00    -0.350 OA
HETATM   25  C18 UNL     1     -10.748  76.663 120.055  1.00  0.00     0.188 C 
HETATM   26  C19 UNL     1      -9.403  76.331 120.631  1.00  0.00     0.181 C 
HETATM   27  C23 UNL     1     -10.507  76.707 118.536  1.00  0.00     0.195 C 
HETATM   28  C20 UNL     1      -8.396  76.376 119.476  1.00  0.00     0.188 C 
HETATM   29  C21 UNL     1      -9.124  77.266 118.501  1.00  0.00     0.136 C 
HETATM   30  O9  UNL     1     -10.658  75.421 118.123  1.00  0.00    -0.349 OA
BRANCH  26  31
HETATM   31  O5  UNL     1      -9.044  77.327 121.537  1.00  0.00    -0.390 OA
ATOM     32  H5  UNL     1      -8.204  77.104 121.921  1.00  0.00     0.210 HD
ENDBRANCH  26  31
BRANCH  28  33
HETATM   33  O6  UNL     1      -7.223  77.004 119.908  1.00  0.00    -0.390 OA
ATOM     34  H6  UNL     1      -7.404  77.919 120.087  1.00  0.00     0.210 HD
ENDBRANCH  28  33
BRANCH  29  35
HETATM   35  O7  UNL     1      -9.173  78.558 119.030  1.00  0.00    -0.382 OA
ATOM     36  H7  UNL     1      -9.525  79.142 118.369  1.00  0.00     0.210 HD
ENDBRANCH  29  35
BRANCH  29  37
HETATM   37  C22 UNL     1      -8.497  77.363 117.155  1.00  0.00     0.207 C 
BRANCH  37  38
HETATM   38  O8  UNL     1      -7.374  78.143 117.067  1.00  0.00    -0.398 OA
ATOM     39  H8  UNL     1      -7.503  79.028 116.746  1.00  0.00     0.209 HD
ENDBRANCH  37  38
ENDBRANCH  29  37
ENDBRANCH   1  23
TORSDOF 16
ENDMDL
