MODEL 1
REMARK VINA RESULT: -7.315399195      0.000      0.000
REMARK  15 active torsions:
REMARK  status: ('A' for Active; 'I' for Inactive)
REMARK    1  A    between atoms: C3_4  and  O2_5 
REMARK    2  A    between atoms: O2_5  and  C4_6 
REMARK    3  A    between atoms: C5_7  and  O3_8 
REMARK    4  A    between atoms: C6_10  and  O4_11 
REMARK    5  A    between atoms: C7_13  and  O5_14 
REMARK    6  A    between atoms: C8_16  and  C9_17 
REMARK    7  A    between atoms: C9_17  and  C10_18 
REMARK    8  A    between atoms: C11_21  and  O8_22 
REMARK    9  A    between atoms: C12_24  and  O9_25 
REMARK   10  A    between atoms: C13_27  and  N1_29 
REMARK   11  A    between atoms: N1_29  and  C15_31 
REMARK   12  A    between atoms: C15_31  and  C16_32 
REMARK   13  A    between atoms: C16_32  and  C17_33 
REMARK   14  A    between atoms: C17_33  and  C18_34 
REMARK   15  A    between atoms: C18_34  and  C19_35 
ROOT
HETATM    1  C1  UNL     1      -8.541  76.284 119.972  1.00  0.00     0.042 C 
HETATM    2  C2  UNL     1      -9.614  76.679 120.918  1.00  0.00     0.151 C 
HETATM    3  O1  UNL     1     -10.323  75.588 121.455  1.00  0.00    -0.351 OA
HETATM    4  C3  UNL     1     -11.047  75.085 120.339  1.00  0.00     0.292 C 
HETATM    5  C12 UNL     1     -11.464  76.276 119.563  1.00  0.00     0.203 C 
HETATM    6  C13 UNL     1     -10.744  77.474 120.247  1.00  0.00     0.082 C 
HETATM    7  C14 UNL     1     -10.241  78.352 119.174  1.00  0.00     0.044 C 
ENDROOT
BRANCH   4   8
HETATM    8  O2  UNL     1     -10.194  74.192 119.746  1.00  0.00    -0.348 OA
BRANCH   8   9
HETATM    9  C4  UNL     1     -10.745  72.887 119.619  1.00  0.00     0.185 C 
HETATM   10  C5  UNL     1     -10.053  71.975 120.585  1.00  0.00     0.180 C 
HETATM   11  C6  UNL     1      -9.203  70.904 119.968  1.00  0.00     0.178 C 
HETATM   12  C7  UNL     1     -10.072  70.218 118.944  1.00  0.00     0.156 C 
HETATM   13  C8  UNL     1     -10.262  71.197 117.806  1.00  0.00     0.058 C 
HETATM   14  C11 UNL     1     -10.746  72.518 118.197  1.00  0.00     0.157 C 
BRANCH  10  15
HETATM   15  O3  UNL     1      -9.265  72.649 121.514  1.00  0.00    -0.390 OA
ATOM     16  H3  UNL     1      -8.364  72.761 121.235  1.00  0.00     0.210 HD
ENDBRANCH  10  15
BRANCH  11  17
HETATM   17  O4  UNL     1      -8.909  69.991 121.004  1.00  0.00    -0.390 OA
ATOM     18  H4  UNL     1      -9.567  70.132 121.674  1.00  0.00     0.210 HD
ENDBRANCH  11  17
BRANCH  12  19
HETATM   19  O5  UNL     1      -9.369  69.133 118.447  1.00  0.00    -0.392 OA
ATOM     20  H5  UNL     1      -8.775  68.834 119.125  1.00  0.00     0.210 HD
ENDBRANCH  12  19
BRANCH  13  21
HETATM   21  C9  UNL     1      -9.010  71.128 116.983  1.00  0.00     0.123 C 
BRANCH  21  22
HETATM   22  C10 UNL     1      -9.162  70.625 115.610  1.00  0.00     0.173 C 
HETATM   23  O6  UNL     1      -9.291  71.379 114.635  1.00  0.00    -0.648 OA
HETATM   24  O7  UNL     1      -9.164  69.235 115.373  1.00  0.00    -0.648 OA
ENDBRANCH  21  22
ENDBRANCH  13  21
BRANCH  14  25
HETATM   25  O8  UNL     1     -10.150  73.483 117.391  1.00  0.00    -0.392 OA
ATOM     26  H8  UNL     1     -10.705  74.244 117.259  1.00  0.00     0.210 HD
ENDBRANCH  14  25
ENDBRANCH   8   9
ENDBRANCH   4   8
BRANCH   5  27
HETATM   27  O9  UNL     1     -11.292  76.257 118.215  1.00  0.00    -0.388 OA
ATOM     28  H9  UNL     1     -12.062  76.174 117.664  1.00  0.00     0.210 HD
ENDBRANCH   5  27
BRANCH   6  29
HETATM   29  N1  UNL     1     -11.541  77.983 121.266  1.00  0.00    -0.388 N 
ATOM     30  H1  UNL     1     -11.100  78.100 122.178  1.00  0.00     0.159 HD
BRANCH  29  31
HETATM   31  C15 UNL     1     -12.866  78.346 121.168  1.00  0.00     0.056 C 
BRANCH  31  32
HETATM   32  C16 UNL     1     -13.620  78.638 122.444  1.00  0.00     0.044 C 
BRANCH  32  33
HETATM   33  C17 UNL     1     -14.577  79.817 122.238  1.00  0.00     0.006 C 
BRANCH  33  34
HETATM   34  C18 UNL     1     -14.943  80.342 123.603  1.00  0.00     0.008 C 
BRANCH  34  35
HETATM   35  C19 UNL     1     -15.759  81.598 123.431  1.00  0.00    -0.051 C 
HETATM   36  C20 UNL     1     -16.799  81.792 124.510  1.00  0.00     0.014 C 
HETATM   37  C21 UNL     1     -16.500  81.410 122.095  1.00  0.00     0.014 C 
HETATM   38  C22 UNL     1     -14.887  82.800 123.319  1.00  0.00     0.014 C 
ENDBRANCH  34  35
ENDBRANCH  33  34
ENDBRANCH  32  33
ENDBRANCH  31  32
ENDBRANCH  29  31
ENDBRANCH   6  29
TORSDOF 15
ENDMDL
MODEL 2
REMARK VINA RESULT: -6.972982631      1.638      3.272
REMARK  15 active torsions:
REMARK  status: ('A' for Active; 'I' for Inactive)
REMARK    1  A    between atoms: C3_4  and  O2_5 
REMARK    2  A    between atoms: O2_5  and  C4_6 
REMARK    3  A    between atoms: C5_7  and  O3_8 
REMARK    4  A    between atoms: C6_10  and  O4_11 
REMARK    5  A    between atoms: C7_13  and  O5_14 
REMARK    6  A    between atoms: C8_16  and  C9_17 
REMARK    7  A    between atoms: C9_17  and  C10_18 
REMARK    8  A    between atoms: C11_21  and  O8_22 
REMARK    9  A    between atoms: C12_24  and  O9_25 
REMARK   10  A    between atoms: C13_27  and  N1_29 
REMARK   11  A    between atoms: N1_29  and  C15_31 
REMARK   12  A    between atoms: C15_31  and  C16_32 
REMARK   13  A    between atoms: C16_32  and  C17_33 
REMARK   14  A    between atoms: C17_33  and  C18_34 
REMARK   15  A    between atoms: C18_34  and  C19_35 
ROOT
HETATM    1  C1  UNL     1     -13.304  75.360 117.987  1.00  0.00     0.042 C 
HETATM    2  C2  UNL     1     -12.891  76.542 118.785  1.00  0.00     0.151 C 
HETATM    3  O1  UNL     1     -11.506  76.602 119.028  1.00  0.00    -0.351 OA
HETATM    4  C3  UNL     1     -11.281  75.517 119.919  1.00  0.00     0.292 C 
HETATM    5  C12 UNL     1     -12.461  75.482 120.813  1.00  0.00     0.203 C 
HETATM    6  C13 UNL     1     -13.449  76.525 120.215  1.00  0.00     0.082 C 
HETATM    7  C14 UNL     1     -14.799  75.934 120.276  1.00  0.00     0.044 C 
ENDROOT
BRANCH   4   8
HETATM    8  O2  UNL     1     -11.053  74.440 119.104  1.00  0.00    -0.348 OA
BRANCH   8   9
HETATM    9  C4  UNL     1      -9.692  74.030 119.079  1.00  0.00     0.185 C 
HETATM   10  C5  UNL     1      -9.189  74.112 117.670  1.00  0.00     0.180 C 
HETATM   11  C6  UNL     1      -8.856  72.801 117.024  1.00  0.00     0.178 C 
HETATM   12  C7  UNL     1      -7.950  72.077 117.989  1.00  0.00     0.156 C 
HETATM   13  C8  UNL     1      -8.808  71.666 119.167  1.00  0.00     0.058 C 
HETATM   14  C11 UNL     1      -9.578  72.744 119.780  1.00  0.00     0.157 C 
BRANCH  10  15
HETATM   15  O3  UNL     1     -10.052  74.791 116.814  1.00  0.00    -0.390 OA
ATOM     16  H3  UNL     1      -9.710  74.890 115.933  1.00  0.00     0.210 HD
ENDBRANCH  10  15
BRANCH  11  17
HETATM   17  O4  UNL     1      -8.124  73.113 115.857  1.00  0.00    -0.390 OA
ATOM     18  H4  UNL     1      -8.175  72.344 115.301  1.00  0.00     0.210 HD
ENDBRANCH  11  17
BRANCH  12  19
HETATM   19  O5  UNL     1      -7.509  70.919 117.372  1.00  0.00    -0.392 OA
ATOM     20  H5  UNL     1      -6.605  70.778 117.626  1.00  0.00     0.210 HD
ENDBRANCH  12  19
BRANCH  13  21
HETATM   21  C9  UNL     1      -9.549  70.436 118.734  1.00  0.00     0.123 C 
BRANCH  21  22
HETATM   22  C10 UNL     1      -9.479  69.283 119.643  1.00  0.00     0.173 C 
HETATM   23  O6  UNL     1      -9.293  68.127 119.238  1.00  0.00    -0.648 OA
HETATM   24  O7  UNL     1      -9.628  69.480 121.031  1.00  0.00    -0.648 OA
ENDBRANCH  21  22
ENDBRANCH  13  21
BRANCH  14  25
HETATM   25  O8  UNL     1     -10.811  72.249 120.196  1.00  0.00    -0.392 OA
ATOM     26  H8  UNL     1     -11.447  72.212 119.492  1.00  0.00     0.210 HD
ENDBRANCH  14  25
ENDBRANCH   8   9
ENDBRANCH   4   8
BRANCH   5  27
HETATM   27  O9  UNL     1     -13.047  74.280 121.057  1.00  0.00    -0.388 OA
ATOM     28  H9  UNL     1     -12.958  73.595 120.405  1.00  0.00     0.210 HD
ENDBRANCH   5  27
BRANCH   6  29
HETATM   29  N1  UNL     1     -13.198  77.778 120.763  1.00  0.00    -0.388 N 
ATOM     30  H1  UNL     1     -13.309  78.580 120.142  1.00  0.00     0.159 HD
BRANCH  29  31
HETATM   31  C15 UNL     1     -12.815  78.047 122.059  1.00  0.00     0.056 C 
BRANCH  31  32
HETATM   32  C16 UNL     1     -13.886  78.435 123.050  1.00  0.00     0.044 C 
BRANCH  32  33
HETATM   33  C17 UNL     1     -14.617  79.697 122.576  1.00  0.00     0.006 C 
BRANCH  33  34
HETATM   34  C18 UNL     1     -15.087  80.432 123.805  1.00  0.00     0.008 C 
BRANCH  34  35
HETATM   35  C19 UNL     1     -15.869  81.645 123.368  1.00  0.00    -0.051 C 
HETATM   36  C20 UNL     1     -15.066  82.925 123.409  1.00  0.00     0.014 C 
HETATM   37  C21 UNL     1     -17.008  81.774 124.395  1.00  0.00     0.014 C 
HETATM   38  C22 UNL     1     -16.471  81.445 122.020  1.00  0.00     0.014 C 
ENDBRANCH  34  35
ENDBRANCH  33  34
ENDBRANCH  32  33
ENDBRANCH  31  32
ENDBRANCH  29  31
ENDBRANCH   6  29
TORSDOF 15
ENDMDL
MODEL 3
REMARK VINA RESULT: -6.927623452      1.913      2.801
REMARK  15 active torsions:
REMARK  status: ('A' for Active; 'I' for Inactive)
REMARK    1  A    between atoms: C3_4  and  O2_5 
REMARK    2  A    between atoms: O2_5  and  C4_6 
REMARK    3  A    between atoms: C5_7  and  O3_8 
REMARK    4  A    between atoms: C6_10  and  O4_11 
REMARK    5  A    between atoms: C7_13  and  O5_14 
REMARK    6  A    between atoms: C8_16  and  C9_17 
REMARK    7  A    between atoms: C9_17  and  C10_18 
REMARK    8  A    between atoms: C11_21  and  O8_22 
REMARK    9  A    between atoms: C12_24  and  O9_25 
REMARK   10  A    between atoms: C13_27  and  N1_29 
REMARK   11  A    between atoms: N1_29  and  C15_31 
REMARK   12  A    between atoms: C15_31  and  C16_32 
REMARK   13  A    between atoms: C16_32  and  C17_33 
REMARK   14  A    between atoms: C17_33  and  C18_34 
REMARK   15  A    between atoms: C18_34  and  C19_35 
ROOT
HETATM    1  C1  UNL     1      -8.356  76.275 119.686  1.00  0.00     0.042 C 
HETATM    2  C2  UNL     1      -9.280  76.716 120.762  1.00  0.00     0.151 C 
HETATM    3  O1  UNL     1      -9.915  75.652 121.430  1.00  0.00    -0.351 OA
HETATM    4  C3  UNL     1     -10.795  75.125 120.445  1.00  0.00     0.292 C 
HETATM    5  C12 UNL     1     -11.307  76.296 119.697  1.00  0.00     0.203 C 
HETATM    6  C13 UNL     1     -10.486  77.505 120.232  1.00  0.00     0.082 C 
HETATM    7  C14 UNL     1     -10.133  78.342 119.070  1.00  0.00     0.044 C 
ENDROOT
BRANCH   4   8
HETATM    8  O2  UNL     1     -10.045  74.201 119.767  1.00  0.00    -0.348 OA
BRANCH   8   9
HETATM    9  C4  UNL     1     -10.703  72.953 119.600  1.00  0.00     0.185 C 
HETATM   10  C5  UNL     1     -10.133  71.971 120.579  1.00  0.00     0.180 C 
HETATM   11  C6  UNL     1      -9.358  70.836 119.979  1.00  0.00     0.178 C 
HETATM   12  C7  UNL     1     -10.244  70.241 118.913  1.00  0.00     0.156 C 
HETATM   13  C8  UNL     1     -10.301  71.245 117.783  1.00  0.00     0.058 C 
HETATM   14  C11 UNL     1     -10.682  72.600 118.174  1.00  0.00     0.157 C 
BRANCH  10  15
HETATM   15  O3  UNL     1      -9.326  72.562 121.546  1.00  0.00    -0.390 OA
ATOM     16  H3  UNL     1      -9.477  72.225 122.422  1.00  0.00     0.210 HD
ENDBRANCH  10  15
BRANCH  11  17
HETATM   17  O4  UNL     1      -9.187  69.889 121.013  1.00  0.00    -0.390 OA
ATOM     18  H4  UNL     1      -8.605  69.223 120.666  1.00  0.00     0.210 HD
ENDBRANCH  11  17
BRANCH  12  19
HETATM   19  O5  UNL     1      -9.621  69.104 118.428  1.00  0.00    -0.392 OA
ATOM     20  H5  UNL     1      -8.940  69.378 117.825  1.00  0.00     0.210 HD
ENDBRANCH  12  19
BRANCH  13  21
HETATM   21  C9  UNL     1      -9.029  71.074 117.007  1.00  0.00     0.123 C 
BRANCH  21  22
HETATM   22  C10 UNL     1      -9.165  70.524 115.650  1.00  0.00     0.173 C 
HETATM   23  O6  UNL     1      -9.132  69.308 115.418  1.00  0.00    -0.648 OA
HETATM   24  O7  UNL     1      -9.340  71.400 114.559  1.00  0.00    -0.648 OA
ENDBRANCH  21  22
ENDBRANCH  13  21
BRANCH  14  25
HETATM   25  O8  UNL     1      -9.971  73.517 117.405  1.00  0.00    -0.392 OA
ATOM     26  H8  UNL     1      -9.097  73.214 117.188  1.00  0.00     0.210 HD
ENDBRANCH  14  25
ENDBRANCH   8   9
ENDBRANCH   4   8
BRANCH   5  27
HETATM   27  O9  UNL     1     -11.330  76.233 118.339  1.00  0.00    -0.388 OA
ATOM     28  H9  UNL     1     -11.903  75.597 117.928  1.00  0.00     0.210 HD
ENDBRANCH   5  27
BRANCH   6  29
HETATM   29  N1  UNL     1     -11.125  78.057 121.336  1.00  0.00    -0.388 N 
ATOM     30  H1  UNL     1     -10.531  78.346 122.113  1.00  0.00     0.159 HD
BRANCH  29  31
HETATM   31  C15 UNL     1     -12.481  78.253 121.487  1.00  0.00     0.056 C 
BRANCH  31  32
HETATM   32  C16 UNL     1     -13.101  77.932 122.827  1.00  0.00     0.044 C 
BRANCH  32  33
HETATM   33  C17 UNL     1     -14.471  77.273 122.634  1.00  0.00     0.006 C 
BRANCH  33  34
HETATM   34  C18 UNL     1     -14.573  76.866 121.186  1.00  0.00     0.008 C 
BRANCH  34  35
HETATM   35  C19 UNL     1     -15.286  75.540 121.110  1.00  0.00    -0.051 C 
HETATM   36  C20 UNL     1     -14.453  74.443 120.488  1.00  0.00     0.014 C 
HETATM   37  C21 UNL     1     -16.494  75.791 120.189  1.00  0.00     0.014 C 
HETATM   38  C22 UNL     1     -15.794  75.120 122.447  1.00  0.00     0.014 C 
ENDBRANCH  34  35
ENDBRANCH  33  34
ENDBRANCH  32  33
ENDBRANCH  31  32
ENDBRANCH  29  31
ENDBRANCH   6  29
TORSDOF 15
ENDMDL
MODEL 4
REMARK VINA RESULT: -6.752694581      1.327      1.827
REMARK  15 active torsions:
REMARK  status: ('A' for Active; 'I' for Inactive)
REMARK    1  A    between atoms: C3_4  and  O2_5 
REMARK    2  A    between atoms: O2_5  and  C4_6 
REMARK    3  A    between atoms: C5_7  and  O3_8 
REMARK    4  A    between atoms: C6_10  and  O4_11 
REMARK    5  A    between atoms: C7_13  and  O5_14 
REMARK    6  A    between atoms: C8_16  and  C9_17 
REMARK    7  A    between atoms: C9_17  and  C10_18 
REMARK    8  A    between atoms: C11_21  and  O8_22 
REMARK    9  A    between atoms: C12_24  and  O9_25 
REMARK   10  A    between atoms: C13_27  and  N1_29 
REMARK   11  A    between atoms: N1_29  and  C15_31 
REMARK   12  A    between atoms: C15_31  and  C16_32 
REMARK   13  A    between atoms: C16_32  and  C17_33 
REMARK   14  A    between atoms: C17_33  and  C18_34 
REMARK   15  A    between atoms: C18_34  and  C19_35 
ROOT
HETATM    1  C1  UNL     1      -9.055  76.833 119.478  1.00  0.00     0.042 C 
HETATM    2  C2  UNL     1      -9.797  77.104 120.736  1.00  0.00     0.151 C 
HETATM    3  O1  UNL     1     -10.115  75.942 121.464  1.00  0.00    -0.351 OA
HETATM    4  C3  UNL     1     -11.086  75.299 120.648  1.00  0.00     0.292 C 
HETATM    5  C12 UNL     1     -11.911  76.387 120.074  1.00  0.00     0.203 C 
HETATM    6  C13 UNL     1     -11.190  77.701 120.494  1.00  0.00     0.082 C 
HETATM    7  C14 UNL     1     -11.211  78.603 119.327  1.00  0.00     0.044 C 
ENDROOT
BRANCH   4   8
HETATM    8  O2  UNL     1     -10.358  74.517 119.791  1.00  0.00    -0.348 OA
BRANCH   8   9
HETATM    9  C4  UNL     1     -10.913  73.222 119.600  1.00  0.00     0.185 C 
HETATM   10  C5  UNL     1     -10.141  72.240 120.429  1.00  0.00     0.180 C 
HETATM   11  C6  UNL     1      -9.341  71.233 119.659  1.00  0.00     0.178 C 
HETATM   12  C7  UNL     1     -10.288  70.624 118.655  1.00  0.00     0.156 C 
HETATM   13  C8  UNL     1     -10.572  71.691 117.621  1.00  0.00     0.058 C 
HETATM   14  C11 UNL     1     -11.028  72.970 118.158  1.00  0.00     0.157 C 
BRANCH  10  15
HETATM   15  O3  UNL     1      -9.284  72.843 121.344  1.00  0.00    -0.390 OA
ATOM     16  H3  UNL     1      -8.488  73.181 120.950  1.00  0.00     0.210 HD
ENDBRANCH  10  15
BRANCH  11  17
HETATM   17  O4  UNL     1      -8.961  70.240 120.589  1.00  0.00    -0.390 OA
ATOM     18  H4  UNL     1      -8.987  70.655 121.443  1.00  0.00     0.210 HD
ENDBRANCH  11  17
BRANCH  12  19
HETATM   19  O5  UNL     1      -9.623  69.591 118.015  1.00  0.00    -0.392 OA
ATOM     20  H5  UNL     1      -9.110  69.126 118.666  1.00  0.00     0.210 HD
ENDBRANCH  12  19
BRANCH  13  21
HETATM   21  C9  UNL     1      -9.391  71.703 116.697  1.00  0.00     0.123 C 
BRANCH  21  22
HETATM   22  C10 UNL     1      -9.689  71.628 115.260  1.00  0.00     0.173 C 
HETATM   23  O6  UNL     1      -9.115  70.835 114.500  1.00  0.00    -0.648 OA
HETATM   24  O7  UNL     1     -10.663  72.484 114.706  1.00  0.00    -0.648 OA
ENDBRANCH  21  22
ENDBRANCH  13  21
BRANCH  14  25
HETATM   25  O8  UNL     1     -10.502  74.005 117.389  1.00  0.00    -0.392 OA
ATOM     26  H8  UNL     1     -10.991  74.815 117.482  1.00  0.00     0.210 HD
ENDBRANCH  14  25
ENDBRANCH   8   9
ENDBRANCH   4   8
BRANCH   5  27
HETATM   27  O9  UNL     1     -12.199  76.344 118.746  1.00  0.00    -0.388 OA
ATOM     28  H9  UNL     1     -12.218  75.497 118.318  1.00  0.00     0.210 HD
ENDBRANCH   5  27
BRANCH   6  29
HETATM   29  N1  UNL     1     -11.668  78.127 121.728  1.00  0.00    -0.388 N 
ATOM     30  H1  UNL     1     -11.047  78.717 122.281  1.00  0.00     0.159 HD
BRANCH  29  31
HETATM   31  C15 UNL     1     -12.896  77.831 122.280  1.00  0.00     0.056 C 
BRANCH  31  32
HETATM   32  C16 UNL     1     -13.915  78.942 122.381  1.00  0.00     0.044 C 
BRANCH  32  33
HETATM   33  C17 UNL     1     -14.628  79.133 121.038  1.00  0.00     0.006 C 
BRANCH  33  34
HETATM   34  C18 UNL     1     -15.399  80.425 121.118  1.00  0.00     0.008 C 
BRANCH  34  35
HETATM   35  C19 UNL     1     -15.891  80.776 119.737  1.00  0.00    -0.051 C 
HETATM   36  C20 UNL     1     -17.249  80.194 119.417  1.00  0.00     0.014 C 
HETATM   37  C21 UNL     1     -14.870  80.139 118.777  1.00  0.00     0.014 C 
HETATM   38  C22 UNL     1     -15.885  82.250 119.517  1.00  0.00     0.014 C 
ENDBRANCH  34  35
ENDBRANCH  33  34
ENDBRANCH  32  33
ENDBRANCH  31  32
ENDBRANCH  29  31
ENDBRANCH   6  29
TORSDOF 15
ENDMDL
MODEL 5
REMARK VINA RESULT: -6.658956270      3.098      4.664
REMARK  15 active torsions:
REMARK  status: ('A' for Active; 'I' for Inactive)
REMARK    1  A    between atoms: C3_4  and  O2_5 
REMARK    2  A    between atoms: O2_5  and  C4_6 
REMARK    3  A    between atoms: C5_7  and  O3_8 
REMARK    4  A    between atoms: C6_10  and  O4_11 
REMARK    5  A    between atoms: C7_13  and  O5_14 
REMARK    6  A    between atoms: C8_16  and  C9_17 
REMARK    7  A    between atoms: C9_17  and  C10_18 
REMARK    8  A    between atoms: C11_21  and  O8_22 
REMARK    9  A    between atoms: C12_24  and  O9_25 
REMARK   10  A    between atoms: C13_27  and  N1_29 
REMARK   11  A    between atoms: N1_29  and  C15_31 
REMARK   12  A    between atoms: C15_31  and  C16_32 
REMARK   13  A    between atoms: C16_32  and  C17_33 
REMARK   14  A    between atoms: C17_33  and  C18_34 
REMARK   15  A    between atoms: C18_34  and  C19_35 
ROOT
HETATM    1  C1  UNL     1      -8.474  75.664 119.885  1.00  0.00     0.042 C 
HETATM    2  C2  UNL     1      -9.815  76.261 120.112  1.00  0.00     0.151 C 
HETATM    3  O1  UNL     1     -10.808  75.314 120.423  1.00  0.00    -0.351 OA
HETATM    4  C3  UNL     1     -10.975  74.600 119.204  1.00  0.00     0.292 C 
HETATM    5  C12 UNL     1     -10.845  75.611 118.128  1.00  0.00     0.203 C 
HETATM    6  C13 UNL     1     -10.402  76.915 118.853  1.00  0.00     0.082 C 
HETATM    7  C14 UNL     1      -9.362  77.546 118.020  1.00  0.00     0.044 C 
ENDROOT
BRANCH   4   8
HETATM    8  O2  UNL     1     -10.049  73.593 119.261  1.00  0.00    -0.348 OA
BRANCH   8   9
HETATM    9  C4  UNL     1     -10.623  72.311 119.483  1.00  0.00     0.185 C 
HETATM   10  C5  UNL     1     -10.023  71.722 120.723  1.00  0.00     0.180 C 
HETATM   11  C6  UNL     1      -9.161  70.513 120.512  1.00  0.00     0.178 C 
HETATM   12  C7  UNL     1      -9.976  69.558 119.675  1.00  0.00     0.156 C 
HETATM   13  C8  UNL     1     -10.061  70.159 118.288  1.00  0.00     0.058 C 
HETATM   14  C11 UNL     1     -10.537  71.538 118.237  1.00  0.00     0.157 C 
BRANCH  10  15
HETATM   15  O3  UNL     1      -9.284  72.636 121.468  1.00  0.00    -0.390 OA
ATOM     16  H3  UNL     1      -9.813  73.325 121.852  1.00  0.00     0.210 HD
ENDBRANCH  10  15
BRANCH  11  17
HETATM   17  O4  UNL     1      -8.963  69.945 121.790  1.00  0.00    -0.390 OA
ATOM     18  H4  UNL     1      -8.112  69.523 121.761  1.00  0.00     0.210 HD
ENDBRANCH  11  17
BRANCH  12  19
HETATM   19  O5  UNL     1      -9.268  68.373 119.572  1.00  0.00    -0.392 OA
ATOM     20  H5  UNL     1      -8.342  68.579 119.622  1.00  0.00     0.210 HD
ENDBRANCH  12  19
BRANCH  13  21
HETATM   21  C9  UNL     1      -8.758  69.844 117.616  1.00  0.00     0.123 C 
BRANCH  21  22
HETATM   22  C10 UNL     1      -8.846  69.200 116.297  1.00  0.00     0.173 C 
HETATM   23  O6  UNL     1      -8.568  68.006 116.119  1.00  0.00    -0.648 OA
HETATM   24  O7  UNL     1      -9.260  69.956 115.181  1.00  0.00    -0.648 OA
ENDBRANCH  21  22
ENDBRANCH  13  21
BRANCH  14  25
HETATM   25  O8  UNL     1      -9.862  72.220 117.228  1.00  0.00    -0.392 OA
ATOM     26  H8  UNL     1      -9.576  73.086 117.498  1.00  0.00     0.210 HD
ENDBRANCH  14  25
ENDBRANCH   8   9
ENDBRANCH   4   8
BRANCH   5  27
HETATM   27  O9  UNL     1     -10.065  75.312 117.056  1.00  0.00    -0.388 OA
ATOM     28  H9  UNL     1      -9.244  74.860 117.209  1.00  0.00     0.210 HD
ENDBRANCH   5  27
BRANCH   6  29
HETATM   29  N1  UNL     1     -11.522  77.633 119.255  1.00  0.00    -0.388 N 
ATOM     30  H1  UNL     1     -12.041  77.265 120.052  1.00  0.00     0.159 HD
BRANCH  29  31
HETATM   31  C15 UNL     1     -12.002  78.793 118.686  1.00  0.00     0.056 C 
BRANCH  31  32
HETATM   32  C16 UNL     1     -13.159  78.685 117.721  1.00  0.00     0.044 C 
BRANCH  32  33
HETATM   33  C17 UNL     1     -12.691  78.998 116.295  1.00  0.00     0.006 C 
BRANCH  33  34
HETATM   34  C18 UNL     1     -12.430  77.682 115.610  1.00  0.00     0.008 C 
BRANCH  34  35
HETATM   35  C19 UNL     1     -11.864  77.959 114.240  1.00  0.00    -0.051 C 
HETATM   36  C20 UNL     1     -10.946  79.159 114.200  1.00  0.00     0.014 C 
HETATM   37  C21 UNL     1     -13.087  78.276 113.361  1.00  0.00     0.014 C 
HETATM   38  C22 UNL     1     -11.183  76.757 113.681  1.00  0.00     0.014 C 
ENDBRANCH  34  35
ENDBRANCH  33  34
ENDBRANCH  32  33
ENDBRANCH  31  32
ENDBRANCH  29  31
ENDBRANCH   6  29
TORSDOF 15
ENDMDL
