MODEL 1
REMARK VINA RESULT: -7.407189474      0.000      0.000
REMARK  8 active torsions:
REMARK  status: ('A' for Active; 'I' for Inactive)
REMARK    1  A    between atoms: C1_2  and  N2_4 
REMARK    2  A    between atoms: N2_4  and  N3_6 
REMARK    3  A    between atoms: C2_8  and  C3_9 
REMARK    4  A    between atoms: C3_9  and  C4_10 
REMARK    5  A    between atoms: C4_10  and  C5_11 
REMARK    6  A    between atoms: C8_14  and  C9_15 
REMARK    7  A    between atoms: C9_15  and  C10_16 
REMARK    8  A    between atoms: C10_16  and  O1_17 
ROOT
HETATM    1  C5  UNL     1      36.192  33.015  69.733  1.00  0.00    -0.010 C 
HETATM    2  C6  UNL     1      36.360  31.857  70.642  1.00  0.00     0.005 C 
HETATM    3  C7  UNL     1      35.392  30.754  70.527  1.00  0.00     0.005 C 
HETATM    4  C8  UNL     1      33.992  31.080  70.190  1.00  0.00    -0.008 C 
HETATM    5  C11 UNL     1      33.817  32.253  69.310  1.00  0.00    -0.006 C 
HETATM    6  C12 UNL     1      33.558  31.866  67.836  1.00  0.00     0.006 C 
HETATM    7  C13 UNL     1      35.085  31.948  67.665  1.00  0.00     0.006 C 
HETATM    8  C14 UNL     1      35.049  32.918  68.788  1.00  0.00    -0.006 C 
ENDROOT
BRANCH   1   9
HETATM    9  C4  UNL     1      37.489  33.422  69.053  1.00  0.00     0.010 C 
BRANCH   9  10
HETATM   10  C3  UNL     1      37.458  34.887  68.694  1.00  0.00     0.046 C 
BRANCH  10  11
HETATM   11  C2  UNL     1      38.823  35.479  68.750  1.00  0.00     0.080 C 
HETATM   12  N3  UNL     1      39.070  36.712  68.408  1.00  0.00    -0.314 N 
ATOM     13  H3  UNL     1      40.024  37.068  68.466  1.00  0.00     0.185 HD
BRANCH  12  14
HETATM   14  N2  UNL     1      38.049  37.551  67.965  1.00  0.00    -0.279 N 
ATOM     15  H2  UNL     1      37.334  37.874  68.617  1.00  0.00     0.189 HD
BRANCH  14  16
HETATM   16  C1  UNL     1      38.008  37.950  66.615  1.00  0.00     0.199 C 
HETATM   17  N1  UNL     1      38.635  37.188  65.614  1.00  0.00    -0.068 NA
HETATM   18  S1  UNL     1      37.222  39.311  66.208  1.00  0.00    -0.043 SA
ENDBRANCH  14  16
ENDBRANCH  12  14
ENDBRANCH  10  11
ENDBRANCH   9  10
ENDBRANCH   1   9
BRANCH   4  19
HETATM   19  C9  UNL     1      33.067  31.140  71.372  1.00  0.00     0.031 C 
BRANCH  19  20
HETATM   20  C10 UNL     1      32.925  32.452  72.042  1.00  0.00     0.164 C 
BRANCH  20  21
HETATM   21  O1  UNL     1      33.440  32.568  73.304  1.00  0.00    -0.401 OA
ATOM     22  H1  UNL     1      32.907  32.247  74.023  1.00  0.00     0.209 HD
ENDBRANCH  20  21
ENDBRANCH  19  20
ENDBRANCH   4  19
TORSDOF 8
ENDMDL
MODEL 2
REMARK VINA RESULT: -7.035887371      1.157      1.326
REMARK  8 active torsions:
REMARK  status: ('A' for Active; 'I' for Inactive)
REMARK    1  A    between atoms: C1_2  and  N2_4 
REMARK    2  A    between atoms: N2_4  and  N3_6 
REMARK    3  A    between atoms: C2_8  and  C3_9 
REMARK    4  A    between atoms: C3_9  and  C4_10 
REMARK    5  A    between atoms: C4_10  and  C5_11 
REMARK    6  A    between atoms: C8_14  and  C9_15 
REMARK    7  A    between atoms: C9_15  and  C10_16 
REMARK    8  A    between atoms: C10_16  and  O1_17 
ROOT
HETATM    1  C5  UNL     1      36.127  32.788  69.742  1.00  0.00    -0.010 C 
HETATM    2  C6  UNL     1      36.078  31.650  70.691  1.00  0.00     0.005 C 
HETATM    3  C7  UNL     1      34.982  30.680  70.536  1.00  0.00     0.005 C 
HETATM    4  C8  UNL     1      33.663  31.174  70.094  1.00  0.00    -0.008 C 
HETATM    5  C11 UNL     1      33.705  32.329  69.174  1.00  0.00    -0.006 C 
HETATM    6  C12 UNL     1      33.494  31.929  67.696  1.00  0.00     0.006 C 
HETATM    7  C13 UNL     1      35.026  31.805  67.631  1.00  0.00     0.006 C 
HETATM    8  C14 UNL     1      35.045  32.808  68.723  1.00  0.00    -0.006 C 
ENDROOT
BRANCH   1   9
HETATM    9  C4  UNL     1      37.508  32.998  69.144  1.00  0.00     0.010 C 
BRANCH   9  10
HETATM   10  C3  UNL     1      37.707  34.447  68.775  1.00  0.00     0.046 C 
BRANCH  10  11
HETATM   11  C2  UNL     1      37.714  35.310  69.987  1.00  0.00     0.080 C 
HETATM   12  N3  UNL     1      37.676  36.611  69.925  1.00  0.00    -0.314 N 
ATOM     13  H3  UNL     1      37.682  37.156  70.787  1.00  0.00     0.185 HD
BRANCH  12  14
HETATM   14  N2  UNL     1      37.629  37.269  68.697  1.00  0.00    -0.279 N 
ATOM     15  H2  UNL     1      37.384  36.754  67.851  1.00  0.00     0.189 HD
BRANCH  14  16
HETATM   16  C1  UNL     1      37.919  38.645  68.627  1.00  0.00     0.199 C 
HETATM   17  N1  UNL     1      39.144  39.151  69.096  1.00  0.00    -0.068 NA
HETATM   18  S1  UNL     1      36.824  39.662  67.994  1.00  0.00    -0.043 SA
ENDBRANCH  14  16
ENDBRANCH  12  14
ENDBRANCH  10  11
ENDBRANCH   9  10
ENDBRANCH   1   9
BRANCH   4  19
HETATM   19  C9  UNL     1      32.678  31.397  71.206  1.00  0.00     0.031 C 
BRANCH  19  20
HETATM   20  C10 UNL     1      32.840  32.632  72.004  1.00  0.00     0.164 C 
BRANCH  20  21
HETATM   21  O1  UNL     1      33.351  32.501  73.265  1.00  0.00    -0.401 OA
ATOM     22  H1  UNL     1      32.747  32.599  73.992  1.00  0.00     0.209 HD
ENDBRANCH  20  21
ENDBRANCH  19  20
ENDBRANCH   4  19
TORSDOF 8
ENDMDL
MODEL 3
REMARK VINA RESULT: -6.960227424      3.450      4.022
REMARK  8 active torsions:
REMARK  status: ('A' for Active; 'I' for Inactive)
REMARK    1  A    between atoms: C1_2  and  N2_4 
REMARK    2  A    between atoms: N2_4  and  N3_6 
REMARK    3  A    between atoms: C2_8  and  C3_9 
REMARK    4  A    between atoms: C3_9  and  C4_10 
REMARK    5  A    between atoms: C4_10  and  C5_11 
REMARK    6  A    between atoms: C8_14  and  C9_15 
REMARK    7  A    between atoms: C9_15  and  C10_16 
REMARK    8  A    between atoms: C10_16  and  O1_17 
ROOT
HETATM    1  C5  UNL     1      35.402  32.828  71.521  1.00  0.00    -0.010 C 
HETATM    2  C6  UNL     1      34.211  33.116  72.355  1.00  0.00     0.005 C 
HETATM    3  C7  UNL     1      33.072  32.189  72.261  1.00  0.00     0.005 C 
HETATM    4  C8  UNL     1      32.777  31.568  70.955  1.00  0.00    -0.008 C 
HETATM    5  C11 UNL     1      33.957  31.307  70.106  1.00  0.00    -0.006 C 
HETATM    6  C12 UNL     1      34.412  29.831  70.144  1.00  0.00     0.006 C 
HETATM    7  C13 UNL     1      35.326  30.262  71.304  1.00  0.00     0.006 C 
HETATM    8  C14 UNL     1      35.303  31.607  70.679  1.00  0.00    -0.006 C 
ENDROOT
BRANCH   1   9
HETATM    9  C4  UNL     1      36.702  32.904  72.303  1.00  0.00     0.010 C 
BRANCH   9  10
HETATM   10  C3  UNL     1      37.018  34.336  72.661  1.00  0.00     0.046 C 
BRANCH  10  11
HETATM   11  C2  UNL     1      37.499  35.089  71.470  1.00  0.00     0.080 C 
HETATM   12  N3  UNL     1      37.185  36.334  71.250  1.00  0.00    -0.314 N 
ATOM     13  H3  UNL     1      37.542  36.804  70.418  1.00  0.00     0.185 HD
BRANCH  12  14
HETATM   14  N2  UNL     1      36.367  37.033  72.136  1.00  0.00    -0.279 N 
ATOM     15  H2  UNL     1      35.751  36.525  72.772  1.00  0.00     0.189 HD
BRANCH  14  16
HETATM   16  C1  UNL     1      36.392  38.441  72.152  1.00  0.00     0.199 C 
HETATM   17  N1  UNL     1      35.599  39.189  71.263  1.00  0.00    -0.068 NA
HETATM   18  S1  UNL     1      37.349  39.212  73.211  1.00  0.00    -0.043 SA
ENDBRANCH  14  16
ENDBRANCH  12  14
ENDBRANCH  10  11
ENDBRANCH   9  10
ENDBRANCH   1   9
BRANCH   4  19
HETATM   19  C9  UNL     1      31.683  32.243  70.179  1.00  0.00     0.031 C 
BRANCH  19  20
HETATM   20  C10 UNL     1      31.998  32.640  68.789  1.00  0.00     0.164 C 
BRANCH  20  21
HETATM   21  O1  UNL     1      31.300  32.022  67.788  1.00  0.00    -0.401 OA
ATOM     22  H1  UNL     1      31.456  31.094  67.658  1.00  0.00     0.209 HD
ENDBRANCH  20  21
ENDBRANCH  19  20
ENDBRANCH   4  19
TORSDOF 8
ENDMDL
MODEL 4
REMARK VINA RESULT: -6.922454221      1.196      1.296
REMARK  8 active torsions:
REMARK  status: ('A' for Active; 'I' for Inactive)
REMARK    1  A    between atoms: C1_2  and  N2_4 
REMARK    2  A    between atoms: N2_4  and  N3_6 
REMARK    3  A    between atoms: C2_8  and  C3_9 
REMARK    4  A    between atoms: C3_9  and  C4_10 
REMARK    5  A    between atoms: C4_10  and  C5_11 
REMARK    6  A    between atoms: C8_14  and  C9_15 
REMARK    7  A    between atoms: C9_15  and  C10_16 
REMARK    8  A    between atoms: C10_16  and  O1_17 
ROOT
HETATM    1  C5  UNL     1      36.139  32.835  69.753  1.00  0.00    -0.010 C 
HETATM    2  C6  UNL     1      36.133  31.679  70.681  1.00  0.00     0.005 C 
HETATM    3  C7  UNL     1      35.053  30.691  70.531  1.00  0.00     0.005 C 
HETATM    4  C8  UNL     1      33.716  31.166  70.125  1.00  0.00    -0.008 C 
HETATM    5  C11 UNL     1      33.715  32.338  69.226  1.00  0.00    -0.006 C 
HETATM    6  C12 UNL     1      33.482  31.961  67.745  1.00  0.00     0.006 C 
HETATM    7  C13 UNL     1      35.015  31.869  67.646  1.00  0.00     0.006 C 
HETATM    8  C14 UNL     1      35.037  32.853  68.757  1.00  0.00    -0.006 C 
ENDROOT
BRANCH   1   9
HETATM    9  C4  UNL     1      37.504  33.084  69.132  1.00  0.00     0.010 C 
BRANCH   9  10
HETATM   10  C3  UNL     1      37.672  34.546  68.799  1.00  0.00     0.046 C 
BRANCH  10  11
HETATM   11  C2  UNL     1      38.980  35.058  69.294  1.00  0.00     0.080 C 
HETATM   12  N3  UNL     1      39.470  36.208  68.927  1.00  0.00    -0.314 N 
ATOM     13  H3  UNL     1      40.371  36.512  69.297  1.00  0.00     0.185 HD
BRANCH  12  14
HETATM   14  N2  UNL     1      38.780  37.030  68.038  1.00  0.00    -0.279 N 
ATOM     15  H2  UNL     1      38.763  36.804  67.043  1.00  0.00     0.189 HD
BRANCH  14  16
HETATM   16  C1  UNL     1      38.106  38.170  68.515  1.00  0.00     0.199 C 
HETATM   17  N1  UNL     1      36.912  38.610  67.916  1.00  0.00    -0.068 NA
HETATM   18  S1  UNL     1      38.715  38.990  69.777  1.00  0.00    -0.043 SA
ENDBRANCH  14  16
ENDBRANCH  12  14
ENDBRANCH  10  11
ENDBRANCH   9  10
ENDBRANCH   1   9
BRANCH   4  19
HETATM   19  C9  UNL     1      32.750  31.348  71.260  1.00  0.00     0.031 C 
BRANCH  19  20
HETATM   20  C10 UNL     1      32.863  32.601  72.039  1.00  0.00     0.164 C 
BRANCH  20  21
HETATM   21  O1  UNL     1      33.331  32.502  73.321  1.00  0.00    -0.401 OA
ATOM     22  H1  UNL     1      34.266  32.608  73.452  1.00  0.00     0.209 HD
ENDBRANCH  20  21
ENDBRANCH  19  20
ENDBRANCH   4  19
TORSDOF 8
ENDMDL
MODEL 5
REMARK VINA RESULT: -6.904553277      1.890      2.044
REMARK  8 active torsions:
REMARK  status: ('A' for Active; 'I' for Inactive)
REMARK    1  A    between atoms: C1_2  and  N2_4 
REMARK    2  A    between atoms: N2_4  and  N3_6 
REMARK    3  A    between atoms: C2_8  and  C3_9 
REMARK    4  A    between atoms: C3_9  and  C4_10 
REMARK    5  A    between atoms: C4_10  and  C5_11 
REMARK    6  A    between atoms: C8_14  and  C9_15 
REMARK    7  A    between atoms: C9_15  and  C10_16 
REMARK    8  A    between atoms: C10_16  and  O1_17 
ROOT
HETATM    1  C5  UNL     1      36.186  33.112  70.960  1.00  0.00    -0.010 C 
HETATM    2  C6  UNL     1      35.749  31.924  71.731  1.00  0.00     0.005 C 
HETATM    3  C7  UNL     1      35.032  30.864  71.002  1.00  0.00     0.005 C 
HETATM    4  C8  UNL     1      34.131  31.254  69.901  1.00  0.00    -0.008 C 
HETATM    5  C11 UNL     1      34.545  32.457  69.149  1.00  0.00    -0.006 C 
HETATM    6  C12 UNL     1      35.228  32.120  67.805  1.00  0.00     0.006 C 
HETATM    7  C13 UNL     1      36.546  32.146  68.599  1.00  0.00     0.006 C 
HETATM    8  C14 UNL     1      35.850  33.085  69.512  1.00  0.00    -0.006 C 
ENDROOT
BRANCH   1   9
HETATM    9  C4  UNL     1      37.635  33.485  71.225  1.00  0.00     0.010 C 
BRANCH   9  10
HETATM   10  C3  UNL     1      37.954  34.827  70.613  1.00  0.00     0.046 C 
BRANCH  10  11
HETATM   11  C2  UNL     1      39.164  34.745  69.750  1.00  0.00     0.080 C 
HETATM   12  N3  UNL     1      39.197  35.217  68.536  1.00  0.00    -0.314 N 
ATOM     13  H3  UNL     1      40.053  35.136  67.988  1.00  0.00     0.185 HD
BRANCH  12  14
HETATM   14  N2  UNL     1      38.078  35.831  67.977  1.00  0.00    -0.279 N 
ATOM     15  H2  UNL     1      37.161  35.389  68.052  1.00  0.00     0.189 HD
BRANCH  14  16
HETATM   16  C1  UNL     1      38.215  37.063  67.309  1.00  0.00     0.199 C 
HETATM   17  N1  UNL     1      38.413  37.114  65.918  1.00  0.00    -0.068 NA
HETATM   18  S1  UNL     1      38.141  38.445  68.156  1.00  0.00    -0.043 SA
ENDBRANCH  14  16
ENDBRANCH  12  14
ENDBRANCH  10  11
ENDBRANCH   9  10
ENDBRANCH   1   9
BRANCH   4  19
HETATM   19  C9  UNL     1      32.679  31.320  70.281  1.00  0.00     0.031 C 
BRANCH  19  20
HETATM   20  C10 UNL     1      31.701  31.376  69.172  1.00  0.00     0.164 C 
BRANCH  20  21
HETATM   21  O1  UNL     1      31.887  30.510  68.129  1.00  0.00    -0.401 OA
ATOM     22  H1  UNL     1      31.128  30.302  67.596  1.00  0.00     0.209 HD
ENDBRANCH  20  21
ENDBRANCH  19  20
ENDBRANCH   4  19
TORSDOF 8
ENDMDL
