MODEL 1
REMARK VINA RESULT: -6.669938529      0.000      0.000
REMARK  6 active torsions:
REMARK  status: ('A' for Active; 'I' for Inactive)
REMARK    1  A    between atoms: C2_2  and  N1_3 
REMARK    2  A    between atoms: N1_3  and  C4_5 
REMARK    3  A    between atoms: C4_5  and  C5_6 
REMARK    4  A    between atoms: C7_8  and  C8_9 
REMARK    5  A    between atoms: C8_9  and  C9_10 
REMARK    6  A    between atoms: C10_15  and  N4_16 
ROOT
HETATM    1  C5  UNL     1      36.408  33.112  70.864  1.00  0.00     0.019 C 
HETATM    2  C6  UNL     1      37.241  34.098  70.059  1.00  0.00     0.016 C 
HETATM    3  C7  UNL     1      38.049  34.905  71.005  1.00  0.00    -0.033 C 
HETATM    4  C11 UNL     1      38.905  33.942  71.820  1.00  0.00     0.015 C 
HETATM    5  C12 UNL     1      38.022  33.213  72.778  1.00  0.00    -0.009 C 
HETATM    6  C13 UNL     1      37.611  34.176  73.868  1.00  0.00     0.010 C 
HETATM    7  C14 UNL     1      36.490  34.594  72.909  1.00  0.00    -0.009 C 
HETATM    8  C15 UNL     1      37.107  35.599  71.997  1.00  0.00     0.015 C 
HETATM    9  C16 UNL     1      36.586  33.206  72.326  1.00  0.00    -0.001 C 
ENDROOT
BRANCH   3  10
HETATM   10  C8  UNL     1      38.937  35.932  70.437  1.00  0.00     0.088 C 
BRANCH  10  11
HETATM   11  C9  UNL     1      38.486  36.647  69.246  1.00  0.00     0.113 A 
HETATM   12  N2  UNL     1      37.569  37.607  69.095  1.00  0.00    -0.274 N 
HETATM   13  N3  UNL     1      37.453  37.972  67.846  1.00  0.00    -0.131 N 
ATOM     14  H2  UNL     1      37.027  38.006  69.860  1.00  0.00     0.189 HD
HETATM   15  C10 UNL     1      38.318  37.232  67.154  1.00  0.00     0.691 A 
ATOM     16  H3  UNL     1      36.823  38.684  67.473  1.00  0.00     0.205 HD
HETATM   17  N5  UNL     1      38.949  36.424  68.002  1.00  0.00    -0.178 N 
ATOM     18  H5  UNL     1      39.667  35.746  67.750  1.00  0.00     0.185 HD
BRANCH  15  19
HETATM   19  N4  UNL     1      38.511  37.293  65.860  1.00  0.00    -0.233 N 
ATOM     20  H42 UNL     1      38.277  36.567  65.184  1.00  0.00     0.174 HD
ATOM     21  H41 UNL     1      38.925  38.078  65.358  1.00  0.00     0.174 HD
ENDBRANCH  15  19
ENDBRANCH  10  11
ENDBRANCH   3  10
BRANCH   1  22
HETATM   22  C4  UNL     1      36.736  31.674  70.456  1.00  0.00     0.277 C 
BRANCH  22  23
HETATM   23  N1  UNL     1      35.581  30.906  70.183  1.00  0.00     0.084 N 
HETATM   24  C3  UNL     1      35.248  30.034  71.264  1.00  0.00     0.309 C 
BRANCH  23  25
HETATM   25  C2  UNL     1      34.442  31.659  69.768  1.00  0.00     0.267 C 
HETATM   26  C1  UNL     1      33.390  30.866  69.040  1.00  0.00     0.037 C 
ENDBRANCH  23  25
ENDBRANCH  22  23
ENDBRANCH   1  22
TORSDOF 6
ENDMDL
MODEL 2
REMARK VINA RESULT: -6.557822138      2.337      5.875
REMARK  6 active torsions:
REMARK  status: ('A' for Active; 'I' for Inactive)
REMARK    1  A    between atoms: C2_2  and  N1_3 
REMARK    2  A    between atoms: N1_3  and  C4_5 
REMARK    3  A    between atoms: C4_5  and  C5_6 
REMARK    4  A    between atoms: C7_8  and  C8_9 
REMARK    5  A    between atoms: C8_9  and  C9_10 
REMARK    6  A    between atoms: C10_15  and  N4_16 
ROOT
HETATM    1  C5  UNL     1      37.334  32.995  69.237  1.00  0.00     0.019 C 
HETATM    2  C6  UNL     1      36.113  32.184  68.830  1.00  0.00     0.016 C 
HETATM    3  C7  UNL     1      35.480  31.647  70.060  1.00  0.00    -0.033 C 
HETATM    4  C11 UNL     1      35.127  32.832  70.952  1.00  0.00     0.015 C 
HETATM    5  C12 UNL     1      36.387  33.392  71.523  1.00  0.00    -0.009 C 
HETATM    6  C13 UNL     1      36.901  32.428  72.568  1.00  0.00     0.010 C 
HETATM    7  C14 UNL     1      37.570  31.702  71.395  1.00  0.00    -0.009 C 
HETATM    8  C15 UNL     1      36.514  30.815  70.828  1.00  0.00     0.015 C 
HETATM    9  C16 UNL     1      37.590  33.035  70.690  1.00  0.00    -0.001 C 
ENDROOT
BRANCH   3  10
HETATM   10  C8  UNL     1      34.272  30.824  69.899  1.00  0.00     0.088 C 
BRANCH  10  11
HETATM   11  C9  UNL     1      33.148  31.390  69.158  1.00  0.00     0.113 A 
HETATM   12  N2  UNL     1      32.224  30.811  68.387  1.00  0.00    -0.274 N 
HETATM   13  N3  UNL     1      31.392  31.685  67.888  1.00  0.00    -0.131 N 
ATOM     14  H2  UNL     1      32.174  29.808  68.211  1.00  0.00     0.189 HD
HETATM   15  C10 UNL     1      31.779  32.877  68.343  1.00  0.00     0.691 A 
ATOM     16  H3  UNL     1      30.602  31.495  67.271  1.00  0.00     0.205 HD
HETATM   17  N5  UNL     1      32.847  32.702  69.116  1.00  0.00    -0.178 N 
ATOM     18  H5  UNL     1      33.356  33.442  69.599  1.00  0.00     0.185 HD
BRANCH  15  19
HETATM   19  N4  UNL     1      31.202  34.021  68.073  1.00  0.00    -0.233 N 
ATOM     20  H42 UNL     1      31.638  34.940  68.132  1.00  0.00     0.174 HD
ATOM     21  H41 UNL     1      30.237  34.142  67.768  1.00  0.00     0.174 HD
ENDBRANCH  15  19
ENDBRANCH  10  11
ENDBRANCH   3  10
BRANCH   1  22
HETATM   22  C4  UNL     1      37.201  34.442  68.757  1.00  0.00     0.277 C 
BRANCH  22  23
HETATM   23  N1  UNL     1      38.250  35.270  69.217  1.00  0.00     0.084 N 
HETATM   24  C3  UNL     1      39.519  34.867  68.699  1.00  0.00     0.309 C 
BRANCH  23  25
HETATM   25  C2  UNL     1      38.042  36.667  69.023  1.00  0.00     0.267 C 
HETATM   26  C1  UNL     1      38.313  37.160  67.626  1.00  0.00     0.037 C 
ENDBRANCH  23  25
ENDBRANCH  22  23
ENDBRANCH   1  22
TORSDOF 6
ENDMDL
MODEL 3
REMARK VINA RESULT: -6.434253658      2.091      3.436
REMARK  6 active torsions:
REMARK  status: ('A' for Active; 'I' for Inactive)
REMARK    1  A    between atoms: C2_2  and  N1_3 
REMARK    2  A    between atoms: N1_3  and  C4_5 
REMARK    3  A    between atoms: C4_5  and  C5_6 
REMARK    4  A    between atoms: C7_8  and  C8_9 
REMARK    5  A    between atoms: C8_9  and  C9_10 
REMARK    6  A    between atoms: C10_15  and  N4_16 
ROOT
HETATM    1  C5  UNL     1      37.934  35.454  71.462  1.00  0.00     0.019 C 
HETATM    2  C6  UNL     1      37.578  36.867  71.025  1.00  0.00     0.016 C 
HETATM    3  C7  UNL     1      38.733  37.429  70.282  1.00  0.00    -0.033 C 
HETATM    4  C11 UNL     1      39.019  36.504  69.104  1.00  0.00     0.015 C 
HETATM    5  C12 UNL     1      39.624  35.242  69.623  1.00  0.00    -0.009 C 
HETATM    6  C13 UNL     1      41.039  35.543  70.062  1.00  0.00     0.010 C 
HETATM    7  C14 UNL     1      40.406  35.973  71.391  1.00  0.00    -0.009 C 
HETATM    8  C15 UNL     1      39.973  37.384  71.183  1.00  0.00     0.015 C 
HETATM    9  C16 UNL     1      39.288  35.013  71.073  1.00  0.00    -0.001 C 
ENDROOT
BRANCH   3  10
HETATM   10  C8  UNL     1      38.605  38.800  69.763  1.00  0.00     0.088 C 
BRANCH  10  11
HETATM   11  C9  UNL     1      37.335  39.189  69.157  1.00  0.00     0.113 A 
HETATM   12  N2  UNL     1      36.162  39.511  69.709  1.00  0.00    -0.274 N 
HETATM   13  N3  UNL     1      35.260  39.785  68.805  1.00  0.00    -0.131 N 
ATOM     14  H2  UNL     1      35.991  39.539  70.714  1.00  0.00     0.189 HD
HETATM   15  C10 UNL     1      35.856  39.641  67.622  1.00  0.00     0.691 A 
ATOM     16  H3  UNL     1      34.291  40.057  68.971  1.00  0.00     0.205 HD
HETATM   17  N5  UNL     1      37.118  39.278  67.831  1.00  0.00    -0.178 N 
ATOM     18  H5  UNL     1      37.811  39.097  67.104  1.00  0.00     0.185 HD
BRANCH  15  19
HETATM   19  N4  UNL     1      35.291  39.827  66.455  1.00  0.00    -0.233 N 
ATOM     20  H42 UNL     1      35.222  39.138  65.706  1.00  0.00     0.174 HD
ATOM     21  H41 UNL     1      34.845  40.689  66.141  1.00  0.00     0.174 HD
ENDBRANCH  15  19
ENDBRANCH  10  11
ENDBRANCH   3  10
BRANCH   1  22
HETATM   22  C4  UNL     1      36.940  34.447  70.882  1.00  0.00     0.277 C 
BRANCH  22  23
HETATM   23  N1  UNL     1      37.107  33.146  71.411  1.00  0.00     0.084 N 
HETATM   24  C3  UNL     1      36.155  32.857  72.436  1.00  0.00     0.309 C 
BRANCH  23  25
HETATM   25  C2  UNL     1      37.141  32.102  70.440  1.00  0.00     0.267 C 
HETATM   26  C1  UNL     1      36.748  32.519  69.047  1.00  0.00     0.037 C 
ENDBRANCH  23  25
ENDBRANCH  22  23
ENDBRANCH   1  22
TORSDOF 6
ENDMDL
MODEL 4
REMARK VINA RESULT: -6.429654451      0.607      1.117
REMARK  6 active torsions:
REMARK  status: ('A' for Active; 'I' for Inactive)
REMARK    1  A    between atoms: C2_2  and  N1_3 
REMARK    2  A    between atoms: N1_3  and  C4_5 
REMARK    3  A    between atoms: C4_5  and  C5_6 
REMARK    4  A    between atoms: C7_8  and  C8_9 
REMARK    5  A    between atoms: C8_9  and  C9_10 
REMARK    6  A    between atoms: C10_15  and  N4_16 
ROOT
HETATM    1  C5  UNL     1      36.074  33.346  70.863  1.00  0.00     0.019 C 
HETATM    2  C6  UNL     1      36.948  34.256  70.012  1.00  0.00     0.016 C 
HETATM    3  C7  UNL     1      38.014  34.819  70.877  1.00  0.00    -0.033 C 
HETATM    4  C11 UNL     1      38.790  33.651  71.474  1.00  0.00     0.015 C 
HETATM    5  C12 UNL     1      37.936  32.986  72.502  1.00  0.00    -0.009 C 
HETATM    6  C13 UNL     1      37.863  33.890  73.711  1.00  0.00     0.010 C 
HETATM    7  C14 UNL     1      36.710  34.582  72.973  1.00  0.00    -0.009 C 
HETATM    8  C15 UNL     1      37.361  35.557  72.053  1.00  0.00     0.015 C 
HETATM    9  C16 UNL     1      36.472  33.263  72.282  1.00  0.00    -0.001 C 
ENDROOT
BRANCH   3  10
HETATM   10  C8  UNL     1      38.981  35.736  70.253  1.00  0.00     0.088 C 
BRANCH  10  11
HETATM   11  C9  UNL     1      38.531  36.547  69.125  1.00  0.00     0.113 A 
HETATM   12  N2  UNL     1      37.660  37.558  69.064  1.00  0.00    -0.274 N 
HETATM   13  N3  UNL     1      37.523  38.007  67.845  1.00  0.00    -0.131 N 
ATOM     14  H2  UNL     1      37.162  37.933  69.871  1.00  0.00     0.189 HD
HETATM   15  C10 UNL     1      38.328  37.271  67.080  1.00  0.00     0.691 A 
ATOM     16  H3  UNL     1      36.920  38.770  67.539  1.00  0.00     0.205 HD
HETATM   17  N5  UNL     1      38.943  36.381  67.854  1.00  0.00    -0.178 N 
ATOM     18  H5  UNL     1      39.618  35.686  67.537  1.00  0.00     0.185 HD
BRANCH  15  19
HETATM   19  N4  UNL     1      38.485  37.405  65.787  1.00  0.00    -0.233 N 
ATOM     20  H42 UNL     1      38.935  38.189  65.316  1.00  0.00     0.174 HD
ATOM     21  H41 UNL     1      38.176  36.739  65.079  1.00  0.00     0.174 HD
ENDBRANCH  15  19
ENDBRANCH  10  11
ENDBRANCH   3  10
BRANCH   1  22
HETATM   22  C4  UNL     1      36.078  31.923  70.303  1.00  0.00     0.277 C 
BRANCH  22  23
HETATM   23  N1  UNL     1      34.822  31.536  69.784  1.00  0.00     0.084 N 
HETATM   24  C3  UNL     1      34.759  31.682  68.363  1.00  0.00     0.309 C 
BRANCH  23  25
HETATM   25  C2  UNL     1      34.381  30.239  70.181  1.00  0.00     0.267 C 
HETATM   26  C1  UNL     1      35.200  29.597  71.269  1.00  0.00     0.037 C 
ENDBRANCH  23  25
ENDBRANCH  22  23
ENDBRANCH   1  22
TORSDOF 6
ENDMDL
MODEL 5
REMARK VINA RESULT: -6.374742465      1.699      2.517
REMARK  6 active torsions:
REMARK  status: ('A' for Active; 'I' for Inactive)
REMARK    1  A    between atoms: C2_2  and  N1_3 
REMARK    2  A    between atoms: N1_3  and  C4_5 
REMARK    3  A    between atoms: C4_5  and  C5_6 
REMARK    4  A    between atoms: C7_8  and  C8_9 
REMARK    5  A    between atoms: C8_9  and  C9_10 
REMARK    6  A    between atoms: C10_15  and  N4_16 
ROOT
HETATM    1  C5  UNL     1      34.920  32.868  69.220  1.00  0.00     0.019 C 
HETATM    2  C6  UNL     1      35.995  33.755  68.609  1.00  0.00     0.016 C 
HETATM    3  C7  UNL     1      37.248  33.566  69.381  1.00  0.00    -0.033 C 
HETATM    4  C11 UNL     1      37.606  32.086  69.324  1.00  0.00     0.015 C 
HETATM    5  C12 UNL     1      36.648  31.329  70.183  1.00  0.00    -0.009 C 
HETATM    6  C13 UNL     1      36.980  31.619  71.629  1.00  0.00     0.010 C 
HETATM    7  C14 UNL     1      36.093  32.858  71.458  1.00  0.00    -0.009 C 
HETATM    8  C15 UNL     1      36.978  33.894  70.854  1.00  0.00     0.015 C 
HETATM    9  C16 UNL     1      35.361  32.085  70.390  1.00  0.00    -0.001 C 
ENDROOT
BRANCH   3  10
HETATM   10  C8  UNL     1      38.428  34.336  68.958  1.00  0.00     0.088 C 
BRANCH  10  11
HETATM   11  C9  UNL     1      38.244  35.744  68.616  1.00  0.00     0.113 A 
HETATM   12  N2  UNL     1      37.611  36.727  69.260  1.00  0.00    -0.274 N 
HETATM   13  N3  UNL     1      37.664  37.853  68.599  1.00  0.00    -0.131 N 
ATOM     14  H2  UNL     1      37.144  36.614  70.159  1.00  0.00     0.189 HD
HETATM   15  C10 UNL     1      38.353  37.603  67.486  1.00  0.00     0.691 A 
ATOM     16  H3  UNL     1      37.259  38.746  68.879  1.00  0.00     0.205 HD
HETATM   17  N5  UNL     1      38.708  36.322  67.492  1.00  0.00    -0.178 N 
ATOM     18  H5  UNL     1      39.244  35.852  66.762  1.00  0.00     0.185 HD
BRANCH  15  19
HETATM   19  N4  UNL     1      38.631  38.475  66.549  1.00  0.00    -0.233 N 
ATOM     20  H42 UNL     1      38.356  39.457  66.543  1.00  0.00     0.174 HD
ATOM     21  H41 UNL     1      39.162  38.285  65.699  1.00  0.00     0.174 HD
ENDBRANCH  15  19
ENDBRANCH  10  11
ENDBRANCH   3  10
BRANCH   1  22
HETATM   22  C4  UNL     1      34.387  31.879  68.183  1.00  0.00     0.277 C 
BRANCH  22  23
HETATM   23  N1  UNL     1      32.975  31.814  68.164  1.00  0.00     0.084 N 
HETATM   24  C3  UNL     1      32.489  30.553  68.630  1.00  0.00     0.309 C 
BRANCH  23  25
HETATM   25  C2  UNL     1      32.314  32.890  68.827  1.00  0.00     0.267 C 
HETATM   26  C1  UNL     1      31.545  33.815  67.921  1.00  0.00     0.037 C 
ENDBRANCH  23  25
ENDBRANCH  22  23
ENDBRANCH   1  22
TORSDOF 6
ENDMDL
