MODEL 1
REMARK VINA RESULT: -6.797747043      0.000      0.000
REMARK  4 active torsions:
REMARK  status: ('A' for Active; 'I' for Inactive)
REMARK    1  A    between atoms: C2_2  and  C3_3 
REMARK    2  A    between atoms: C3_3  and  N1_4 
REMARK    3  A    between atoms: C3_3  and  C10_15 
REMARK       I    between atoms: N1_4  and  C4_6 
REMARK       I    between atoms: C4_6  and  N2_8 
REMARK    4  A    between atoms: C10_15  and  N4_16 
ROOT
HETATM    1  C3  UNL     1      41.055  32.351   2.206  1.00  0.00     0.113 C 
ENDROOT
BRANCH   1   2
HETATM    2  C2  UNL     1      40.396  32.504   3.482  1.00  0.00     0.023 C 
HETATM    3  C1  UNL     1      40.315  33.745   4.260  1.00  0.00     0.007 C 
ENDBRANCH   1   2
BRANCH   1   4
HETATM    4  N1  UNL     1      41.798  31.036   2.295  1.00  0.00    -0.336 N 
HETATM    5  C4  UNL     1      43.191  31.017   2.368  1.00  0.00     0.318 C 
HETATM    6  O1  UNL     1      43.839  32.091   2.362  1.00  0.00    -0.247 OA
HETATM    7  N2  UNL     1      43.949  29.800   2.451  1.00  0.00    -0.331 N 
HETATM    8  C5  UNL     1      43.210  28.560   2.462  1.00  0.00     0.157 C 
HETATM    9  C9  UNL     1      45.382  29.812   2.518  1.00  0.00     0.157 C 
HETATM   10  C6  UNL     1      44.020  27.351   2.123  1.00  0.00     0.291 C 
HETATM   11  N3  UNL     1      45.333  27.374   2.745  1.00  0.00     0.087 N 
HETATM   12  C7  UNL     1      45.233  27.408   4.188  1.00  0.00     0.310 C 
HETATM   13  C8  UNL     1      46.058  28.524   2.231  1.00  0.00     0.291 C 
ATOM     14  H1  UNL     1      41.277  30.159   2.301  1.00  0.00     0.164 HD
ENDBRANCH   1   4
BRANCH   1  15
HETATM   15  C10 UNL     1      40.457  32.422   0.859  1.00  0.00     0.047 C 
HETATM   16  C13 UNL     1      41.520  33.208   0.043  1.00  0.00     0.033 C 
HETATM   17  C14 UNL     1      41.131  33.422  -1.371  1.00  0.00     0.002 C 
HETATM   18  C15 UNL     1      40.696  32.107  -1.978  1.00  0.00     0.000 C 
HETATM   19  C16 UNL     1      41.235  30.995  -1.104  1.00  0.00     0.002 C 
HETATM   20  C17 UNL     1      40.532  30.998   0.205  1.00  0.00     0.033 C 
BRANCH  15  21
HETATM   21  N4  UNL     1      39.193  32.905   0.693  1.00  0.00    -0.410 N 
HETATM   22  C11 UNL     1      37.995  32.204   0.712  1.00  0.00     0.143 C 
HETATM   23  C12 UNL     1      38.972  34.309   0.978  1.00  0.00     0.143 C 
ENDBRANCH  15  21
ENDBRANCH   1  15
TORSDOF 4
ENDMDL
MODEL 2
REMARK VINA RESULT: -6.743616932      1.965      3.412
REMARK  4 active torsions:
REMARK  status: ('A' for Active; 'I' for Inactive)
REMARK    1  A    between atoms: C2_2  and  C3_3 
REMARK    2  A    between atoms: C3_3  and  N1_4 
REMARK    3  A    between atoms: C3_3  and  C10_15 
REMARK       I    between atoms: N1_4  and  C4_6 
REMARK       I    between atoms: C4_6  and  N2_8 
REMARK    4  A    between atoms: C10_15  and  N4_16 
ROOT
HETATM    1  C3  UNL     1      41.547  30.268  -1.023  1.00  0.00     0.113 C 
ENDROOT
BRANCH   1   2
HETATM    2  C2  UNL     1      41.710  29.420  -2.179  1.00  0.00     0.023 C 
HETATM    3  C1  UNL     1      42.986  28.919  -2.701  1.00  0.00     0.007 C 
ENDBRANCH   1   2
BRANCH   1   4
HETATM    4  N1  UNL     1      42.688  29.907  -0.097  1.00  0.00    -0.336 N 
HETATM    5  C4  UNL     1      42.469  29.071   0.998  1.00  0.00     0.318 C 
HETATM    6  O1  UNL     1      41.324  28.611   1.223  1.00  0.00    -0.247 OA
HETATM    7  N2  UNL     1      43.512  28.696   1.911  1.00  0.00    -0.331 N 
HETATM    8  C5  UNL     1      44.834  29.217   1.656  1.00  0.00     0.157 C 
HETATM    9  C9  UNL     1      43.255  27.840   3.033  1.00  0.00     0.157 C 
HETATM   10  C6  UNL     1      45.761  29.161   2.827  1.00  0.00     0.291 C 
HETATM   11  N3  UNL     1      45.645  27.913   3.562  1.00  0.00     0.087 N 
HETATM   12  C7  UNL     1      45.969  26.776   2.728  1.00  0.00     0.310 C 
HETATM   13  C8  UNL     1      44.294  27.822   4.091  1.00  0.00     0.291 C 
ATOM     14  H1  UNL     1      43.622  30.276  -0.276  1.00  0.00     0.164 HD
ENDBRANCH   1   4
BRANCH   1  15
HETATM   15  C10 UNL     1      41.406  31.736  -0.985  1.00  0.00     0.047 C 
HETATM   16  C13 UNL     1      42.780  32.208  -0.436  1.00  0.00     0.033 C 
HETATM   17  C14 UNL     1      42.880  33.680  -0.293  1.00  0.00     0.002 C 
HETATM   18  C15 UNL     1      42.439  34.342  -1.580  1.00  0.00     0.000 C 
HETATM   19  C16 UNL     1      42.498  33.300  -2.676  1.00  0.00     0.002 C 
HETATM   20  C17 UNL     1      41.440  32.279  -2.457  1.00  0.00     0.033 C 
BRANCH  15  21
HETATM   21  N4  UNL     1      40.350  32.310  -0.341  1.00  0.00    -0.410 N 
HETATM   22  C11 UNL     1      39.194  32.845  -0.893  1.00  0.00     0.143 C 
HETATM   23  C12 UNL     1      40.137  31.947   1.046  1.00  0.00     0.143 C 
ENDBRANCH  15  21
ENDBRANCH   1  15
TORSDOF 4
ENDMDL
MODEL 3
REMARK VINA RESULT: -6.670989013      0.794      2.047
REMARK  4 active torsions:
REMARK  status: ('A' for Active; 'I' for Inactive)
REMARK    1  A    between atoms: C2_2  and  C3_3 
REMARK    2  A    between atoms: C3_3  and  N1_4 
REMARK    3  A    between atoms: C3_3  and  C10_15 
REMARK       I    between atoms: N1_4  and  C4_6 
REMARK       I    between atoms: C4_6  and  N2_8 
REMARK    4  A    between atoms: C10_15  and  N4_16 
ROOT
HETATM    1  C3  UNL     1      41.078  32.429   2.597  1.00  0.00     0.113 C 
ENDROOT
BRANCH   1   2
HETATM    2  C2  UNL     1      40.376  32.486   3.858  1.00  0.00     0.023 C 
HETATM    3  C1  UNL     1      40.110  33.701   4.635  1.00  0.00     0.007 C 
ENDBRANCH   1   2
BRANCH   1   4
HETATM    4  N1  UNL     1      41.786  31.093   2.592  1.00  0.00    -0.336 N 
HETATM    5  C4  UNL     1      43.177  31.033   2.501  1.00  0.00     0.318 C 
HETATM    6  O1  UNL     1      43.851  32.087   2.423  1.00  0.00    -0.247 OA
HETATM    7  N2  UNL     1      43.903  29.794   2.489  1.00  0.00    -0.331 N 
HETATM    8  C5  UNL     1      43.134  28.575   2.583  1.00  0.00     0.157 C 
HETATM    9  C9  UNL     1      45.334  29.764   2.386  1.00  0.00     0.157 C 
HETATM   10  C6  UNL     1      43.862  27.346   2.145  1.00  0.00     0.291 C 
HETATM   11  N3  UNL     1      45.239  27.327   2.608  1.00  0.00     0.087 N 
HETATM   12  C7  UNL     1      45.311  27.353   4.053  1.00  0.00     0.310 C 
HETATM   13  C8  UNL     1      45.933  28.459   2.017  1.00  0.00     0.291 C 
ATOM     14  H1  UNL     1      41.244  30.231   2.657  1.00  0.00     0.164 HD
ENDBRANCH   1   4
BRANCH   1  15
HETATM   15  C10 UNL     1      40.530  32.636   1.242  1.00  0.00     0.047 C 
HETATM   16  C13 UNL     1      39.064  32.143   1.376  1.00  0.00     0.033 C 
HETATM   17  C14 UNL     1      38.295  32.241   0.113  1.00  0.00     0.002 C 
HETATM   18  C15 UNL     1      38.457  33.627  -0.469  1.00  0.00     0.000 C 
HETATM   19  C16 UNL     1      38.944  34.537   0.638  1.00  0.00     0.002 C 
HETATM   20  C17 UNL     1      40.336  34.175   1.012  1.00  0.00     0.033 C 
BRANCH  15  21
HETATM   21  N4  UNL     1      41.170  32.116   0.156  1.00  0.00    -0.410 N 
HETATM   22  C11 UNL     1      40.849  30.974  -0.566  1.00  0.00     0.143 C 
HETATM   23  C12 UNL     1      41.971  33.022  -0.644  1.00  0.00     0.143 C 
ENDBRANCH  15  21
ENDBRANCH   1  15
TORSDOF 4
ENDMDL
MODEL 4
REMARK VINA RESULT: -6.635874831      1.828      3.620
REMARK  4 active torsions:
REMARK  status: ('A' for Active; 'I' for Inactive)
REMARK    1  A    between atoms: C2_2  and  C3_3 
REMARK    2  A    between atoms: C3_3  and  N1_4 
REMARK    3  A    between atoms: C3_3  and  C10_15 
REMARK       I    between atoms: N1_4  and  C4_6 
REMARK       I    between atoms: C4_6  and  N2_8 
REMARK    4  A    between atoms: C10_15  and  N4_16 
ROOT
HETATM    1  C3  UNL     1      41.439  30.305  -0.797  1.00  0.00     0.113 C 
ENDROOT
BRANCH   1   2
HETATM    2  C2  UNL     1      41.703  29.681  -2.072  1.00  0.00     0.023 C 
HETATM    3  C1  UNL     1      42.982  29.710  -2.790  1.00  0.00     0.007 C 
ENDBRANCH   1   2
BRANCH   1   4
HETATM    4  N1  UNL     1      42.610  29.930   0.083  1.00  0.00    -0.336 N 
HETATM    5  C4  UNL     1      42.434  29.061   1.159  1.00  0.00     0.318 C 
HETATM    6  O1  UNL     1      41.301  28.582   1.406  1.00  0.00    -0.247 OA
HETATM    7  N2  UNL     1      43.508  28.672   2.030  1.00  0.00    -0.331 N 
HETATM    8  C5  UNL     1      44.816  29.215   1.750  1.00  0.00     0.157 C 
HETATM    9  C9  UNL     1      43.294  27.781   3.134  1.00  0.00     0.157 C 
HETATM   10  C6  UNL     1      45.779  29.136   2.891  1.00  0.00     0.291 C 
HETATM   11  N3  UNL     1      45.698  27.867   3.593  1.00  0.00     0.087 N 
HETATM   12  C7  UNL     1      46.009  26.758   2.716  1.00  0.00     0.310 C 
HETATM   13  C8  UNL     1      44.365  27.745   4.159  1.00  0.00     0.291 C 
ATOM     14  H1  UNL     1      43.535  30.315  -0.112  1.00  0.00     0.164 HD
ENDBRANCH   1   4
BRANCH   1  15
HETATM   15  C10 UNL     1      41.127  31.722  -0.525  1.00  0.00     0.047 C 
HETATM   16  C13 UNL     1      39.826  31.641   0.318  1.00  0.00     0.033 C 
HETATM   17  C14 UNL     1      39.299  32.969   0.711  1.00  0.00     0.002 C 
HETATM   18  C15 UNL     1      40.411  33.792   1.322  1.00  0.00     0.000 C 
HETATM   19  C16 UNL     1      41.515  32.841   1.732  1.00  0.00     0.002 C 
HETATM   20  C17 UNL     1      42.160  32.267   0.522  1.00  0.00     0.033 C 
BRANCH  15  21
HETATM   21  N4  UNL     1      41.043  32.616  -1.550  1.00  0.00    -0.410 N 
HETATM   22  C11 UNL     1      42.052  33.402  -2.092  1.00  0.00     0.143 C 
HETATM   23  C12 UNL     1      39.960  32.445  -2.499  1.00  0.00     0.143 C 
ENDBRANCH  15  21
ENDBRANCH   1  15
TORSDOF 4
ENDMDL
MODEL 5
REMARK VINA RESULT: -6.632286982      1.700      3.390
REMARK  4 active torsions:
REMARK  status: ('A' for Active; 'I' for Inactive)
REMARK    1  A    between atoms: C2_2  and  C3_3 
REMARK    2  A    between atoms: C3_3  and  N1_4 
REMARK    3  A    between atoms: C3_3  and  C10_15 
REMARK       I    between atoms: N1_4  and  C4_6 
REMARK       I    between atoms: C4_6  and  N2_8 
REMARK    4  A    between atoms: C10_15  and  N4_16 
ROOT
HETATM    1  C3  UNL     1      41.183  30.514  -0.611  1.00  0.00     0.113 C 
ENDROOT
BRANCH   1   2
HETATM    2  C2  UNL     1      41.517  30.178  -1.974  1.00  0.00     0.023 C 
HETATM    3  C1  UNL     1      42.426  29.106  -2.393  1.00  0.00     0.007 C 
ENDBRANCH   1   2
BRANCH   1   4
HETATM    4  N1  UNL     1      42.395  30.125   0.206  1.00  0.00    -0.336 N 
HETATM    5  C4  UNL     1      42.283  29.185   1.230  1.00  0.00     0.318 C 
HETATM    6  O1  UNL     1      41.175  28.654   1.482  1.00  0.00    -0.247 OA
HETATM    7  N2  UNL     1      43.398  28.780   2.040  1.00  0.00    -0.331 N 
HETATM    8  C5  UNL     1      44.678  29.383   1.753  1.00  0.00     0.157 C 
HETATM    9  C9  UNL     1      43.250  27.815   3.092  1.00  0.00     0.157 C 
HETATM   10  C6  UNL     1      45.681  29.266   2.855  1.00  0.00     0.291 C 
HETATM   11  N3  UNL     1      45.665  27.953   3.478  1.00  0.00     0.087 N 
HETATM   12  C7  UNL     1      45.980  26.912   2.523  1.00  0.00     0.310 C 
HETATM   13  C8  UNL     1      44.356  27.752   4.077  1.00  0.00     0.291 C 
ATOM     14  H1  UNL     1      43.300  30.553   0.006  1.00  0.00     0.164 HD
ENDBRANCH   1   4
BRANCH   1  15
HETATM   15  C10 UNL     1      40.701  31.806  -0.085  1.00  0.00     0.047 C 
HETATM   16  C13 UNL     1      40.134  32.511  -1.347  1.00  0.00     0.033 C 
HETATM   17  C14 UNL     1      39.592  33.862  -1.069  1.00  0.00     0.002 C 
HETATM   18  C15 UNL     1      38.646  33.792   0.108  1.00  0.00     0.000 C 
HETATM   19  C16 UNL     1      38.238  32.346   0.287  1.00  0.00     0.002 C 
HETATM   20  C17 UNL     1      39.402  31.549   0.756  1.00  0.00     0.033 C 
BRANCH  15  21
HETATM   21  N4  UNL     1      41.532  32.605   0.643  1.00  0.00    -0.410 N 
HETATM   22  C11 UNL     1      41.625  32.717   2.025  1.00  0.00     0.143 C 
HETATM   23  C12 UNL     1      42.757  33.051   0.008  1.00  0.00     0.143 C 
ENDBRANCH  15  21
ENDBRANCH   1  15
TORSDOF 4
ENDMDL
