MODEL 1
REMARK VINA RESULT: -7.289705976      0.000      0.000
REMARK  4 active torsions:
REMARK  status: ('A' for Active; 'I' for Inactive)
REMARK    1  A    between atoms: C2_2  and  C4_4 
REMARK    2  A    between atoms: C4_4  and  N1_5 
REMARK    3  A    between atoms: C13_16  and  C14_17 
REMARK       I    between atoms: C14_17  and  N3_19 
REMARK    4  A    between atoms: N3_19  and  C15_21 
ROOT
HETATM    1  N1  UNL     1      43.692  28.759   1.634  1.00  0.00     0.130 N 
HETATM    2  C5  UNL     1      44.858  27.919   1.681  1.00  0.00     0.314 C 
HETATM    3  C6  UNL     1      45.661  28.409   2.861  1.00  0.00     0.094 C 
HETATM    4  C7  UNL     1      45.448  27.622   4.104  1.00  0.00     0.070 C 
HETATM    5  C8  UNL     1      46.334  26.423   4.172  1.00  0.00     0.275 C 
HETATM    6  N2  UNL     1      47.721  26.809   4.335  1.00  0.00     0.088 N 
HETATM    7  C9  UNL     1      47.974  26.953   5.742  1.00  0.00     0.310 C 
HETATM    8  C10 UNL     1      48.024  28.055   3.665  1.00  0.00     0.221 C 
HETATM    9  C11 UNL     1      49.434  27.898   3.083  1.00  0.00     0.043 C 
HETATM   10  C12 UNL     1      47.118  28.323   2.496  1.00  0.00     0.075 C 
HETATM   11  O1  UNL     1      45.210  29.733   2.956  1.00  0.00    -0.337 OA
HETATM   12  C13 UNL     1      43.852  29.560   2.840  1.00  0.00     0.453 C 
ENDROOT
BRANCH   1  13
HETATM   13  C4  UNL     1      43.627  29.547   0.435  1.00  0.00     0.280 C 
BRANCH  13  14
HETATM   14  C2  UNL     1      42.619  28.887  -0.500  1.00  0.00     0.006 C 
HETATM   15  C1  UNL     1      41.558  29.901  -0.881  1.00  0.00     0.011 C 
HETATM   16  C3  UNL     1      43.293  28.406  -1.773  1.00  0.00     0.011 C 
ENDBRANCH  13  14
ENDBRANCH   1  13
BRANCH  12  17
HETATM   17  C14 UNL     1      43.074  30.814   2.716  1.00  0.00     0.277 C 
HETATM   18  O2  UNL     1      43.754  31.860   2.507  1.00  0.00    -0.269 OA
HETATM   19  N3  UNL     1      41.688  30.911   2.814  1.00  0.00    -0.353 N 
ATOM     20  H3  UNL     1      41.137  30.069   2.982  1.00  0.00     0.163 HD
BRANCH  19  21
HETATM   21  C15 UNL     1      41.017  32.179   2.682  1.00  0.00     0.076 C 
HETATM   22  C16 UNL     1      40.368  32.584   4.007  1.00  0.00     0.032 C 
HETATM   23  C17 UNL     1      39.985  32.169   1.593  1.00  0.00     0.032 C 
ENDBRANCH  19  21
ENDBRANCH  12  17
TORSDOF 4
ENDMDL
MODEL 2
REMARK VINA RESULT: -7.237561219      2.085      7.221
REMARK  4 active torsions:
REMARK  status: ('A' for Active; 'I' for Inactive)
REMARK    1  A    between atoms: C2_2  and  C4_4 
REMARK    2  A    between atoms: C4_4  and  N1_5 
REMARK    3  A    between atoms: C13_16  and  C14_17 
REMARK       I    between atoms: C14_17  and  N3_19 
REMARK    4  A    between atoms: N3_19  and  C15_21 
ROOT
HETATM    1  N1  UNL     1      46.984  26.417   2.840  1.00  0.00     0.130 N 
HETATM    2  C5  UNL     1      45.601  26.570   2.479  1.00  0.00     0.314 C 
HETATM    3  C6  UNL     1      45.354  28.059   2.449  1.00  0.00     0.094 C 
HETATM    4  C7  UNL     1      45.433  28.656   1.091  1.00  0.00     0.070 C 
HETATM    5  C8  UNL     1      44.137  28.563   0.356  1.00  0.00     0.275 C 
HETATM    6  N2  UNL     1      43.133  29.414   0.963  1.00  0.00     0.088 N 
HETATM    7  C9  UNL     1      43.256  30.722   0.382  1.00  0.00     0.310 C 
HETATM    8  C10 UNL     1      43.294  29.511   2.398  1.00  0.00     0.221 C 
HETATM    9  C11 UNL     1      41.879  29.537   2.988  1.00  0.00     0.043 C 
HETATM   10  C12 UNL     1      43.973  28.309   2.991  1.00  0.00     0.075 C 
HETATM   11  O1  UNL     1      46.359  28.510   3.316  1.00  0.00    -0.337 OA
HETATM   12  C13 UNL     1      47.443  27.800   2.860  1.00  0.00     0.453 C 
ENDROOT
BRANCH   1  13
HETATM   13  C4  UNL     1      47.156  25.744   4.097  1.00  0.00     0.280 C 
BRANCH  13  14
HETATM   14  C2  UNL     1      47.794  24.389   3.814  1.00  0.00     0.006 C 
HETATM   15  C1  UNL     1      46.846  23.559   2.971  1.00  0.00     0.011 C 
HETATM   16  C3  UNL     1      49.093  24.550   3.044  1.00  0.00     0.011 C 
ENDBRANCH  13  14
ENDBRANCH   1  13
BRANCH  12  17
HETATM   17  C14 UNL     1      48.658  27.913   3.698  1.00  0.00     0.277 C 
HETATM   18  O2  UNL     1      48.456  28.018   4.943  1.00  0.00    -0.269 OA
HETATM   19  N3  UNL     1      49.966  27.912   3.219  1.00  0.00    -0.353 N 
ATOM     20  H3  UNL     1      50.132  27.827   2.216  1.00  0.00     0.163 HD
BRANCH  19  21
HETATM   21  C15 UNL     1      51.089  28.030   4.114  1.00  0.00     0.076 C 
HETATM   22  C16 UNL     1      52.336  28.486   3.354  1.00  0.00     0.032 C 
HETATM   23  C17 UNL     1      51.377  26.748   4.840  1.00  0.00     0.032 C 
ENDBRANCH  19  21
ENDBRANCH  12  17
TORSDOF 4
ENDMDL
MODEL 3
REMARK VINA RESULT: -7.087746091      2.098      3.690
REMARK  4 active torsions:
REMARK  status: ('A' for Active; 'I' for Inactive)
REMARK    1  A    between atoms: C2_2  and  C4_4 
REMARK    2  A    between atoms: C4_4  and  N1_5 
REMARK    3  A    between atoms: C13_16  and  C14_17 
REMARK       I    between atoms: C14_17  and  N3_19 
REMARK    4  A    between atoms: N3_19  and  C15_21 
ROOT
HETATM    1  N1  UNL     1      44.231  28.763   2.158  1.00  0.00     0.130 N 
HETATM    2  C5  UNL     1      44.896  28.054   3.217  1.00  0.00     0.314 C 
HETATM    3  C6  UNL     1      46.093  27.398   2.573  1.00  0.00     0.094 C 
HETATM    4  C7  UNL     1      47.358  28.160   2.734  1.00  0.00     0.070 C 
HETATM    5  C8  UNL     1      48.048  27.845   4.019  1.00  0.00     0.275 C 
HETATM    6  N2  UNL     1      48.553  26.487   4.019  1.00  0.00     0.088 N 
HETATM    7  C9  UNL     1      49.865  26.507   3.434  1.00  0.00     0.310 C 
HETATM    8  C10 UNL     1      47.707  25.588   3.264  1.00  0.00     0.221 C 
HETATM    9  C11 UNL     1      47.700  24.260   4.030  1.00  0.00     0.043 C 
HETATM   10  C12 UNL     1      46.276  26.046   3.207  1.00  0.00     0.075 C 
HETATM   11  O1  UNL     1      45.661  27.310   1.242  1.00  0.00    -0.337 OA
HETATM   12  C13 UNL     1      45.149  28.569   1.045  1.00  0.00     0.453 C 
ENDROOT
BRANCH   1  13
HETATM   13  C4  UNL     1      42.911  28.259   1.900  1.00  0.00     0.280 C 
BRANCH  13  14
HETATM   14  C2  UNL     1      41.918  29.372   2.216  1.00  0.00     0.006 C 
HETATM   15  C1  UNL     1      42.681  30.630   2.583  1.00  0.00     0.011 C 
HETATM   16  C3  UNL     1      41.047  29.681   1.011  1.00  0.00     0.011 C 
ENDBRANCH  13  14
ENDBRANCH   1  13
BRANCH  12  17
HETATM   17  C14 UNL     1      44.430  28.755  -0.237  1.00  0.00     0.277 C 
HETATM   18  O2  UNL     1      44.131  27.692  -0.854  1.00  0.00    -0.269 OA
HETATM   19  N3  UNL     1      44.075  29.984  -0.787  1.00  0.00    -0.353 N 
ATOM     20  H3  UNL     1      44.314  30.843  -0.290  1.00  0.00     0.163 HD
BRANCH  19  21
HETATM   21  C15 UNL     1      43.377  30.066  -2.044  1.00  0.00     0.076 C 
HETATM   22  C16 UNL     1      44.367  30.222  -3.199  1.00  0.00     0.032 C 
HETATM   23  C17 UNL     1      42.381  31.189  -2.073  1.00  0.00     0.032 C 
ENDBRANCH  19  21
ENDBRANCH  12  17
TORSDOF 4
ENDMDL
MODEL 4
REMARK VINA RESULT: -6.821469476      2.549      7.598
REMARK  4 active torsions:
REMARK  status: ('A' for Active; 'I' for Inactive)
REMARK    1  A    between atoms: C2_2  and  C4_4 
REMARK    2  A    between atoms: C4_4  and  N1_5 
REMARK    3  A    between atoms: C13_16  and  C14_17 
REMARK       I    between atoms: C14_17  and  N3_19 
REMARK    4  A    between atoms: N3_19  and  C15_21 
ROOT
HETATM    1  N1  UNL     1      47.580  27.605   3.795  1.00  0.00     0.130 N 
HETATM    2  C5  UNL     1      46.837  28.675   3.187  1.00  0.00     0.314 C 
HETATM    3  C6  UNL     1      45.645  28.017   2.534  1.00  0.00     0.094 C 
HETATM    4  C7  UNL     1      44.407  28.064   3.354  1.00  0.00     0.070 C 
HETATM    5  C8  UNL     1      43.645  29.332   3.155  1.00  0.00     0.275 C 
HETATM    6  N2  UNL     1      43.084  29.397   1.821  1.00  0.00     0.088 N 
HETATM    7  C9  UNL     1      41.803  28.748   1.851  1.00  0.00     0.310 C 
HETATM    8  C10 UNL     1      43.926  28.747   0.840  1.00  0.00     0.221 C 
HETATM    9  C11 UNL     1      43.842  29.599  -0.432  1.00  0.00     0.043 C 
HETATM   10  C12 UNL     1      45.376  28.731   1.237  1.00  0.00     0.075 C 
HETATM   11  O1  UNL     1      46.136  26.718   2.339  1.00  0.00    -0.337 OA
HETATM   12  C13 UNL     1      46.708  26.463   3.560  1.00  0.00     0.453 C 
ENDROOT
BRANCH   1  13
HETATM   13  C4  UNL     1      48.888  27.447   3.224  1.00  0.00     0.280 C 
BRANCH  13  14
HETATM   14  C2  UNL     1      49.899  28.023   4.210  1.00  0.00     0.006 C 
HETATM   15  C1  UNL     1      50.255  26.961   5.233  1.00  0.00     0.011 C 
HETATM   16  C3  UNL     1      51.174  28.441   3.499  1.00  0.00     0.011 C 
ENDBRANCH  13  14
ENDBRANCH   1  13
BRANCH  12  17
HETATM   17  C14 UNL     1      47.493  25.209   3.630  1.00  0.00     0.277 C 
HETATM   18  O2  UNL     1      47.301  24.501   4.661  1.00  0.00    -0.269 OA
HETATM   19  N3  UNL     1      48.401  24.776   2.666  1.00  0.00    -0.353 N 
ATOM     20  H3  UNL     1      48.557  25.345   1.834  1.00  0.00     0.163 HD
BRANCH  19  21
HETATM   21  C15 UNL     1      49.122  23.539   2.823  1.00  0.00     0.076 C 
HETATM   22  C16 UNL     1      50.593  23.724   2.446  1.00  0.00     0.032 C 
HETATM   23  C17 UNL     1      48.527  22.424   2.013  1.00  0.00     0.032 C 
ENDBRANCH  19  21
ENDBRANCH  12  17
TORSDOF 4
ENDMDL
MODEL 5
REMARK VINA RESULT: -6.415077795      1.852      6.676
REMARK  4 active torsions:
REMARK  status: ('A' for Active; 'I' for Inactive)
REMARK    1  A    between atoms: C2_2  and  C4_4 
REMARK    2  A    between atoms: C4_4  and  N1_5 
REMARK    3  A    between atoms: C13_16  and  C14_17 
REMARK       I    between atoms: C14_17  and  N3_19 
REMARK    4  A    between atoms: N3_19  and  C15_21 
ROOT
HETATM    1  N1  UNL     1      43.709  29.629   0.493  1.00  0.00     0.130 N 
HETATM    2  C5  UNL     1      42.642  30.384  -0.106  1.00  0.00     0.314 C 
HETATM    3  C6  UNL     1      41.956  31.090   1.039  1.00  0.00     0.094 C 
HETATM    4  C7  UNL     1      42.399  32.494   1.235  1.00  0.00     0.070 C 
HETATM    5  C8  UNL     1      41.644  33.450   0.372  1.00  0.00     0.275 C 
HETATM    6  N2  UNL     1      40.260  33.546   0.790  1.00  0.00     0.088 N 
HETATM    7  C9  UNL     1      40.178  34.555   1.809  1.00  0.00     0.310 C 
HETATM    8  C10 UNL     1      39.758  32.294   1.315  1.00  0.00     0.221 C 
HETATM    9  C11 UNL     1      38.306  32.179   0.837  1.00  0.00     0.043 C 
HETATM   10  C12 UNL     1      40.478  31.099   0.757  1.00  0.00     0.075 C 
HETATM   11  O1  UNL     1      42.291  30.245   2.108  1.00  0.00    -0.337 OA
HETATM   12  C13 UNL     1      43.633  30.053   1.884  1.00  0.00     0.453 C 
ENDROOT
BRANCH   1  13
HETATM   13  C4  UNL     1      43.547  28.213   0.322  1.00  0.00     0.280 C 
BRANCH  13  14
HETATM   14  C2  UNL     1      44.652  27.727  -0.608  1.00  0.00     0.006 C 
HETATM   15  C1  UNL     1      44.326  26.322  -1.077  1.00  0.00     0.011 C 
HETATM   16  C3  UNL     1      44.763  28.620  -1.832  1.00  0.00     0.011 C 
ENDBRANCH  13  14
ENDBRANCH   1  13
BRANCH  12  17
HETATM   17  C14 UNL     1      44.269  29.038   2.754  1.00  0.00     0.277 C 
HETATM   18  O2  UNL     1      43.485  28.408   3.522  1.00  0.00    -0.269 OA
HETATM   19  N3  UNL     1      45.630  28.744   2.781  1.00  0.00    -0.353 N 
ATOM     20  H3  UNL     1      46.264  29.249   2.162  1.00  0.00     0.163 HD
BRANCH  19  21
HETATM   21  C15 UNL     1      46.159  27.738   3.666  1.00  0.00     0.076 C 
HETATM   22  C16 UNL     1      47.536  28.152   4.188  1.00  0.00     0.032 C 
HETATM   23  C17 UNL     1      46.249  26.390   3.010  1.00  0.00     0.032 C 
ENDBRANCH  19  21
ENDBRANCH  12  17
TORSDOF 4
ENDMDL
