MODEL 1
REMARK VINA RESULT: -8.451469262      0.000      0.000
REMARK  5 active torsions:
REMARK  status: ('A' for Active; 'I' for Inactive)
REMARK    1  A    between atoms: C1_2  and  C2_3 
REMARK       I    between atoms: C1_2  and  N1_12 
REMARK    2  A    between atoms: C2_3  and  O2_4 
REMARK    3  A    between atoms: O2_4  and  C3_5 
REMARK    4  A    between atoms: C3_5  and  C4_7 
REMARK    5  A    between atoms: N1_12  and  C8_14 
ROOT
HETATM    1  O1  UNL     1      47.138  25.819   4.596  1.00  0.00    -0.271 OA
HETATM    2  C1  UNL     1      46.959  27.016   4.253  1.00  0.00     0.242 C 
HETATM    3  N1  UNL     1      48.046  27.869   3.911  1.00  0.00    -0.350 N 
ATOM      4  H1  UNL     1      47.829  28.829   3.643  1.00  0.00     0.163 HD
ENDROOT
BRANCH   3   5
HETATM    5  C8  UNL     1      49.417  27.477   3.916  1.00  0.00     0.034 C 
HETATM    6  C9  UNL     1      49.701  26.365   2.910  1.00  0.00     0.035 C 
HETATM    7  C10 UNL     1      51.182  26.092   2.840  1.00  0.00    -0.012 C 
HETATM    8  C11 UNL     1      51.903  27.338   2.441  1.00  0.00     0.009 C 
HETATM    9  C15 UNL     1      51.642  25.580   4.175  1.00  0.00     0.009 C 
HETATM   10  C12 UNL     1      51.738  28.373   3.531  1.00  0.00    -0.012 C 
HETATM   11  C13 UNL     1      52.188  27.844   4.886  1.00  0.00     0.009 C 
HETATM   12  C17 UNL     1      50.283  28.689   3.635  1.00  0.00     0.035 C 
HETATM   13  C14 UNL     1      51.343  26.652   5.200  1.00  0.00    -0.012 C 
HETATM   14  C16 UNL     1      49.873  26.937   5.258  1.00  0.00     0.035 C 
ENDBRANCH   3   5
BRANCH   2  15
HETATM   15  C2  UNL     1      45.559  27.510   4.217  1.00  0.00     0.281 C 
BRANCH  15  16
HETATM   16  O2  UNL     1      45.405  28.823   3.798  1.00  0.00    -0.310 OA
BRANCH  16  17
HETATM   17  C3  UNL     1      45.128  29.247   2.528  1.00  0.00     0.288 C 
HETATM   18  O3  UNL     1      45.998  29.158   1.640  1.00  0.00    -0.262 OA
BRANCH  17  19
HETATM   19  C4  UNL     1      43.804  29.809   2.218  1.00  0.00     0.221 C 
HETATM   20  C5  UNL     1      43.978  31.262   1.830  1.00  0.00     0.044 C 
HETATM   21  C6  UNL     1      42.565  31.795   2.037  1.00  0.00     0.029 C 
HETATM   22  C7  UNL     1      41.933  30.699   2.862  1.00  0.00     0.169 C 
HETATM   23  O4  UNL     1      42.974  29.899   3.324  1.00  0.00    -0.376 OA
ENDBRANCH  17  19
ENDBRANCH  16  17
ENDBRANCH  15  16
ENDBRANCH   2  15
TORSDOF 5
ENDMDL
MODEL 2
REMARK VINA RESULT: -8.341759988      0.100      1.571
REMARK  5 active torsions:
REMARK  status: ('A' for Active; 'I' for Inactive)
REMARK    1  A    between atoms: C1_2  and  C2_3 
REMARK       I    between atoms: C1_2  and  N1_12 
REMARK    2  A    between atoms: C2_3  and  O2_4 
REMARK    3  A    between atoms: O2_4  and  C3_5 
REMARK    4  A    between atoms: C3_5  and  C4_7 
REMARK    5  A    between atoms: N1_12  and  C8_14 
ROOT
HETATM    1  O1  UNL     1      47.227  25.840   4.638  1.00  0.00    -0.271 OA
HETATM    2  C1  UNL     1      47.003  27.020   4.267  1.00  0.00     0.242 C 
HETATM    3  N1  UNL     1      48.057  27.908   3.910  1.00  0.00    -0.350 N 
ATOM      4  H1  UNL     1      47.803  28.852   3.619  1.00  0.00     0.163 HD
ENDROOT
BRANCH   3   5
HETATM    5  C8  UNL     1      49.442  27.572   3.932  1.00  0.00     0.034 C 
HETATM    6  C9  UNL     1      49.892  27.073   5.302  1.00  0.00     0.035 C 
HETATM    7  C10 UNL     1      51.317  26.585   5.237  1.00  0.00    -0.012 C 
HETATM    8  C11 UNL     1      51.425  25.485   4.233  1.00  0.00     0.009 C 
HETATM    9  C15 UNL     1      52.209  27.746   4.898  1.00  0.00     0.009 C 
HETATM   10  C12 UNL     1      51.130  26.043   2.858  1.00  0.00    -0.012 C 
HETATM   11  C13 UNL     1      52.023  27.230   2.526  1.00  0.00     0.009 C 
HETATM   12  C17 UNL     1      49.720  26.531   2.865  1.00  0.00     0.035 C 
HETATM   13  C14 UNL     1      51.765  28.282   3.555  1.00  0.00    -0.012 C 
HETATM   14  C16 UNL     1      50.342  28.750   3.613  1.00  0.00     0.035 C 
ENDBRANCH   3   5
BRANCH   2  15
HETATM   15  C2  UNL     1      45.585  27.457   4.212  1.00  0.00     0.281 C 
BRANCH  15  16
HETATM   16  O2  UNL     1      45.385  28.773   3.824  1.00  0.00    -0.310 OA
BRANCH  16  17
HETATM   17  C3  UNL     1      45.123  29.220   2.560  1.00  0.00     0.288 C 
HETATM   18  O3  UNL     1      46.004  29.151   1.681  1.00  0.00    -0.262 OA
BRANCH  17  19
HETATM   19  C4  UNL     1      43.801  29.784   2.242  1.00  0.00     0.221 C 
HETATM   20  C5  UNL     1      43.981  31.231   1.833  1.00  0.00     0.044 C 
HETATM   21  C6  UNL     1      42.571  31.772   2.033  1.00  0.00     0.029 C 
HETATM   22  C7  UNL     1      41.935  30.692   2.876  1.00  0.00     0.169 C 
HETATM   23  O4  UNL     1      42.973  29.894   3.348  1.00  0.00    -0.376 OA
ENDBRANCH  17  19
ENDBRANCH  16  17
ENDBRANCH  15  16
ENDBRANCH   2  15
TORSDOF 5
ENDMDL
MODEL 3
REMARK VINA RESULT: -8.256824230      1.257      2.067
REMARK  5 active torsions:
REMARK  status: ('A' for Active; 'I' for Inactive)
REMARK    1  A    between atoms: C1_2  and  C2_3 
REMARK       I    between atoms: C1_2  and  N1_12 
REMARK    2  A    between atoms: C2_3  and  O2_4 
REMARK    3  A    between atoms: O2_4  and  C3_5 
REMARK    4  A    between atoms: C3_5  and  C4_7 
REMARK    5  A    between atoms: N1_12  and  C8_14 
ROOT
HETATM    1  O1  UNL     1      46.974  26.130   4.437  1.00  0.00    -0.271 OA
HETATM    2  C1  UNL     1      46.910  27.343   4.112  1.00  0.00     0.242 C 
HETATM    3  N1  UNL     1      48.077  28.111   3.845  1.00  0.00    -0.350 N 
ATOM      4  H1  UNL     1      47.952  29.091   3.588  1.00  0.00     0.163 HD
ENDROOT
BRANCH   3   5
HETATM    5  C8  UNL     1      49.411  27.610   3.910  1.00  0.00     0.034 C 
HETATM    6  C9  UNL     1      49.638  26.452   2.942  1.00  0.00     0.035 C 
HETATM    7  C10 UNL     1      51.094  26.059   2.933  1.00  0.00    -0.012 C 
HETATM    8  C11 UNL     1      51.928  27.231   2.533  1.00  0.00     0.009 C 
HETATM    9  C15 UNL     1      51.462  25.545   4.296  1.00  0.00     0.009 C 
HETATM   10  C12 UNL     1      51.809  28.304   3.593  1.00  0.00    -0.012 C 
HETATM   11  C13 UNL     1      52.166  27.775   4.975  1.00  0.00     0.009 C 
HETATM   12  C17 UNL     1      50.383  28.739   3.634  1.00  0.00     0.035 C 
HETATM   13  C14 UNL     1      51.216  26.664   5.285  1.00  0.00    -0.012 C 
HETATM   14  C16 UNL     1      49.773  27.069   5.280  1.00  0.00     0.035 C 
ENDBRANCH   3   5
BRANCH   2  15
HETATM   15  C2  UNL     1      45.557  27.950   4.017  1.00  0.00     0.281 C 
BRANCH  15  16
HETATM   16  O2  UNL     1      45.480  29.106   3.255  1.00  0.00    -0.310 OA
BRANCH  16  17
HETATM   17  C3  UNL     1      44.404  29.534   2.529  1.00  0.00     0.288 C 
HETATM   18  O3  UNL     1      43.577  30.312   3.042  1.00  0.00    -0.262 OA
BRANCH  17  19
HETATM   19  C4  UNL     1      44.227  29.071   1.142  1.00  0.00     0.221 C 
HETATM   20  C5  UNL     1      43.177  27.979   1.132  1.00  0.00     0.044 C 
HETATM   21  C6  UNL     1      43.475  27.297  -0.198  1.00  0.00     0.029 C 
HETATM   22  C7  UNL     1      44.848  27.833  -0.528  1.00  0.00     0.169 C 
HETATM   23  O4  UNL     1      45.338  28.413   0.639  1.00  0.00    -0.376 OA
ENDBRANCH  17  19
ENDBRANCH  16  17
ENDBRANCH  15  16
ENDBRANCH   2  15
TORSDOF 5
ENDMDL
MODEL 4
REMARK VINA RESULT: -8.244163493      2.326      6.985
REMARK  5 active torsions:
REMARK  status: ('A' for Active; 'I' for Inactive)
REMARK    1  A    between atoms: C1_2  and  C2_3 
REMARK       I    between atoms: C1_2  and  N1_12 
REMARK    2  A    between atoms: C2_3  and  O2_4 
REMARK    3  A    between atoms: O2_4  and  C3_5 
REMARK    4  A    between atoms: C3_5  and  C4_7 
REMARK    5  A    between atoms: N1_12  and  C8_14 
ROOT
HETATM    1  O1  UNL     1      47.608  28.801   4.661  1.00  0.00    -0.271 OA
HETATM    2  C1  UNL     1      47.649  27.554   4.502  1.00  0.00     0.242 C 
HETATM    3  N1  UNL     1      46.704  26.871   3.687  1.00  0.00    -0.350 N 
ATOM      4  H1  UNL     1      46.794  25.858   3.603  1.00  0.00     0.163 HD
ENDROOT
BRANCH   3   5
HETATM    5  C8  UNL     1      45.638  27.500   2.978  1.00  0.00     0.034 C 
HETATM    6  C9  UNL     1      44.548  28.014   3.915  1.00  0.00     0.035 C 
HETATM    7  C10 UNL     1      43.525  28.804   3.140  1.00  0.00    -0.012 C 
HETATM    8  C11 UNL     1      44.191  29.952   2.455  1.00  0.00     0.009 C 
HETATM    9  C15 UNL     1      42.843  27.886   2.166  1.00  0.00     0.009 C 
HETATM   10  C12 UNL     1      45.152  29.415   1.417  1.00  0.00    -0.012 C 
HETATM   11  C13 UNL     1      44.462  28.471   0.443  1.00  0.00     0.009 C 
HETATM   12  C17 UNL     1      46.198  28.630   2.136  1.00  0.00     0.035 C 
HETATM   13  C14 UNL     1      43.907  27.335   1.241  1.00  0.00    -0.012 C 
HETATM   14  C16 UNL     1      44.936  26.565   2.012  1.00  0.00     0.035 C 
ENDBRANCH   3   5
BRANCH   2  15
HETATM   15  C2  UNL     1      48.729  26.815   5.203  1.00  0.00     0.281 C 
BRANCH  15  16
HETATM   16  O2  UNL     1      49.886  26.616   4.465  1.00  0.00    -0.310 OA
BRANCH  16  17
HETATM   17  C3  UNL     1      50.022  25.829   3.356  1.00  0.00     0.288 C 
HETATM   18  O3  UNL     1      50.602  26.273   2.347  1.00  0.00    -0.262 OA
BRANCH  17  19
HETATM   19  C4  UNL     1      49.481  24.460   3.360  1.00  0.00     0.221 C 
HETATM   20  C5  UNL     1      50.135  23.684   2.236  1.00  0.00     0.044 C 
HETATM   21  C6  UNL     1      49.150  22.533   2.061  1.00  0.00     0.029 C 
HETATM   22  C7  UNL     1      47.938  23.039   2.806  1.00  0.00     0.169 C 
HETATM   23  O4  UNL     1      48.140  24.401   3.015  1.00  0.00    -0.376 OA
ENDBRANCH  17  19
ENDBRANCH  16  17
ENDBRANCH  15  16
ENDBRANCH   2  15
TORSDOF 5
ENDMDL
MODEL 5
REMARK VINA RESULT: -8.187233667      2.403      7.293
REMARK  5 active torsions:
REMARK  status: ('A' for Active; 'I' for Inactive)
REMARK    1  A    between atoms: C1_2  and  C2_3 
REMARK       I    between atoms: C1_2  and  N1_12 
REMARK    2  A    between atoms: C2_3  and  O2_4 
REMARK    3  A    between atoms: O2_4  and  C3_5 
REMARK    4  A    between atoms: C3_5  and  C4_7 
REMARK    5  A    between atoms: N1_12  and  C8_14 
ROOT
HETATM    1  O1  UNL     1      47.045  26.085   4.675  1.00  0.00    -0.271 OA
HETATM    2  C1  UNL     1      47.780  27.041   4.319  1.00  0.00     0.242 C 
HETATM    3  N1  UNL     1      47.297  28.090   3.488  1.00  0.00    -0.350 N 
ATOM      4  H1  UNL     1      47.948  28.834   3.236  1.00  0.00     0.163 HD
ENDROOT
BRANCH   3   5
HETATM    5  C8  UNL     1      45.967  28.175   2.981  1.00  0.00     0.034 C 
HETATM    6  C9  UNL     1      44.920  27.971   4.073  1.00  0.00     0.035 C 
HETATM    7  C10 UNL     1      43.539  28.223   3.525  1.00  0.00    -0.012 C 
HETATM    8  C11 UNL     1      43.457  29.616   2.994  1.00  0.00     0.009 C 
HETATM    9  C15 UNL     1      43.247  27.198   2.465  1.00  0.00     0.009 C 
HETATM   10  C12 UNL     1      44.388  29.747   1.809  1.00  0.00    -0.012 C 
HETATM   11  C13 UNL     1      44.100  28.697   0.745  1.00  0.00     0.009 C 
HETATM   12  C17 UNL     1      45.777  29.517   2.301  1.00  0.00     0.035 C 
HETATM   13  C14 UNL     1      44.290  27.357   1.380  1.00  0.00    -0.012 C 
HETATM   14  C16 UNL     1      45.666  27.125   1.928  1.00  0.00     0.035 C 
ENDBRANCH   3   5
BRANCH   2  15
HETATM   15  C2  UNL     1      49.184  27.035   4.803  1.00  0.00     0.281 C 
BRANCH  15  16
HETATM   16  O2  UNL     1      49.969  25.995   4.330  1.00  0.00    -0.310 OA
BRANCH  16  17
HETATM   17  C3  UNL     1      50.415  25.825   3.049  1.00  0.00     0.288 C 
HETATM   18  O3  UNL     1      50.946  26.777   2.445  1.00  0.00    -0.262 OA
BRANCH  17  19
HETATM   19  C4  UNL     1      50.264  24.518   2.389  1.00  0.00     0.221 C 
HETATM   20  C5  UNL     1      49.014  23.852   2.926  1.00  0.00     0.044 C 
HETATM   21  C6  UNL     1      49.275  22.396   2.557  1.00  0.00     0.029 C 
HETATM   22  C7  UNL     1      50.752  22.409   2.246  1.00  0.00     0.169 C 
HETATM   23  O4  UNL     1      51.252  23.611   2.739  1.00  0.00    -0.376 OA
ENDBRANCH  17  19
ENDBRANCH  16  17
ENDBRANCH  15  16
ENDBRANCH   2  15
TORSDOF 5
ENDMDL
