MODEL 1
REMARK VINA RESULT: -7.179161401      0.000      0.000
REMARK  8 active torsions:
REMARK  status: ('A' for Active; 'I' for Inactive)
REMARK    1  A    between atoms: C2_2  and  C3_3 
REMARK    2  A    between atoms: C3_3  and  C4_4 
REMARK    3  A    between atoms: C9_15  and  C10_16 
REMARK    4  A    between atoms: C10_16  and  C11_17 
REMARK    5  A    between atoms: C14_20  and  O3_21 
REMARK    6  A    between atoms: C19_32  and  C20_33 
REMARK    7  A    between atoms: C20_33  and  N5_34 
REMARK    8  A    between atoms: C24_38  and  C25_39 
ROOT
HETATM    1  C4  UNL     1       4.068 -27.900   6.781  1.00  0.00     0.102 C 
HETATM    2  C5  UNL     1       4.989 -28.699   5.916  1.00  0.00     0.224 C 
HETATM    3  O1  UNL     1       4.450 -29.409   5.015  1.00  0.00    -0.273 OA
HETATM    4  N1  UNL     1       6.401 -28.704   6.046  1.00  0.00    -0.348 N 
ATOM      5  H1  UNL     1       6.959 -28.814   5.199  1.00  0.00     0.163 HD
HETATM    6  C6  UNL     1       7.092 -28.565   7.289  1.00  0.00     0.172 C 
HETATM    7  C7  UNL     1       7.615 -27.114   7.299  1.00  0.00     0.042 C 
HETATM    8  C8  UNL     1       8.269 -29.437   7.459  1.00  0.00     0.240 C 
HETATM    9  O2  UNL     1       9.194 -29.201   6.596  1.00  0.00    -0.271 OA
HETATM   10  N2  UNL     1       8.518 -30.445   8.388  1.00  0.00    -0.347 N 
ATOM     11  H2  UNL     1       9.332 -30.301   8.984  1.00  0.00     0.163 HD
HETATM   12  C9  UNL     1       7.761 -31.696   8.629  1.00  0.00     0.159 C 
HETATM   13  C14 UNL     1       6.759 -31.916   7.584  1.00  0.00     0.135 C 
HETATM   14  N3  UNL     1       5.382 -31.983   7.621  1.00  0.00    -0.355 N 
ATOM     15  H3  UNL     1       4.972 -32.230   6.720  1.00  0.00     0.162 HD
HETATM   16  C15 UNL     1       4.406 -31.786   8.634  1.00  0.00     0.105 C 
HETATM   17  C16 UNL     1       4.784 -30.949   9.811  1.00  0.00     0.048 C 
HETATM   18  C17 UNL     1       4.049 -33.163   9.246  1.00  0.00     0.048 C 
HETATM   19  C18 UNL     1       3.127 -31.247   8.060  1.00  0.00     0.245 C 
HETATM   20  O4  UNL     1       2.052 -31.937   8.230  1.00  0.00    -0.271 OA
HETATM   21  N4  UNL     1       2.968 -30.052   7.343  1.00  0.00    -0.352 N 
ATOM     22  H4  UNL     1       2.581 -30.152   6.404  1.00  0.00     0.163 HD
HETATM   23  C19 UNL     1       3.276 -28.700   7.748  1.00  0.00     0.126 C 
ENDROOT
BRANCH  23  24
HETATM   24  C20 UNL     1       1.917 -28.061   8.062  1.00  0.00     0.298 C 
BRANCH  24  25
HETATM   25  N5  UNL     1       0.818 -28.847   7.662  1.00  0.00     0.095 N 
HETATM   26  C21 UNL     1      -0.285 -28.856   8.597  1.00  0.00     0.273 C 
HETATM   27  C22 UNL     1      -1.369 -29.602   7.895  1.00  0.00     0.032 C 
HETATM   28  C23 UNL     1      -1.006 -29.465   6.421  1.00  0.00     0.037 C 
HETATM   29  C24 UNL     1       0.259 -28.626   6.366  1.00  0.00     0.223 C 
BRANCH  29  30
HETATM   30  C25 UNL     1      -0.085 -27.239   5.989  1.00  0.00     0.031 C 
HETATM   31  C26 UNL     1      -0.051 -26.890   4.543  1.00  0.00     0.007 C 
ENDBRANCH  29  30
ENDBRANCH  24  25
ENDBRANCH  23  24
BRANCH   1  32
HETATM   32  C3  UNL     1       3.263 -27.074   5.795  1.00  0.00     0.016 C 
BRANCH  32  33
HETATM   33  C2  UNL     1       3.667 -25.616   6.096  1.00  0.00    -0.004 C 
HETATM   34  C1  UNL     1       2.484 -24.709   6.140  1.00  0.00     0.005 C 
ENDBRANCH  32  33
ENDBRANCH   1  32
BRANCH  13  35
HETATM   35  O3  UNL     1       7.293 -32.073   6.403  1.00  0.00    -0.348 OA
ATOM     36  H3  UNL     1       7.610 -31.256   6.035  1.00  0.00     0.219 HD
ENDBRANCH  13  35
BRANCH  12  37
HETATM   37  C10 UNL     1       8.810 -32.748   8.692  1.00  0.00     0.037 C 
BRANCH  37  38
HETATM   38  C11 UNL     1       8.627 -34.008   9.378  1.00  0.00    -0.020 C 
HETATM   39  C12 UNL     1       7.658 -34.033  10.517  1.00  0.00     0.009 C 
HETATM   40  C13 UNL     1       8.356 -35.170   8.471  1.00  0.00     0.009 C 
ENDBRANCH  37  38
ENDBRANCH  12  37
TORSDOF 8
ENDMDL
MODEL 2
REMARK VINA RESULT: -6.968387547      7.088     10.179
REMARK  8 active torsions:
REMARK  status: ('A' for Active; 'I' for Inactive)
REMARK    1  A    between atoms: C2_2  and  C3_3 
REMARK    2  A    between atoms: C3_3  and  C4_4 
REMARK    3  A    between atoms: C9_15  and  C10_16 
REMARK    4  A    between atoms: C10_16  and  C11_17 
REMARK    5  A    between atoms: C14_20  and  O3_21 
REMARK    6  A    between atoms: C19_32  and  C20_33 
REMARK    7  A    between atoms: C20_33  and  N5_34 
REMARK    8  A    between atoms: C24_38  and  C25_39 
ROOT
HETATM    1  C4  UNL     1       7.742 -36.462   2.413  1.00  0.00     0.102 C 
HETATM    2  C5  UNL     1       6.637 -37.128   3.169  1.00  0.00     0.224 C 
HETATM    3  O1  UNL     1       5.567 -36.465   3.315  1.00  0.00    -0.273 OA
HETATM    4  N1  UNL     1       6.719 -38.433   3.718  1.00  0.00    -0.348 N 
ATOM      5  H1  UNL     1       5.868 -38.995   3.744  1.00  0.00     0.163 HD
HETATM    6  C6  UNL     1       7.919 -39.010   4.236  1.00  0.00     0.172 C 
HETATM    7  C7  UNL     1       8.393 -39.999   3.151  1.00  0.00     0.042 C 
HETATM    8  C8  UNL     1       7.759 -39.793   5.476  1.00  0.00     0.240 C 
HETATM    9  O2  UNL     1       6.998 -40.819   5.324  1.00  0.00    -0.271 OA
HETATM   10  N2  UNL     1       8.297 -39.591   6.745  1.00  0.00    -0.347 N 
ATOM     11  H2  UNL     1       8.884 -40.346   7.099  1.00  0.00     0.163 HD
HETATM   12  C9  UNL     1       8.132 -38.430   7.652  1.00  0.00     0.159 C 
HETATM   13  C14 UNL     1       7.101 -37.516   7.156  1.00  0.00     0.135 C 
HETATM   14  N3  UNL     1       7.151 -36.204   6.737  1.00  0.00    -0.355 N 
ATOM     15  H3  UNL     1       6.231 -35.820   6.522  1.00  0.00     0.162 HD
HETATM   16  C15 UNL     1       8.199 -35.266   6.537  1.00  0.00     0.105 C 
HETATM   17  C16 UNL     1       9.575 -35.797   6.311  1.00  0.00     0.048 C 
HETATM   18  C17 UNL     1       8.331 -34.400   7.815  1.00  0.00     0.048 C 
HETATM   19  C18 UNL     1       7.870 -34.310   5.426  1.00  0.00     0.245 C 
HETATM   20  O4  UNL     1       7.832 -33.052   5.703  1.00  0.00    -0.271 OA
HETATM   21  N4  UNL     1       7.592 -34.641   4.091  1.00  0.00    -0.352 N 
ATOM     22  H4  UNL     1       6.684 -34.333   3.743  1.00  0.00     0.163 HD
HETATM   23  C19 UNL     1       8.412 -35.357   3.142  1.00  0.00     0.126 C 
ENDROOT
BRANCH  23  24
HETATM   24  C20 UNL     1       8.956 -34.279   2.196  1.00  0.00     0.298 C 
BRANCH  24  25
HETATM   25  N5  UNL     1      10.360 -34.284   2.080  1.00  0.00     0.095 N 
HETATM   26  C21 UNL     1      11.020 -35.333   2.824  1.00  0.00     0.273 C 
HETATM   27  C22 UNL     1      12.452 -35.239   2.420  1.00  0.00     0.032 C 
HETATM   28  C23 UNL     1      12.402 -34.533   1.071  1.00  0.00     0.037 C 
HETATM   29  C24 UNL     1      10.934 -34.283   0.771  1.00  0.00     0.223 C 
BRANCH  29  30
HETATM   30  C25 UNL     1      10.451 -35.288  -0.198  1.00  0.00     0.031 C 
HETATM   31  C26 UNL     1       9.577 -34.814  -1.305  1.00  0.00     0.007 C 
ENDBRANCH  29  30
ENDBRANCH  24  25
ENDBRANCH  23  24
BRANCH   1  32
HETATM   32  C3  UNL     1       7.106 -36.087   1.088  1.00  0.00     0.016 C 
BRANCH  32  33
HETATM   33  C2  UNL     1       7.385 -37.297   0.173  1.00  0.00    -0.004 C 
HETATM   34  C1  UNL     1       6.204 -38.202   0.072  1.00  0.00     0.005 C 
ENDBRANCH  32  33
ENDBRANCH   1  32
BRANCH  13  35
HETATM   35  O3  UNL     1       5.920 -38.071   7.110  1.00  0.00    -0.348 OA
ATOM     36  H3  UNL     1       5.864 -38.755   6.452  1.00  0.00     0.219 HD
ENDBRANCH  13  35
BRANCH  12  37
HETATM   37  C10 UNL     1       7.815 -39.041   8.970  1.00  0.00     0.037 C 
BRANCH  37  38
HETATM   38  C11 UNL     1       7.830 -38.299  10.210  1.00  0.00    -0.020 C 
HETATM   39  C12 UNL     1       8.841 -37.205  10.342  1.00  0.00     0.009 C 
HETATM   40  C13 UNL     1       6.488 -37.787  10.637  1.00  0.00     0.009 C 
ENDBRANCH  37  38
ENDBRANCH  12  37
TORSDOF 8
ENDMDL
MODEL 3
REMARK VINA RESULT: -6.859494871      5.997      9.571
REMARK  8 active torsions:
REMARK  status: ('A' for Active; 'I' for Inactive)
REMARK    1  A    between atoms: C2_2  and  C3_3 
REMARK    2  A    between atoms: C3_3  and  C4_4 
REMARK    3  A    between atoms: C9_15  and  C10_16 
REMARK    4  A    between atoms: C10_16  and  C11_17 
REMARK    5  A    between atoms: C14_20  and  O3_21 
REMARK    6  A    between atoms: C19_32  and  C20_33 
REMARK    7  A    between atoms: C20_33  and  N5_34 
REMARK    8  A    between atoms: C24_38  and  C25_39 
ROOT
HETATM    1  C4  UNL     1       7.763 -35.954   2.882  1.00  0.00     0.102 C 
HETATM    2  C5  UNL     1       6.597 -36.380   3.716  1.00  0.00     0.224 C 
HETATM    3  O1  UNL     1       5.529 -35.710   3.587  1.00  0.00    -0.273 OA
HETATM    4  N1  UNL     1       6.621 -37.470   4.623  1.00  0.00    -0.348 N 
ATOM      5  H1  UNL     1       5.762 -38.006   4.749  1.00  0.00     0.163 HD
HETATM    6  C6  UNL     1       7.773 -37.865   5.371  1.00  0.00     0.172 C 
HETATM    7  C7  UNL     1       8.307 -39.122   4.654  1.00  0.00     0.042 C 
HETATM    8  C8  UNL     1       7.514 -38.257   6.770  1.00  0.00     0.240 C 
HETATM    9  O2  UNL     1       6.751 -39.288   6.865  1.00  0.00    -0.271 OA
HETATM   10  N2  UNL     1       7.964 -37.693   7.961  1.00  0.00    -0.347 N 
ATOM     11  H2  UNL     1       8.514 -38.309   8.559  1.00  0.00     0.163 HD
HETATM   12  C9  UNL     1       7.752 -36.321   8.480  1.00  0.00     0.159 C 
HETATM   13  C14 UNL     1       6.772 -35.596   7.668  1.00  0.00     0.135 C 
HETATM   14  N3  UNL     1       6.872 -34.460   6.892  1.00  0.00    -0.355 N 
ATOM     15  H3  UNL     1       5.975 -34.161   6.510  1.00  0.00     0.162 HD
HETATM   16  C15 UNL     1       7.944 -33.613   6.506  1.00  0.00     0.105 C 
HETATM   17  C16 UNL     1       9.325 -34.178   6.542  1.00  0.00     0.048 C 
HETATM   18  C17 UNL     1       7.999 -32.414   7.485  1.00  0.00     0.048 C 
HETATM   19  C18 UNL     1       7.709 -33.022   5.146  1.00  0.00     0.245 C 
HETATM   20  O4  UNL     1       7.670 -31.738   5.044  1.00  0.00    -0.271 OA
HETATM   21  N4  UNL     1       7.521 -33.727   3.947  1.00  0.00    -0.352 N 
ATOM     22  H4  UNL     1       6.644 -33.538   3.460  1.00  0.00     0.163 HD
HETATM   23  C19 UNL     1       8.396 -34.681   3.306  1.00  0.00     0.126 C 
ENDROOT
BRANCH  23  24
HETATM   24  C20 UNL     1       9.021 -33.919   2.131  1.00  0.00     0.298 C 
BRANCH  24  25
HETATM   25  N5  UNL     1      10.419 -34.068   2.040  1.00  0.00     0.095 N 
HETATM   26  C21 UNL     1      10.972 -35.081   2.909  1.00  0.00     0.273 C 
HETATM   27  C22 UNL     1      12.410 -35.168   2.521  1.00  0.00     0.032 C 
HETATM   28  C23 UNL     1      12.435 -34.619   1.100  1.00  0.00     0.037 C 
HETATM   29  C24 UNL     1      10.998 -34.270   0.750  1.00  0.00     0.223 C 
BRANCH  29  30
HETATM   30  C25 UNL     1      10.428 -35.331  -0.107  1.00  0.00     0.031 C 
HETATM   31  C26 UNL     1       9.562 -34.911  -1.241  1.00  0.00     0.007 C 
ENDBRANCH  29  30
ENDBRANCH  24  25
ENDBRANCH  23  24
BRANCH   1  32
HETATM   32  C3  UNL     1       7.227 -35.982   1.463  1.00  0.00     0.016 C 
BRANCH  32  33
HETATM   33  C2  UNL     1       7.513 -37.417   0.974  1.00  0.00    -0.004 C 
HETATM   34  C1  UNL     1       6.350 -37.998   0.244  1.00  0.00     0.005 C 
ENDBRANCH  32  33
ENDBRANCH   1  32
BRANCH  13  35
HETATM   35  O3  UNL     1       5.590 -36.148   7.699  1.00  0.00    -0.348 OA
ATOM     36  H3  UNL     1       5.092 -35.987   6.906  1.00  0.00     0.219 HD
ENDBRANCH  13  35
BRANCH  12  37
HETATM   37  C10 UNL     1       7.334 -36.526   9.892  1.00  0.00     0.037 C 
BRANCH  37  38
HETATM   38  C11 UNL     1       7.430 -35.498  10.903  1.00  0.00    -0.020 C 
HETATM   39  C12 UNL     1       8.467 -34.438  10.706  1.00  0.00     0.009 C 
HETATM   40  C13 UNL     1       6.123 -34.854  11.252  1.00  0.00     0.009 C 
ENDBRANCH  37  38
ENDBRANCH  12  37
TORSDOF 8
ENDMDL
MODEL 4
REMARK VINA RESULT: -6.833919418      2.055      4.419
REMARK  8 active torsions:
REMARK  status: ('A' for Active; 'I' for Inactive)
REMARK    1  A    between atoms: C2_2  and  C3_3 
REMARK    2  A    between atoms: C3_3  and  C4_4 
REMARK    3  A    between atoms: C9_15  and  C10_16 
REMARK    4  A    between atoms: C10_16  and  C11_17 
REMARK    5  A    between atoms: C14_20  and  O3_21 
REMARK    6  A    between atoms: C19_32  and  C20_33 
REMARK    7  A    between atoms: C20_33  and  N5_34 
REMARK    8  A    between atoms: C24_38  and  C25_39 
ROOT
HETATM    1  C4  UNL     1       2.582 -30.335   7.547  1.00  0.00     0.102 C 
HETATM    2  C5  UNL     1       3.015 -30.555   8.961  1.00  0.00     0.224 C 
HETATM    3  O1  UNL     1       2.866 -29.583   9.761  1.00  0.00    -0.273 OA
HETATM    4  N1  UNL     1       3.569 -31.767   9.446  1.00  0.00    -0.348 N 
ATOM      5  H1  UNL     1       3.367 -32.034  10.410  1.00  0.00     0.163 HD
HETATM    6  C6  UNL     1       4.393 -32.639   8.669  1.00  0.00     0.172 C 
HETATM    7  C7  UNL     1       3.477 -33.818   8.281  1.00  0.00     0.042 C 
HETATM    8  C8  UNL     1       5.546 -33.220   9.381  1.00  0.00     0.240 C 
HETATM    9  O2  UNL     1       5.197 -33.969  10.368  1.00  0.00    -0.271 OA
HETATM   10  N2  UNL     1       6.912 -33.082   9.148  1.00  0.00    -0.347 N 
ATOM     11  H2  UNL     1       7.413 -33.947   8.945  1.00  0.00     0.163 HD
HETATM   12  C9  UNL     1       7.738 -31.851   9.154  1.00  0.00     0.159 C 
HETATM   13  C14 UNL     1       6.981 -30.711   9.674  1.00  0.00     0.135 C 
HETATM   14  N3  UNL     1       6.587 -29.521   9.099  1.00  0.00    -0.355 N 
ATOM     15  H3  UNL     1       6.131 -28.893   9.760  1.00  0.00     0.162 HD
HETATM   16  C15 UNL     1       6.674 -28.976   7.790  1.00  0.00     0.105 C 
HETATM   17  C16 UNL     1       6.827 -29.925   6.649  1.00  0.00     0.048 C 
HETATM   18  C17 UNL     1       7.937 -28.083   7.714  1.00  0.00     0.048 C 
HETATM   19  C18 UNL     1       5.512 -28.069   7.501  1.00  0.00     0.245 C 
HETATM   20  O4  UNL     1       5.765 -26.841   7.200  1.00  0.00    -0.271 OA
HETATM   21  N4  UNL     1       4.152 -28.415   7.523  1.00  0.00    -0.352 N 
ATOM     22  H4  UNL     1       3.572 -27.873   8.163  1.00  0.00     0.163 HD
HETATM   23  C19 UNL     1       3.460 -29.431   6.764  1.00  0.00     0.126 C 
ENDROOT
BRANCH  23  24
HETATM   24  C20 UNL     1       2.692 -28.663   5.681  1.00  0.00     0.298 C 
BRANCH  24  25
HETATM   25  N5  UNL     1       2.348 -27.349   6.057  1.00  0.00     0.095 N 
HETATM   26  C21 UNL     1       3.070 -26.314   5.354  1.00  0.00     0.273 C 
HETATM   27  C22 UNL     1       2.428 -25.041   5.792  1.00  0.00     0.032 C 
HETATM   28  C23 UNL     1       1.045 -25.475   6.259  1.00  0.00     0.037 C 
HETATM   29  C24 UNL     1       0.969 -26.976   6.038  1.00  0.00     0.223 C 
BRANCH  29  30
HETATM   30  C25 UNL     1       0.193 -27.255   4.811  1.00  0.00     0.031 C 
HETATM   31  C26 UNL     1      -0.650 -28.481   4.792  1.00  0.00     0.007 C 
ENDBRANCH  29  30
ENDBRANCH  24  25
ENDBRANCH  23  24
BRANCH   1  32
HETATM   32  C3  UNL     1       1.134 -29.901   7.671  1.00  0.00     0.016 C 
BRANCH  32  33
HETATM   33  C2  UNL     1       0.375 -31.196   8.028  1.00  0.00    -0.004 C 
HETATM   34  C1  UNL     1      -1.103 -30.995   8.016  1.00  0.00     0.005 C 
ENDBRANCH  32  33
ENDBRANCH   1  32
BRANCH  13  35
HETATM   35  O3  UNL     1       6.620 -30.875  10.918  1.00  0.00    -0.348 OA
ATOM     36  H3  UNL     1       6.895 -31.714  11.270  1.00  0.00     0.219 HD
ENDBRANCH  13  35
BRANCH  12  37
HETATM   37  C10 UNL     1       8.924 -32.214   9.974  1.00  0.00     0.037 C 
BRANCH  37  38
HETATM   38  C11 UNL     1       9.107 -33.519  10.567  1.00  0.00    -0.020 C 
HETATM   39  C12 UNL     1      10.446 -34.166  10.398  1.00  0.00     0.009 C 
HETATM   40  C13 UNL     1       8.693 -33.607  12.004  1.00  0.00     0.009 C 
ENDBRANCH  37  38
ENDBRANCH  12  37
TORSDOF 8
ENDMDL
MODEL 5
REMARK VINA RESULT: -6.785891034     15.715     19.541
REMARK  8 active torsions:
REMARK  status: ('A' for Active; 'I' for Inactive)
REMARK    1  A    between atoms: C2_2  and  C3_3 
REMARK    2  A    between atoms: C3_3  and  C4_4 
REMARK    3  A    between atoms: C9_15  and  C10_16 
REMARK    4  A    between atoms: C10_16  and  C11_17 
REMARK    5  A    between atoms: C14_20  and  O3_21 
REMARK    6  A    between atoms: C19_32  and  C20_33 
REMARK    7  A    between atoms: C20_33  and  N5_34 
REMARK    8  A    between atoms: C24_38  and  C25_39 
ROOT
HETATM    1  C4  UNL     1      -7.790 -40.536   3.362  1.00  0.00     0.102 C 
HETATM    2  C5  UNL     1      -8.091 -40.559   1.898  1.00  0.00     0.224 C 
HETATM    3  O1  UNL     1      -8.305 -39.440   1.343  1.00  0.00    -0.273 OA
HETATM    4  N1  UNL     1      -8.145 -41.739   1.113  1.00  0.00    -0.348 N 
ATOM      5  H1  UNL     1      -7.846 -41.680   0.139  1.00  0.00     0.163 HD
HETATM    6  C6  UNL     1      -8.593 -43.005   1.601  1.00  0.00     0.172 C 
HETATM    7  C7  UNL     1      -7.308 -43.831   1.818  1.00  0.00     0.042 C 
HETATM    8  C8  UNL     1      -9.437 -43.779   0.670  1.00  0.00     0.240 C 
HETATM    9  O2  UNL     1      -8.820 -44.097  -0.413  1.00  0.00    -0.271 OA
HETATM   10  N2  UNL     1     -10.758 -44.202   0.791  1.00  0.00    -0.347 N 
ATOM     11  H2  UNL     1     -10.901 -45.210   0.755  1.00  0.00     0.163 HD
HETATM   12  C9  UNL     1     -11.984 -43.387   0.965  1.00  0.00     0.159 C 
HETATM   13  C14 UNL     1     -11.701 -41.962   0.778  1.00  0.00     0.135 C 
HETATM   14  N3  UNL     1     -11.788 -40.881   1.630  1.00  0.00    -0.355 N 
ATOM     15  H3  UNL     1     -11.592 -39.994   1.166  1.00  0.00     0.162 HD
HETATM   16  C15 UNL     1     -12.089 -40.727   3.009  1.00  0.00     0.105 C 
HETATM   17  C16 UNL     1     -11.891 -41.907   3.901  1.00  0.00     0.048 C 
HETATM   18  C17 UNL     1     -13.596 -40.395   3.148  1.00  0.00     0.048 C 
HETATM   19  C18 UNL     1     -11.355 -39.558   3.599  1.00  0.00     0.245 C 
HETATM   20  O4  UNL     1     -12.052 -38.611   4.128  1.00  0.00    -0.271 OA
HETATM   21  N4  UNL     1      -9.964 -39.374   3.639  1.00  0.00    -0.352 N 
ATOM     22  H4  UNL     1      -9.621 -38.526   3.189  1.00  0.00     0.163 HD
HETATM   23  C19 UNL     1      -8.952 -40.220   4.228  1.00  0.00     0.126 C 
ENDROOT
BRANCH  23  24
HETATM   24  C20 UNL     1      -8.541 -39.504   5.521  1.00  0.00     0.298 C 
BRANCH  24  25
HETATM   25  N5  UNL     1      -9.117 -38.226   5.667  1.00  0.00     0.095 N 
HETATM   26  C21 UNL     1     -10.080 -38.121   6.739  1.00  0.00     0.273 C 
HETATM   27  C22 UNL     1     -10.419 -36.670   6.801  1.00  0.00     0.032 C 
HETATM   28  C23 UNL     1      -9.218 -35.990   6.155  1.00  0.00     0.037 C 
HETATM   29  C24 UNL     1      -8.249 -37.098   5.780  1.00  0.00     0.223 C 
BRANCH  29  30
HETATM   30  C25 UNL     1      -7.160 -37.159   6.777  1.00  0.00     0.031 C 
HETATM   31  C26 UNL     1      -6.751 -35.887   7.430  1.00  0.00     0.007 C 
ENDBRANCH  29  30
ENDBRANCH  24  25
ENDBRANCH  23  24
BRANCH   1  32
HETATM   32  C3  UNL     1      -6.607 -39.593   3.478  1.00  0.00     0.016 C 
BRANCH  32  33
HETATM   33  C2  UNL     1      -5.417 -40.511   3.824  1.00  0.00    -0.004 C 
HETATM   34  C1  UNL     1      -4.505 -40.702   2.659  1.00  0.00     0.005 C 
ENDBRANCH  32  33
ENDBRANCH   1  32
BRANCH  13  35
HETATM   35  O3  UNL     1     -11.290 -41.688  -0.430  1.00  0.00    -0.348 OA
ATOM     36  H3  UNL     1     -11.521 -40.807  -0.703  1.00  0.00     0.219 HD
ENDBRANCH  13  35
BRANCH  12  37
HETATM   37  C10 UNL     1     -12.938 -43.950  -0.026  1.00  0.00     0.037 C 
BRANCH  37  38
HETATM   38  C11 UNL     1     -14.371 -43.793   0.077  1.00  0.00    -0.020 C 
HETATM   39  C12 UNL     1     -14.936 -43.534   1.438  1.00  0.00     0.009 C 
HETATM   40  C13 UNL     1     -14.956 -42.815  -0.896  1.00  0.00     0.009 C 
ENDBRANCH  37  38
ENDBRANCH  12  37
TORSDOF 8
ENDMDL
