MODEL 1
REMARK VINA RESULT: -7.366295688      0.000      0.000
REMARK  8 active torsions:
REMARK  status: ('A' for Active; 'I' for Inactive)
REMARK    1  A    between atoms: C7_13  and  C8_14 
REMARK    2  A    between atoms: C8_14  and  C9_15 
REMARK    3  A    between atoms: C10_18  and  C11_19 
REMARK       I    between atoms: C11_19  and  N2_21 
REMARK    4  A    between atoms: N2_21  and  C12_23 
REMARK    5  A    between atoms: C12_23  and  C13_24 
REMARK    6  A    between atoms: C13_24  and  N3_25 
REMARK    7  A    between atoms: N4_29  and  C14_30 
REMARK    8  A    between atoms: C14_30  and  C15_31 
ROOT
HETATM    1  N1  UNL     1       4.059 -27.301   5.671  1.00  0.00    -0.388 N 
ATOM      2  H11 UNL     1       4.870 -27.565   5.113  1.00  0.00     0.157 HD
ATOM      3  H12 UNL     1       3.345 -26.645   5.353  1.00  0.00     0.157 HD
HETATM    4  C1  UNL     1       3.967 -27.847   6.838  1.00  0.00     0.087 C 
HETATM    5  C2  UNL     1       2.785 -27.463   7.651  1.00  0.00     0.216 C 
HETATM    6  S1  UNL     1       1.919 -29.007   7.660  1.00  0.00     0.153 S 
HETATM    7  O1  UNL     1       1.073 -29.010   6.380  1.00  0.00    -0.227 OA
HETATM    8  O2  UNL     1       0.962 -29.202   8.745  1.00  0.00    -0.227 OA
HETATM    9  C3  UNL     1       3.136 -30.226   7.404  1.00  0.00     0.172 C 
HETATM   10  C4  UNL     1       4.522 -29.890   8.064  1.00  0.00     0.059 C 
HETATM   11  C5  UNL     1       4.150 -29.614   9.493  1.00  0.00     0.033 C 
HETATM   12  C6  UNL     1       4.877 -30.599  10.387  1.00  0.00     0.008 C 
HETATM   13  C7  UNL     1       5.690 -31.479   9.512  1.00  0.00     0.011 C 
HETATM   14  C10 UNL     1       5.181 -31.190   8.104  1.00  0.00     0.111 C 
HETATM   15  N4  UNL     1       4.996 -28.793   7.297  1.00  0.00    -0.358 N 
ENDROOT
BRANCH  14  16
HETATM   16  C11 UNL     1       6.218 -31.608   7.201  1.00  0.00     0.224 C 
HETATM   17  O5  UNL     1       7.386 -31.832   7.595  1.00  0.00    -0.273 OA
HETATM   18  N2  UNL     1       6.011 -31.800   5.805  1.00  0.00    -0.359 N 
ATOM     19  H2  UNL     1       5.081 -31.634   5.419  1.00  0.00     0.162 HD
BRANCH  18  20
HETATM   20  C12 UNL     1       7.088 -32.227   4.903  1.00  0.00     0.150 C 
BRANCH  20  21
HETATM   21  C13 UNL     1       6.564 -33.234   3.917  1.00  0.00     0.249 C 
BRANCH  21  22
HETATM   22  N3  UNL     1       5.506 -32.589   3.126  1.00  0.00    -0.078 N 
ATOM     23  H33 UNL     1       4.960 -31.920   3.669  1.00  0.00     0.274 HD
ATOM     24  H32 UNL     1       5.873 -31.936   2.434  1.00  0.00     0.274 HD
ATOM     25  H31 UNL     1       4.931 -33.323   2.711  1.00  0.00     0.274 HD
ENDBRANCH  21  22
ENDBRANCH  20  21
ENDBRANCH  18  20
ENDBRANCH  14  16
BRANCH  15  26
HETATM   26  C14 UNL     1       6.263 -28.319   6.864  1.00  0.00     0.134 C 
BRANCH  26  27
HETATM   27  C15 UNL     1       7.215 -27.663   7.810  1.00  0.00    -0.023 C 
HETATM   28  C16 UNL     1       8.330 -28.737   7.975  1.00  0.00     0.015 C 
HETATM   29  C17 UNL     1       9.476 -28.256   8.782  1.00  0.00    -0.013 C 
HETATM   30  C18 UNL     1      10.125 -27.097   8.083  1.00  0.00     0.009 C 
HETATM   31  C22 UNL     1       8.958 -27.882  10.157  1.00  0.00     0.009 C 
HETATM   32  C19 UNL     1       9.072 -26.019   7.979  1.00  0.00    -0.013 C 
HETATM   33  C20 UNL     1       8.585 -25.588   9.345  1.00  0.00     0.009 C 
HETATM   34  C24 UNL     1       7.902 -26.458   7.131  1.00  0.00     0.015 C 
HETATM   35  C21 UNL     1       7.943 -26.807   9.990  1.00  0.00    -0.013 C 
HETATM   36  C23 UNL     1       6.770 -27.175   9.108  1.00  0.00     0.015 C 
ENDBRANCH  26  27
ENDBRANCH  15  26
BRANCH  13  37
HETATM   37  C8  UNL     1       5.627 -32.943   9.855  1.00  0.00     0.118 C 
BRANCH  37  38
HETATM   38  C9  UNL     1       6.635 -33.322  10.881  1.00  0.00     0.172 C 
HETATM   39  O3  UNL     1       7.822 -33.513  10.524  1.00  0.00    -0.648 OA
HETATM   40  O4  UNL     1       6.308 -33.472  12.210  1.00  0.00    -0.648 OA
ENDBRANCH  37  38
ENDBRANCH  13  37
TORSDOF 8
ENDMDL
MODEL 2
REMARK VINA RESULT: -7.272097920      2.611      5.791
REMARK  8 active torsions:
REMARK  status: ('A' for Active; 'I' for Inactive)
REMARK    1  A    between atoms: C7_13  and  C8_14 
REMARK    2  A    between atoms: C8_14  and  C9_15 
REMARK    3  A    between atoms: C10_18  and  C11_19 
REMARK       I    between atoms: C11_19  and  N2_21 
REMARK    4  A    between atoms: N2_21  and  C12_23 
REMARK    5  A    between atoms: C12_23  and  C13_24 
REMARK    6  A    between atoms: C13_24  and  N3_25 
REMARK    7  A    between atoms: N4_29  and  C14_30 
REMARK    8  A    between atoms: C14_30  and  C15_31 
ROOT
HETATM    1  N1  UNL     1       4.116 -32.058   9.282  1.00  0.00    -0.388 N 
ATOM      2  H11 UNL     1       4.028 -32.377   8.318  1.00  0.00     0.157 HD
ATOM      3  H12 UNL     1       3.689 -32.536  10.075  1.00  0.00     0.157 HD
HETATM    4  C1  UNL     1       4.814 -30.987   9.467  1.00  0.00     0.087 C 
HETATM    5  C2  UNL     1       4.944 -30.522  10.872  1.00  0.00     0.216 C 
HETATM    6  S1  UNL     1       6.670 -30.820  11.123  1.00  0.00     0.153 S 
HETATM    7  O1  UNL     1       6.774 -32.284  11.568  1.00  0.00    -0.227 OA
HETATM    8  O2  UNL     1       7.306 -30.055  12.192  1.00  0.00    -0.227 OA
HETATM    9  C3  UNL     1       7.388 -30.776   9.537  1.00  0.00     0.172 C 
HETATM   10  C4  UNL     1       6.715 -29.740   8.563  1.00  0.00     0.059 C 
HETATM   11  C5  UNL     1       6.768 -28.462   9.352  1.00  0.00     0.033 C 
HETATM   12  C6  UNL     1       7.577 -27.442   8.577  1.00  0.00     0.008 C 
HETATM   13  C7  UNL     1       8.024 -28.090   7.319  1.00  0.00     0.011 C 
HETATM   14  C10 UNL     1       7.727 -29.571   7.527  1.00  0.00     0.111 C 
HETATM   15  N4  UNL     1       5.431 -30.298   8.324  1.00  0.00    -0.358 N 
ENDROOT
BRANCH  14  16
HETATM   16  C11 UNL     1       7.665 -30.164   6.220  1.00  0.00     0.224 C 
HETATM   17  O5  UNL     1       7.298 -29.510   5.216  1.00  0.00    -0.273 OA
HETATM   18  N2  UNL     1       8.006 -31.521   5.958  1.00  0.00    -0.359 N 
ATOM     19  H2  UNL     1       8.313 -32.109   6.733  1.00  0.00     0.162 HD
BRANCH  18  20
HETATM   20  C12 UNL     1       7.933 -32.103   4.613  1.00  0.00     0.150 C 
BRANCH  20  21
HETATM   21  C13 UNL     1       6.760 -33.041   4.520  1.00  0.00     0.249 C 
BRANCH  21  22
HETATM   22  N3  UNL     1       5.899 -32.584   3.420  1.00  0.00    -0.078 N 
ATOM     23  H33 UNL     1       6.010 -31.590   3.218  1.00  0.00     0.274 HD
ATOM     24  H32 UNL     1       6.196 -32.941   2.512  1.00  0.00     0.274 HD
ATOM     25  H31 UNL     1       4.937 -32.835   3.648  1.00  0.00     0.274 HD
ENDBRANCH  21  22
ENDBRANCH  20  21
ENDBRANCH  18  20
ENDBRANCH  14  16
BRANCH  15  26
HETATM   26  C14 UNL     1       4.521 -30.339   7.234  1.00  0.00     0.134 C 
BRANCH  26  27
HETATM   27  C15 UNL     1       3.584 -29.209   6.958  1.00  0.00    -0.023 C 
HETATM   28  C16 UNL     1       3.744 -28.997   5.422  1.00  0.00     0.015 C 
HETATM   29  C17 UNL     1       2.798 -27.994   4.880  1.00  0.00    -0.013 C 
HETATM   30  C18 UNL     1       1.391 -28.477   5.082  1.00  0.00     0.009 C 
HETATM   31  C22 UNL     1       3.059 -26.675   5.579  1.00  0.00     0.009 C 
HETATM   32  C19 UNL     1       1.200 -28.619   6.574  1.00  0.00    -0.013 C 
HETATM   33  C20 UNL     1       1.397 -27.299   7.285  1.00  0.00     0.009 C 
HETATM   34  C24 UNL     1       2.122 -29.661   7.160  1.00  0.00     0.015 C 
HETATM   35  C21 UNL     1       2.837 -26.874   7.037  1.00  0.00    -0.013 C 
HETATM   36  C23 UNL     1       3.701 -27.943   7.669  1.00  0.00     0.015 C 
ENDBRANCH  26  27
ENDBRANCH  15  26
BRANCH  13  37
HETATM   37  C8  UNL     1       9.461 -27.839   6.954  1.00  0.00     0.118 C 
BRANCH  37  38
HETATM   38  C9  UNL     1       9.598 -26.822   5.878  1.00  0.00     0.172 C 
HETATM   39  O3  UNL     1      10.414 -27.029   4.947  1.00  0.00    -0.648 OA
HETATM   40  O4  UNL     1       8.860 -25.660   5.868  1.00  0.00    -0.648 OA
ENDBRANCH  37  38
ENDBRANCH  13  37
TORSDOF 8
ENDMDL
MODEL 3
REMARK VINA RESULT: -7.251191993      2.833      5.760
REMARK  8 active torsions:
REMARK  status: ('A' for Active; 'I' for Inactive)
REMARK    1  A    between atoms: C7_13  and  C8_14 
REMARK    2  A    between atoms: C8_14  and  C9_15 
REMARK    3  A    between atoms: C10_18  and  C11_19 
REMARK       I    between atoms: C11_19  and  N2_21 
REMARK    4  A    between atoms: N2_21  and  C12_23 
REMARK    5  A    between atoms: C12_23  and  C13_24 
REMARK    6  A    between atoms: C13_24  and  N3_25 
REMARK    7  A    between atoms: N4_29  and  C14_30 
REMARK    8  A    between atoms: C14_30  and  C15_31 
ROOT
HETATM    1  N1  UNL     1       6.626 -26.834   9.369  1.00  0.00    -0.388 N 
ATOM      2  H11 UNL     1       5.868 -27.254   9.906  1.00  0.00     0.157 HD
ATOM      3  H12 UNL     1       7.075 -25.954   9.623  1.00  0.00     0.157 HD
HETATM    4  C1  UNL     1       7.007 -27.479   8.317  1.00  0.00     0.087 C 
HETATM    5  C2  UNL     1       8.111 -26.866   7.535  1.00  0.00     0.216 C 
HETATM    6  S1  UNL     1       9.384 -28.057   7.840  1.00  0.00     0.153 S 
HETATM    7  O1  UNL     1      10.041 -27.626   9.158  1.00  0.00    -0.227 OA
HETATM    8  O2  UNL     1      10.476 -28.095   6.870  1.00  0.00    -0.227 OA
HETATM    9  C3  UNL     1       8.556 -29.543   8.210  1.00  0.00     0.172 C 
HETATM   10  C4  UNL     1       7.217 -29.741   7.409  1.00  0.00     0.059 C 
HETATM   11  C5  UNL     1       7.655 -29.562   5.983  1.00  0.00     0.033 C 
HETATM   12  C6  UNL     1       7.356 -30.834   5.216  1.00  0.00     0.008 C 
HETATM   13  C7  UNL     1       6.740 -31.793   6.166  1.00  0.00     0.011 C 
HETATM   14  C10 UNL     1       6.976 -31.173   7.539  1.00  0.00     0.111 C 
HETATM   15  N4  UNL     1       6.359 -28.747   7.950  1.00  0.00    -0.358 N 
ENDROOT
BRANCH  14  16
HETATM   16  C11 UNL     1       6.009 -31.762   8.425  1.00  0.00     0.224 C 
HETATM   17  O5  UNL     1       6.265 -31.975   9.632  1.00  0.00    -0.273 OA
HETATM   18  N2  UNL     1       4.702 -32.147   8.013  1.00  0.00    -0.359 N 
ATOM     19  H2  UNL     1       4.429 -32.000   7.041  1.00  0.00     0.162 HD
BRANCH  18  20
HETATM   20  C12 UNL     1       3.733 -32.748   8.937  1.00  0.00     0.150 C 
BRANCH  20  21
HETATM   21  C13 UNL     1       3.782 -34.248   8.833  1.00  0.00     0.249 C 
BRANCH  21  22
HETATM   22  N3  UNL     1       2.737 -34.672   7.890  1.00  0.00    -0.078 N 
ATOM     23  H33 UNL     1       2.122 -33.907   7.612  1.00  0.00     0.274 HD
ATOM     24  H32 UNL     1       3.106 -34.892   6.965  1.00  0.00     0.274 HD
ATOM     25  H31 UNL     1       2.232 -35.453   8.309  1.00  0.00     0.274 HD
ENDBRANCH  21  22
ENDBRANCH  20  21
ENDBRANCH  18  20
ENDBRANCH  14  16
BRANCH  15  26
HETATM   26  C14 UNL     1       4.968 -28.630   8.211  1.00  0.00     0.134 C 
BRANCH  26  27
HETATM   27  C15 UNL     1       4.000 -28.268   7.133  1.00  0.00    -0.023 C 
HETATM   28  C16 UNL     1       2.660 -28.861   7.659  1.00  0.00     0.015 C 
HETATM   29  C17 UNL     1       1.501 -28.510   6.805  1.00  0.00    -0.013 C 
HETATM   30  C18 UNL     1       1.317 -27.019   6.806  1.00  0.00     0.009 C 
HETATM   31  C22 UNL     1       1.758 -29.056   5.415  1.00  0.00     0.009 C 
HETATM   32  C19 UNL     1       2.585 -26.434   6.230  1.00  0.00    -0.013 C 
HETATM   33  C20 UNL     1       2.828 -26.920   4.819  1.00  0.00     0.009 C 
HETATM   34  C24 UNL     1       3.786 -26.739   7.094  1.00  0.00     0.015 C 
HETATM   35  C21 UNL     1       3.004 -28.430   4.897  1.00  0.00    -0.013 C 
HETATM   36  C23 UNL     1       4.232 -28.662   5.749  1.00  0.00     0.015 C 
ENDBRANCH  26  27
ENDBRANCH  15  26
BRANCH  13  37
HETATM   37  C8  UNL     1       7.266 -33.200   6.074  1.00  0.00     0.118 C 
BRANCH  37  38
HETATM   38  C9  UNL     1       6.307 -34.115   5.400  1.00  0.00     0.172 C 
HETATM   39  O3  UNL     1       5.448 -34.712   6.093  1.00  0.00    -0.648 OA
HETATM   40  O4  UNL     1       6.330 -34.329   4.040  1.00  0.00    -0.648 OA
ENDBRANCH  37  38
ENDBRANCH  13  37
TORSDOF 8
ENDMDL
MODEL 4
REMARK VINA RESULT: -7.239497473      0.970      1.436
REMARK  8 active torsions:
REMARK  status: ('A' for Active; 'I' for Inactive)
REMARK    1  A    between atoms: C7_13  and  C8_14 
REMARK    2  A    between atoms: C8_14  and  C9_15 
REMARK    3  A    between atoms: C10_18  and  C11_19 
REMARK       I    between atoms: C11_19  and  N2_21 
REMARK    4  A    between atoms: N2_21  and  C12_23 
REMARK    5  A    between atoms: C12_23  and  C13_24 
REMARK    6  A    between atoms: C13_24  and  N3_25 
REMARK    7  A    between atoms: N4_29  and  C14_30 
REMARK    8  A    between atoms: C14_30  and  C15_31 
ROOT
HETATM    1  N1  UNL     1       4.093 -28.189   5.404  1.00  0.00    -0.388 N 
ATOM      2  H11 UNL     1       4.783 -28.616   4.786  1.00  0.00     0.157 HD
ATOM      3  H12 UNL     1       3.361 -27.557   5.080  1.00  0.00     0.157 HD
HETATM    4  C1  UNL     1       4.187 -28.489   6.657  1.00  0.00     0.087 C 
HETATM    5  C2  UNL     1       3.182 -27.869   7.557  1.00  0.00     0.216 C 
HETATM    6  S1  UNL     1       2.271 -29.313   8.023  1.00  0.00     0.153 S 
HETATM    7  O1  UNL     1       1.214 -29.502   6.928  1.00  0.00    -0.227 OA
HETATM    8  O2  UNL     1       1.512 -29.222   9.268  1.00  0.00    -0.227 OA
HETATM    9  C3  UNL     1       3.374 -30.645   7.825  1.00  0.00     0.172 C 
HETATM   10  C4  UNL     1       4.868 -30.291   8.166  1.00  0.00     0.059 C 
HETATM   11  C5  UNL     1       4.764 -29.715   9.550  1.00  0.00     0.033 C 
HETATM   12  C6  UNL     1       5.596 -30.558  10.494  1.00  0.00     0.008 C 
HETATM   13  C7  UNL     1       6.208 -31.649   9.696  1.00  0.00     0.011 C 
HETATM   14  C10 UNL     1       5.472 -31.603   8.361  1.00  0.00     0.111 C 
HETATM   15  N4  UNL     1       5.242 -29.401   7.124  1.00  0.00    -0.358 N 
ENDROOT
BRANCH  14  16
HETATM   16  C11 UNL     1       6.317 -32.264   7.405  1.00  0.00     0.224 C 
HETATM   17  O5  UNL     1       7.566 -32.219   7.486  1.00  0.00    -0.273 OA
HETATM   18  N2  UNL     1       5.815 -33.013   6.303  1.00  0.00    -0.359 N 
ATOM     19  H2  UNL     1       4.805 -33.090   6.179  1.00  0.00     0.162 HD
BRANCH  18  20
HETATM   20  C12 UNL     1       6.700 -33.679   5.339  1.00  0.00     0.150 C 
BRANCH  20  21
HETATM   21  C13 UNL     1       6.903 -32.801   4.135  1.00  0.00     0.249 C 
BRANCH  21  22
HETATM   22  N3  UNL     1       5.650 -32.788   3.365  1.00  0.00    -0.078 N 
ATOM     23  H33 UNL     1       5.798 -32.600   2.374  1.00  0.00     0.274 HD
ATOM     24  H32 UNL     1       5.238 -33.716   3.268  1.00  0.00     0.274 HD
ATOM     25  H31 UNL     1       5.018 -32.118   3.803  1.00  0.00     0.274 HD
ENDBRANCH  21  22
ENDBRANCH  20  21
ENDBRANCH  18  20
ENDBRANCH  14  16
BRANCH  15  26
HETATM   26  C14 UNL     1       6.431 -29.115   6.401  1.00  0.00     0.134 C 
BRANCH  26  27
HETATM   27  C15 UNL     1       7.548 -28.336   7.014  1.00  0.00    -0.023 C 
HETATM   28  C16 UNL     1       8.503 -28.096   5.808  1.00  0.00     0.015 C 
HETATM   29  C17 UNL     1       9.645 -27.213   6.145  1.00  0.00    -0.013 C 
HETATM   30  C18 UNL     1       9.127 -25.858   6.533  1.00  0.00     0.009 C 
HETATM   31  C22 UNL     1      10.432 -27.869   7.262  1.00  0.00     0.009 C 
HETATM   32  C19 UNL     1       8.254 -26.067   7.748  1.00  0.00    -0.013 C 
HETATM   33  C20 UNL     1       9.036 -26.666   8.895  1.00  0.00     0.009 C 
HETATM   34  C24 UNL     1       7.057 -26.933   7.435  1.00  0.00     0.015 C 
HETATM   35  C21 UNL     1       9.526 -28.030   8.432  1.00  0.00    -0.013 C 
HETATM   36  C23 UNL     1       8.283 -28.849   8.162  1.00  0.00     0.015 C 
ENDBRANCH  26  27
ENDBRANCH  15  26
BRANCH  13  37
HETATM   37  C8  UNL     1       6.149 -33.010  10.336  1.00  0.00     0.118 C 
BRANCH  37  38
HETATM   38  C9  UNL     1       6.919 -33.066  11.607  1.00  0.00     0.172 C 
HETATM   39  O3  UNL     1       6.378 -33.564  12.623  1.00  0.00    -0.648 OA
HETATM   40  O4  UNL     1       8.207 -32.589  11.706  1.00  0.00    -0.648 OA
ENDBRANCH  37  38
ENDBRANCH  13  37
TORSDOF 8
ENDMDL
MODEL 5
REMARK VINA RESULT: -7.071193961      0.814      1.662
REMARK  8 active torsions:
REMARK  status: ('A' for Active; 'I' for Inactive)
REMARK    1  A    between atoms: C7_13  and  C8_14 
REMARK    2  A    between atoms: C8_14  and  C9_15 
REMARK    3  A    between atoms: C10_18  and  C11_19 
REMARK       I    between atoms: C11_19  and  N2_21 
REMARK    4  A    between atoms: N2_21  and  C12_23 
REMARK    5  A    between atoms: C12_23  and  C13_24 
REMARK    6  A    between atoms: C13_24  and  N3_25 
REMARK    7  A    between atoms: N4_29  and  C14_30 
REMARK    8  A    between atoms: C14_30  and  C15_31 
ROOT
HETATM    1  N1  UNL     1       4.241 -28.107   5.568  1.00  0.00    -0.388 N 
ATOM      2  H11 UNL     1       4.959 -28.524   4.975  1.00  0.00     0.157 HD
ATOM      3  H12 UNL     1       3.540 -27.450   5.227  1.00  0.00     0.157 HD
HETATM    4  C1  UNL     1       4.258 -28.453   6.813  1.00  0.00     0.087 C 
HETATM    5  C2  UNL     1       3.214 -27.846   7.677  1.00  0.00     0.216 C 
HETATM    6  S1  UNL     1       2.254 -29.289   8.038  1.00  0.00     0.153 S 
HETATM    7  O1  UNL     1       1.259 -29.420   6.878  1.00  0.00    -0.227 OA
HETATM    8  O2  UNL     1       1.427 -29.228   9.240  1.00  0.00    -0.227 OA
HETATM    9  C3  UNL     1       3.345 -30.634   7.853  1.00  0.00     0.172 C 
HETATM   10  C4  UNL     1       4.822 -30.319   8.292  1.00  0.00     0.059 C 
HETATM   11  C5  UNL     1       4.649 -29.791   9.687  1.00  0.00     0.033 C 
HETATM   12  C6  UNL     1       5.412 -30.683  10.646  1.00  0.00     0.008 C 
HETATM   13  C7  UNL     1       6.050 -31.756   9.844  1.00  0.00     0.011 C 
HETATM   14  C10 UNL     1       5.393 -31.649   8.472  1.00  0.00     0.111 C 
HETATM   15  N4  UNL     1       5.270 -29.400   7.305  1.00  0.00    -0.358 N 
ENDROOT
BRANCH  14  16
HETATM   16  C11 UNL     1       6.280 -32.291   7.542  1.00  0.00     0.224 C 
HETATM   17  O5  UNL     1       7.512 -32.367   7.751  1.00  0.00    -0.273 OA
HETATM   18  N2  UNL     1       5.841 -32.885   6.324  1.00  0.00    -0.359 N 
ATOM     19  H2  UNL     1       4.848 -32.858   6.094  1.00  0.00     0.162 HD
BRANCH  18  20
HETATM   20  C12 UNL     1       6.768 -33.534   5.390  1.00  0.00     0.150 C 
BRANCH  20  21
HETATM   21  C13 UNL     1       7.036 -32.630   4.217  1.00  0.00     0.249 C 
BRANCH  21  22
HETATM   22  N3  UNL     1       5.852 -32.654   3.346  1.00  0.00    -0.078 N 
ATOM     23  H33 UNL     1       6.091 -32.639   2.355  1.00  0.00     0.274 HD
ATOM     24  H32 UNL     1       5.372 -33.554   3.356  1.00  0.00     0.274 HD
ATOM     25  H31 UNL     1       5.245 -31.880   3.618  1.00  0.00     0.274 HD
ENDBRANCH  21  22
ENDBRANCH  20  21
ENDBRANCH  18  20
ENDBRANCH  14  16
BRANCH  15  26
HETATM   26  C14 UNL     1       6.503 -29.111   6.662  1.00  0.00     0.134 C 
BRANCH  26  27
HETATM   27  C15 UNL     1       7.594 -28.370   7.364  1.00  0.00    -0.023 C 
HETATM   28  C16 UNL     1       6.808 -27.344   8.234  1.00  0.00     0.015 C 
HETATM   29  C17 UNL     1       7.687 -26.567   9.138  1.00  0.00    -0.013 C 
HETATM   30  C18 UNL     1       8.354 -27.500  10.108  1.00  0.00     0.009 C 
HETATM   31  C22 UNL     1       8.689 -25.812   8.286  1.00  0.00     0.009 C 
HETATM   32  C19 UNL     1       9.177 -28.458   9.279  1.00  0.00    -0.013 C 
HETATM   33  C20 UNL     1      10.223 -27.729   8.466  1.00  0.00     0.009 C 
HETATM   34  C24 UNL     1       8.312 -29.297   8.369  1.00  0.00     0.015 C 
HETATM   35  C21 UNL     1       9.478 -26.807   7.512  1.00  0.00    -0.013 C 
HETATM   36  C23 UNL     1       8.657 -27.710   6.618  1.00  0.00     0.015 C 
ENDBRANCH  26  27
ENDBRANCH  15  26
BRANCH  13  37
HETATM   37  C8  UNL     1       5.932 -33.137  10.429  1.00  0.00     0.118 C 
BRANCH  37  38
HETATM   38  C9  UNL     1       6.710 -33.281  11.689  1.00  0.00     0.172 C 
HETATM   39  O3  UNL     1       6.179 -33.857  12.668  1.00  0.00    -0.648 OA
HETATM   40  O4  UNL     1       7.995 -32.802  11.816  1.00  0.00    -0.648 OA
ENDBRANCH  37  38
ENDBRANCH  13  37
TORSDOF 8
ENDMDL
