MODEL 1
REMARK VINA RESULT: -6.918225506      0.000      0.000
REMARK  9 active torsions:
REMARK  status: ('A' for Active; 'I' for Inactive)
REMARK    1  A    between atoms: C2_2  and  C3_4 
REMARK    2  A    between atoms: C3_4  and  C4_5 
REMARK    3  A    between atoms: C6_10  and  C7_11 
REMARK    4  A    between atoms: C7_11  and  C8_12 
REMARK    5  A    between atoms: C11_15  and  C12_16 
REMARK       I    between atoms: C12_16  and  N2_18 
REMARK    6  A    between atoms: N2_18  and  C13_20 
REMARK    7  A    between atoms: C18_28  and  N4_29 
REMARK       I    between atoms: N4_29  and  C19_30 
REMARK    8  A    between atoms: N4_29  and  C23_37 
REMARK       I    between atoms: C19_30  and  N5_32 
REMARK    9  A    between atoms: N5_32  and  C20_34 
ROOT
HETATM    1  C4  UNL     1       7.123 -30.968   6.995  1.00  0.00     0.147 C 
HETATM    2  N1  UNL     1       6.874 -29.547   6.744  1.00  0.00    -0.350 N 
ATOM      3  H1  UNL     1       7.696 -29.077   6.365  1.00  0.00     0.163 HD
HETATM    4  C5  UNL     1       5.778 -28.658   6.895  1.00  0.00     0.228 C 
HETATM    5  O2  UNL     1       6.202 -27.550   7.427  1.00  0.00    -0.273 OA
HETATM    6  C6  UNL     1       4.288 -28.632   6.628  1.00  0.00     0.134 C 
HETATM    7  C11 UNL     1       3.670 -29.455   7.689  1.00  0.00     0.093 C 
HETATM    8  N3  UNL     1       4.061 -30.848   7.791  1.00  0.00    -0.320 N 
ATOM      9  H3  UNL     1       3.287 -31.422   7.456  1.00  0.00     0.169 HD
HETATM   10  C17 UNL     1       5.116 -31.712   8.182  1.00  0.00     0.271 C 
HETATM   11  O4  UNL     1       4.735 -32.881   8.462  1.00  0.00    -0.266 OA
HETATM   12  C18 UNL     1       6.562 -31.442   8.297  1.00  0.00     0.107 C 
ENDROOT
BRANCH  12  13
HETATM   13  N4  UNL     1       7.335 -32.353   9.063  1.00  0.00    -0.292 N 
HETATM   14  C19 UNL     1       7.721 -33.681   8.720  1.00  0.00     0.323 C 
HETATM   15  O5  UNL     1       7.277 -34.356   7.762  1.00  0.00    -0.247 OA
HETATM   16  N5  UNL     1       8.715 -34.432   9.479  1.00  0.00    -0.339 N 
ATOM     17  H5  UNL     1       9.152 -33.973  10.278  1.00  0.00     0.164 HD
BRANCH  16  18
HETATM   18  C20 UNL     1       9.113 -35.768   9.175  1.00  0.00     0.078 C 
HETATM   19  C21 UNL     1      10.600 -35.965   9.071  1.00  0.00     0.032 C 
HETATM   20  C22 UNL     1       8.587 -36.839  10.087  1.00  0.00     0.032 C 
ENDBRANCH  16  18
BRANCH  13  21
HETATM   21  C23 UNL     1       7.705 -31.922  10.435  1.00  0.00     0.086 C 
HETATM   22  C24 UNL     1       6.575 -32.449  11.363  1.00  0.00     0.032 C 
HETATM   23  C25 UNL     1       7.671 -30.421  10.462  1.00  0.00     0.032 C 
ENDBRANCH  13  21
ENDBRANCH  12  13
BRANCH   1  24
HETATM   24  C3  UNL     1       6.871 -31.747   5.764  1.00  0.00     0.109 C 
BRANCH  24  25
HETATM   25  C2  UNL     1       8.166 -32.280   5.231  1.00  0.00     0.125 C 
HETATM   26  C1  UNL     1       8.236 -33.103   3.978  1.00  0.00     0.091 C 
HETATM   27  O1  UNL     1       9.253 -32.087   5.771  1.00  0.00    -0.298 OA
ENDBRANCH  24  25
ENDBRANCH   1  24
BRANCH   7  28
HETATM   28  C12 UNL     1       2.297 -29.272   8.124  1.00  0.00     0.265 C 
HETATM   29  O3  UNL     1       1.946 -29.056   9.304  1.00  0.00    -0.266 OA
HETATM   30  N2  UNL     1       1.210 -29.365   7.163  1.00  0.00    -0.348 N 
ATOM     31  H2  UNL     1       1.437 -29.558   6.187  1.00  0.00     0.163 HD
BRANCH  30  32
HETATM   32  C13 UNL     1      -0.177 -29.195   7.529  1.00  0.00     0.022 C 
HETATM   33  C14 UNL     1      -0.783 -30.390   8.192  1.00  0.00     0.037 C 
HETATM   34  C15 UNL     1      -0.466 -27.884   8.158  1.00  0.00     0.037 C 
HETATM   35  C16 UNL     1      -0.934 -29.163   6.150  1.00  0.00     0.037 C 
ENDBRANCH  30  32
ENDBRANCH   7  28
BRANCH   6  36
HETATM   36  C7  UNL     1       3.884 -27.179   6.859  1.00  0.00     0.024 C 
BRANCH  36  37
HETATM   37  C8  UNL     1       3.369 -26.429   5.700  1.00  0.00    -0.022 C 
HETATM   38  C9  UNL     1       2.562 -27.308   4.721  1.00  0.00     0.009 C 
HETATM   39  C10 UNL     1       2.516 -25.225   6.026  1.00  0.00     0.009 C 
ENDBRANCH  36  37
ENDBRANCH   6  36
TORSDOF 9
ENDMDL
MODEL 2
REMARK VINA RESULT: -6.894127243      1.703      2.007
REMARK  9 active torsions:
REMARK  status: ('A' for Active; 'I' for Inactive)
REMARK    1  A    between atoms: C2_2  and  C3_4 
REMARK    2  A    between atoms: C3_4  and  C4_5 
REMARK    3  A    between atoms: C6_10  and  C7_11 
REMARK    4  A    between atoms: C7_11  and  C8_12 
REMARK    5  A    between atoms: C11_15  and  C12_16 
REMARK       I    between atoms: C12_16  and  N2_18 
REMARK    6  A    between atoms: N2_18  and  C13_20 
REMARK    7  A    between atoms: C18_28  and  N4_29 
REMARK       I    between atoms: N4_29  and  C19_30 
REMARK    8  A    between atoms: N4_29  and  C23_37 
REMARK       I    between atoms: C19_30  and  N5_32 
REMARK    9  A    between atoms: N5_32  and  C20_34 
ROOT
HETATM    1  C4  UNL     1       6.713 -32.864   7.814  1.00  0.00     0.147 C 
HETATM    2  N1  UNL     1       6.829 -31.407   7.719  1.00  0.00    -0.350 N 
ATOM      3  H1  UNL     1       7.781 -31.114   7.499  1.00  0.00     0.163 HD
HETATM    4  C5  UNL     1       5.952 -30.300   7.855  1.00  0.00     0.228 C 
HETATM    5  O2  UNL     1       6.535 -29.383   8.568  1.00  0.00    -0.273 OA
HETATM    6  C6  UNL     1       4.558 -29.892   7.425  1.00  0.00     0.134 C 
HETATM    7  C11 UNL     1       3.628 -30.640   8.295  1.00  0.00     0.093 C 
HETATM    8  N3  UNL     1       3.676 -32.090   8.263  1.00  0.00    -0.320 N 
ATOM      9  H3  UNL     1       2.848 -32.426   7.772  1.00  0.00     0.169 HD
HETATM   10  C17 UNL     1       4.444 -33.216   8.660  1.00  0.00     0.271 C 
HETATM   11  O4  UNL     1       3.773 -34.280   8.743  1.00  0.00    -0.266 OA
HETATM   12  C18 UNL     1       5.882 -33.312   8.972  1.00  0.00     0.107 C 
ENDROOT
BRANCH  12  13
HETATM   13  N4  UNL     1       6.313 -34.452   9.700  1.00  0.00    -0.292 N 
HETATM   14  C19 UNL     1       6.456 -35.790   9.232  1.00  0.00     0.323 C 
HETATM   15  O5  UNL     1       6.032 -36.241   8.142  1.00  0.00    -0.247 OA
HETATM   16  N5  UNL     1       7.135 -36.825  10.003  1.00  0.00    -0.339 N 
ATOM     17  H5  UNL     1       7.531 -36.566  10.907  1.00  0.00     0.164 HD
BRANCH  16  18
HETATM   18  C20 UNL     1       7.282 -38.178   9.573  1.00  0.00     0.078 C 
HETATM   19  C21 UNL     1       8.626 -38.783   9.869  1.00  0.00     0.032 C 
HETATM   20  C22 UNL     1       6.244 -39.145  10.066  1.00  0.00     0.032 C 
ENDBRANCH  16  18
BRANCH  13  21
HETATM   21  C23 UNL     1       6.549 -34.263  11.154  1.00  0.00     0.086 C 
HETATM   22  C24 UNL     1       5.331 -34.914  11.868  1.00  0.00     0.032 C 
HETATM   23  C25 UNL     1       6.518 -32.787  11.429  1.00  0.00     0.032 C 
ENDBRANCH  13  21
ENDBRANCH  12  13
BRANCH   1  24
HETATM   24  C3  UNL     1       6.469 -33.437   6.474  1.00  0.00     0.109 C 
BRANCH  24  25
HETATM   25  C2  UNL     1       7.368 -32.779   5.472  1.00  0.00     0.125 C 
HETATM   26  C1  UNL     1       8.755 -33.278   5.194  1.00  0.00     0.091 C 
HETATM   27  O1  UNL     1       7.044 -31.794   4.814  1.00  0.00    -0.298 OA
ENDBRANCH  24  25
ENDBRANCH   1  24
BRANCH   7  28
HETATM   28  C12 UNL     1       2.284 -30.176   8.589  1.00  0.00     0.265 C 
HETATM   29  O3  UNL     1       1.813 -30.042   9.739  1.00  0.00    -0.266 OA
HETATM   30  N2  UNL     1       1.370 -29.857   7.505  1.00  0.00    -0.348 N 
ATOM     31  H2  UNL     1       1.695 -29.966   6.544  1.00  0.00     0.163 HD
BRANCH  30  32
HETATM   32  C13 UNL     1       0.021 -29.393   7.728  1.00  0.00     0.022 C 
HETATM   33  C14 UNL     1      -0.915 -30.449   8.223  1.00  0.00     0.037 C 
HETATM   34  C15 UNL     1      -0.047 -28.085   8.424  1.00  0.00     0.037 C 
HETATM   35  C16 UNL     1      -0.531 -29.114   6.281  1.00  0.00     0.037 C 
ENDBRANCH  30  32
ENDBRANCH   7  28
BRANCH   6  36
HETATM   36  C7  UNL     1       4.464 -28.413   7.791  1.00  0.00     0.024 C 
BRANCH  36  37
HETATM   37  C8  UNL     1       4.157 -27.467   6.704  1.00  0.00    -0.022 C 
HETATM   38  C9  UNL     1       3.588 -28.155   5.446  1.00  0.00     0.009 C 
HETATM   39  C10 UNL     1       3.215 -26.341   7.062  1.00  0.00     0.009 C 
ENDBRANCH  36  37
ENDBRANCH   6  36
TORSDOF 9
ENDMDL
MODEL 3
REMARK VINA RESULT: -6.767217504      2.061      2.520
REMARK  9 active torsions:
REMARK  status: ('A' for Active; 'I' for Inactive)
REMARK    1  A    between atoms: C2_2  and  C3_4 
REMARK    2  A    between atoms: C3_4  and  C4_5 
REMARK    3  A    between atoms: C6_10  and  C7_11 
REMARK    4  A    between atoms: C7_11  and  C8_12 
REMARK    5  A    between atoms: C11_15  and  C12_16 
REMARK       I    between atoms: C12_16  and  N2_18 
REMARK    6  A    between atoms: N2_18  and  C13_20 
REMARK    7  A    between atoms: C18_28  and  N4_29 
REMARK       I    between atoms: N4_29  and  C19_30 
REMARK    8  A    between atoms: N4_29  and  C23_37 
REMARK       I    between atoms: C19_30  and  N5_32 
REMARK    9  A    between atoms: N5_32  and  C20_34 
ROOT
HETATM    1  C4  UNL     1       6.654 -32.979   7.701  1.00  0.00     0.147 C 
HETATM    2  N1  UNL     1       6.829 -31.552   7.982  1.00  0.00    -0.350 N 
ATOM      3  H1  UNL     1       7.809 -31.273   7.939  1.00  0.00     0.163 HD
HETATM    4  C5  UNL     1       5.981 -30.460   8.298  1.00  0.00     0.228 C 
HETATM    5  O2  UNL     1       6.510 -29.780   9.271  1.00  0.00    -0.273 OA
HETATM    6  C6  UNL     1       4.659 -29.875   7.844  1.00  0.00     0.134 C 
HETATM    7  C11 UNL     1       3.612 -30.755   8.404  1.00  0.00     0.093 C 
HETATM    8  N3  UNL     1       3.613 -32.154   8.019  1.00  0.00    -0.320 N 
ATOM      9  H3  UNL     1       2.835 -32.310   7.379  1.00  0.00     0.169 HD
HETATM   10  C17 UNL     1       4.292 -33.386   8.200  1.00  0.00     0.271 C 
HETATM   11  O4  UNL     1       3.580 -34.397   7.949  1.00  0.00    -0.266 OA
HETATM   12  C18 UNL     1       5.682 -33.643   8.622  1.00  0.00     0.107 C 
ENDROOT
BRANCH  12  13
HETATM   13  N4  UNL     1       5.989 -34.949   9.085  1.00  0.00    -0.292 N 
HETATM   14  C19 UNL     1       6.164 -36.135   8.315  1.00  0.00     0.323 C 
HETATM   15  O5  UNL     1       5.878 -36.278   7.103  1.00  0.00    -0.247 OA
HETATM   16  N5  UNL     1       6.714 -37.364   8.876  1.00  0.00    -0.339 N 
ATOM     17  H5  UNL     1       6.992 -37.359   9.857  1.00  0.00     0.164 HD
BRANCH  16  18
HETATM   18  C20 UNL     1       6.887 -38.574   8.139  1.00  0.00     0.078 C 
HETATM   19  C21 UNL     1       8.212 -39.250   8.355  1.00  0.00     0.032 C 
HETATM   20  C22 UNL     1       5.823 -39.618   8.323  1.00  0.00     0.032 C 
ENDBRANCH  16  18
BRANCH  13  21
HETATM   21  C23 UNL     1       6.036 -35.140  10.558  1.00  0.00     0.086 C 
HETATM   22  C24 UNL     1       4.647 -35.717  10.952  1.00  0.00     0.032 C 
HETATM   23  C25 UNL     1       6.174 -33.783  11.185  1.00  0.00     0.032 C 
ENDBRANCH  13  21
ENDBRANCH  12  13
BRANCH   1  24
HETATM   24  C3  UNL     1       6.543 -33.194   6.244  1.00  0.00     0.109 C 
BRANCH  24  25
HETATM   25  C2  UNL     1       7.593 -32.395   5.534  1.00  0.00     0.125 C 
HETATM   26  C1  UNL     1       8.925 -32.977   5.163  1.00  0.00     0.091 C 
HETATM   27  O1  UNL     1       7.446 -31.219   5.209  1.00  0.00    -0.298 OA
ENDBRANCH  24  25
ENDBRANCH   1  24
BRANCH   7  28
HETATM   28  C12 UNL     1       2.260 -30.294   8.667  1.00  0.00     0.265 C 
HETATM   29  O3  UNL     1       1.730 -30.249   9.798  1.00  0.00    -0.266 OA
HETATM   30  N2  UNL     1       1.408 -29.872   7.567  1.00  0.00    -0.348 N 
ATOM     31  H2  UNL     1       1.782 -29.905   6.619  1.00  0.00     0.163 HD
BRANCH  30  32
HETATM   32  C13 UNL     1       0.054 -29.406   7.759  1.00  0.00     0.022 C 
HETATM   33  C14 UNL     1      -0.898 -30.466   8.212  1.00  0.00     0.037 C 
HETATM   34  C15 UNL     1      -0.029 -28.108   8.472  1.00  0.00     0.037 C 
HETATM   35  C16 UNL     1      -0.455 -29.104   6.301  1.00  0.00     0.037 C 
ENDBRANCH  30  32
ENDBRANCH   7  28
BRANCH   6  36
HETATM   36  C7  UNL     1       4.575 -28.527   8.553  1.00  0.00     0.024 C 
BRANCH  36  37
HETATM   37  C8  UNL     1       4.586 -27.319   7.709  1.00  0.00    -0.022 C 
HETATM   38  C9  UNL     1       6.010 -26.855   7.337  1.00  0.00     0.009 C 
HETATM   39  C10 UNL     1       3.795 -27.410   6.425  1.00  0.00     0.009 C 
ENDBRANCH  36  37
ENDBRANCH   6  36
TORSDOF 9
ENDMDL
MODEL 4
REMARK VINA RESULT: -6.764890420      2.310      4.605
REMARK  9 active torsions:
REMARK  status: ('A' for Active; 'I' for Inactive)
REMARK    1  A    between atoms: C2_2  and  C3_4 
REMARK    2  A    between atoms: C3_4  and  C4_5 
REMARK    3  A    between atoms: C6_10  and  C7_11 
REMARK    4  A    between atoms: C7_11  and  C8_12 
REMARK    5  A    between atoms: C11_15  and  C12_16 
REMARK       I    between atoms: C12_16  and  N2_18 
REMARK    6  A    between atoms: N2_18  and  C13_20 
REMARK    7  A    between atoms: C18_28  and  N4_29 
REMARK       I    between atoms: N4_29  and  C19_30 
REMARK    8  A    between atoms: N4_29  and  C23_37 
REMARK       I    between atoms: C19_30  and  N5_32 
REMARK    9  A    between atoms: N5_32  and  C20_34 
ROOT
HETATM    1  C4  UNL     1       5.537 -31.487   9.415  1.00  0.00     0.147 C 
HETATM    2  N1  UNL     1       4.112 -31.822   9.359  1.00  0.00    -0.350 N 
ATOM      3  H1  UNL     1       3.874 -32.581   9.998  1.00  0.00     0.163 HD
HETATM    4  C5  UNL     1       2.980 -31.360   8.641  1.00  0.00     0.228 C 
HETATM    5  O2  UNL     1       2.299 -32.383   8.217  1.00  0.00    -0.273 OA
HETATM    6  C6  UNL     1       2.352 -30.044   8.228  1.00  0.00     0.134 C 
HETATM    7  C11 UNL     1       3.175 -29.534   7.111  1.00  0.00     0.093 C 
HETATM    8  N3  UNL     1       4.582 -29.277   7.358  1.00  0.00    -0.320 N 
ATOM      9  H3  UNL     1       4.721 -28.267   7.390  1.00  0.00     0.169 HD
HETATM   10  C17 UNL     1       5.836 -29.904   7.572  1.00  0.00     0.271 C 
HETATM   11  O4  UNL     1       6.822 -29.167   7.298  1.00  0.00    -0.266 OA
HETATM   12  C18 UNL     1       6.140 -31.260   8.066  1.00  0.00     0.107 C 
ENDROOT
BRANCH  12  13
HETATM   13  N4  UNL     1       7.446 -31.761   7.828  1.00  0.00    -0.292 N 
HETATM   14  C19 UNL     1       8.666 -31.360   8.445  1.00  0.00     0.323 C 
HETATM   15  O5  UNL     1       8.832 -30.349   9.167  1.00  0.00    -0.247 OA
HETATM   16  N5  UNL     1       9.908 -32.110   8.296  1.00  0.00    -0.339 N 
ATOM     17  H5  UNL     1       9.886 -32.962   7.734  1.00  0.00     0.164 HD
BRANCH  16  18
HETATM   18  C20 UNL     1      11.150 -31.729   8.884  1.00  0.00     0.078 C 
HETATM   19  C21 UNL     1      11.445 -32.394  10.201  1.00  0.00     0.032 C 
HETATM   20  C22 UNL     1      12.370 -31.895   8.023  1.00  0.00     0.032 C 
ENDBRANCH  16  18
BRANCH  13  21
HETATM   21  C23 UNL     1       7.589 -32.752   6.731  1.00  0.00     0.086 C 
HETATM   22  C24 UNL     1       7.729 -31.919   5.425  1.00  0.00     0.032 C 
HETATM   23  C25 UNL     1       6.308 -33.530   6.654  1.00  0.00     0.032 C 
ENDBRANCH  13  21
ENDBRANCH  12  13
BRANCH   1  24
HETATM   24  C3  UNL     1       5.781 -30.511  10.497  1.00  0.00     0.109 C 
BRANCH  24  25
HETATM   25  C2  UNL     1       6.689 -31.115  11.526  1.00  0.00     0.125 C 
HETATM   26  C1  UNL     1       6.861 -32.598  11.667  1.00  0.00     0.091 C 
HETATM   27  O1  UNL     1       7.350 -30.450  12.319  1.00  0.00    -0.298 OA
ENDBRANCH  24  25
ENDBRANCH   1  24
BRANCH   7  28
HETATM   28  C12 UNL     1       2.655 -28.627   6.104  1.00  0.00     0.265 C 
HETATM   29  O3  UNL     1       2.381 -28.949   4.928  1.00  0.00    -0.266 OA
HETATM   30  N2  UNL     1       2.445 -27.224   6.426  1.00  0.00    -0.348 N 
ATOM     31  H2  UNL     1       2.669 -26.901   7.367  1.00  0.00     0.163 HD
BRANCH  30  32
HETATM   32  C13 UNL     1       1.933 -26.269   5.471  1.00  0.00     0.022 C 
HETATM   33  C14 UNL     1       2.655 -26.267   4.162  1.00  0.00     0.037 C 
HETATM   34  C15 UNL     1       0.452 -26.243   5.398  1.00  0.00     0.037 C 
HETATM   35  C16 UNL     1       2.336 -24.873   6.075  1.00  0.00     0.037 C 
ENDBRANCH  30  32
ENDBRANCH   7  28
BRANCH   6  36
HETATM   36  C7  UNL     1       0.985 -30.431   7.671  1.00  0.00     0.024 C 
BRANCH  36  37
HETATM   37  C8  UNL     1      -0.200 -29.850   8.326  1.00  0.00    -0.022 C 
HETATM   38  C9  UNL     1      -0.077 -28.330   8.557  1.00  0.00     0.009 C 
HETATM   39  C10 UNL     1      -1.518 -30.091   7.627  1.00  0.00     0.009 C 
ENDBRANCH  36  37
ENDBRANCH   6  36
TORSDOF 9
ENDMDL
MODEL 5
REMARK VINA RESULT: -6.484193456      4.084      6.875
REMARK  9 active torsions:
REMARK  status: ('A' for Active; 'I' for Inactive)
REMARK    1  A    between atoms: C2_2  and  C3_4 
REMARK    2  A    between atoms: C3_4  and  C4_5 
REMARK    3  A    between atoms: C6_10  and  C7_11 
REMARK    4  A    between atoms: C7_11  and  C8_12 
REMARK    5  A    between atoms: C11_15  and  C12_16 
REMARK       I    between atoms: C12_16  and  N2_18 
REMARK    6  A    between atoms: N2_18  and  C13_20 
REMARK    7  A    between atoms: C18_28  and  N4_29 
REMARK       I    between atoms: N4_29  and  C19_30 
REMARK    8  A    between atoms: N4_29  and  C23_37 
REMARK       I    between atoms: C19_30  and  N5_32 
REMARK    9  A    between atoms: N5_32  and  C20_34 
ROOT
HETATM    1  C4  UNL     1       8.118 -27.549   9.417  1.00  0.00     0.147 C 
HETATM    2  N1  UNL     1       7.292 -28.729   9.685  1.00  0.00    -0.350 N 
ATOM      3  H1  UNL     1       7.633 -29.258  10.488  1.00  0.00     0.163 HD
HETATM    4  C5  UNL     1       6.139 -29.322   9.111  1.00  0.00     0.228 C 
HETATM    5  O2  UNL     1       6.324 -30.605   9.018  1.00  0.00    -0.273 OA
HETATM    6  C6  UNL     1       4.786 -28.898   8.578  1.00  0.00     0.134 C 
HETATM    7  C11 UNL     1       5.041 -28.291   7.255  1.00  0.00     0.093 C 
HETATM    8  N3  UNL     1       5.907 -27.130   7.189  1.00  0.00    -0.320 N 
ATOM      9  H3  UNL     1       5.329 -26.310   7.004  1.00  0.00     0.169 HD
HETATM   10  C17 UNL     1       7.258 -26.707   7.286  1.00  0.00     0.271 C 
HETATM   11  O4  UNL     1       7.487 -25.612   6.703  1.00  0.00    -0.266 OA
HETATM   12  C18 UNL     1       8.401 -27.349   7.963  1.00  0.00     0.107 C 
ENDROOT
BRANCH  12  13
HETATM   13  N4  UNL     1       9.701 -26.920   7.590  1.00  0.00    -0.292 N 
HETATM   14  C19 UNL     1      10.375 -25.723   7.972  1.00  0.00     0.323 C 
HETATM   15  O5  UNL     1       9.858 -24.736   8.546  1.00  0.00    -0.247 OA
HETATM   16  N5  UNL     1      11.795 -25.506   7.723  1.00  0.00    -0.339 N 
ATOM     17  H5  UNL     1      12.320 -26.253   7.267  1.00  0.00     0.164 HD
BRANCH  16  18
HETATM   18  C20 UNL     1      12.497 -24.315   8.075  1.00  0.00     0.078 C 
HETATM   19  C21 UNL     1      13.723 -24.541   8.916  1.00  0.00     0.032 C 
HETATM   20  C22 UNL     1      12.900 -23.422   6.936  1.00  0.00     0.032 C 
ENDBRANCH  16  18
BRANCH  13  21
HETATM   21  C23 UNL     1      10.421 -27.761   6.599  1.00  0.00     0.086 C 
HETATM   22  C24 UNL     1      10.147 -27.109   5.214  1.00  0.00     0.032 C 
HETATM   23  C25 UNL     1       9.782 -29.120   6.611  1.00  0.00     0.032 C 
ENDBRANCH  13  21
ENDBRANCH  12  13
BRANCH   1  24
HETATM   24  C3  UNL     1       7.648 -26.411  10.234  1.00  0.00     0.109 C 
BRANCH  24  25
HETATM   25  C2  UNL     1       8.477 -26.307  11.478  1.00  0.00     0.125 C 
HETATM   26  C1  UNL     1       8.777 -24.990  12.130  1.00  0.00     0.091 C 
HETATM   27  O1  UNL     1       8.967 -27.278  12.049  1.00  0.00    -0.298 OA
ENDBRANCH  24  25
ENDBRANCH   1  24
BRANCH   7  28
HETATM   28  C12 UNL     1       4.037 -28.245   6.207  1.00  0.00     0.265 C 
HETATM   29  O3  UNL     1       4.085 -28.904   5.146  1.00  0.00    -0.266 OA
HETATM   30  N2  UNL     1       2.888 -27.364   6.337  1.00  0.00    -0.348 N 
ATOM     31  H2  UNL     1       2.807 -26.788   7.175  1.00  0.00     0.163 HD
BRANCH  30  32
HETATM   32  C13 UNL     1       1.856 -27.268   5.331  1.00  0.00     0.022 C 
HETATM   33  C14 UNL     1       2.247 -26.472   4.128  1.00  0.00     0.037 C 
HETATM   34  C15 UNL     1       1.169 -28.555   5.065  1.00  0.00     0.037 C 
HETATM   35  C16 UNL     1       0.762 -26.351   5.994  1.00  0.00     0.037 C 
ENDBRANCH  30  32
ENDBRANCH   7  28
BRANCH   6  36
HETATM   36  C7  UNL     1       4.033 -30.208   8.362  1.00  0.00     0.024 C 
BRANCH  36  37
HETATM   37  C8  UNL     1       2.720 -30.348   9.015  1.00  0.00    -0.022 C 
HETATM   38  C9  UNL     1       2.066 -28.992   9.354  1.00  0.00     0.009 C 
HETATM   39  C10 UNL     1       1.696 -31.161   8.257  1.00  0.00     0.009 C 
ENDBRANCH  36  37
ENDBRANCH   6  36
TORSDOF 9
ENDMDL
