MODEL 1
REMARK VINA RESULT: -9.781472955      0.000      0.000
REMARK  9 active torsions:
REMARK  status: ('A' for Active; 'I' for Inactive)
REMARK       I    between atoms: N1_5  and  C5_6 
REMARK    1  A    between atoms: C5_6  and  C6_8 
REMARK    2  A    between atoms: C6_8  and  N2_9 
REMARK    3  A    between atoms: C9_15  and  N3_16 
REMARK       I    between atoms: N3_16  and  C10_18 
REMARK    4  A    between atoms: C10_18  and  C11_20 
REMARK    5  A    between atoms: C11_20  and  N4_21 
REMARK    6  A    between atoms: C11_20  and  C22_38 
REMARK       I    between atoms: N4_21  and  C12_23 
REMARK    7  A    between atoms: C12_23  and  C13_25 
REMARK    8  A    between atoms: C17_29  and  C18_30 
REMARK    9  A    between atoms: C18_30  and  N6_34 
ROOT
HETATM    1  N3  UNL     1      -1.945 -32.870   8.555  1.00  0.00    -0.355 N 
ATOM      2  H3  UNL     1      -1.112 -33.374   8.252  1.00  0.00     0.162 HD
HETATM    3  C10 UNL     1      -3.051 -33.620   9.014  1.00  0.00     0.241 C 
HETATM    4  O2  UNL     1      -4.051 -32.897   9.369  1.00  0.00    -0.271 OA
ENDROOT
BRANCH   3   5
HETATM    5  C11 UNL     1      -3.187 -35.053   9.130  1.00  0.00     0.180 C 
BRANCH   5   6
HETATM    6  N4  UNL     1      -4.320 -35.499   8.319  1.00  0.00    -0.347 N 
HETATM    7  C12 UNL     1      -4.422 -36.848   7.897  1.00  0.00     0.222 C 
HETATM    8  O3  UNL     1      -3.539 -37.656   8.228  1.00  0.00    -0.273 OA
ATOM      9  H4  UNL     1      -5.044 -34.831   8.054  1.00  0.00     0.163 HD
BRANCH   7  10
HETATM   10  C13 UNL     1      -5.558 -37.283   7.074  1.00  0.00     0.078 C 
HETATM   11  C14 UNL     1      -6.833 -37.445   7.882  1.00  0.00     0.014 C 
HETATM   12  C15 UNL     1      -7.962 -37.519   6.843  1.00  0.00     0.002 C 
HETATM   13  C16 UNL     1      -7.764 -38.801   6.074  1.00  0.00     0.012 C 
HETATM   14  C17 UNL     1      -6.385 -38.934   5.477  1.00  0.00     0.053 C 
HETATM   15  C21 UNL     1      -5.287 -38.680   6.483  1.00  0.00     0.026 C 
BRANCH  14  16
HETATM   16  C18 UNL     1      -6.265 -40.258   4.835  1.00  0.00     0.076 C 
HETATM   17  N5  UNL     1      -6.884 -41.283   5.292  1.00  0.00    -0.389 N 
ATOM     18  H52 UNL     1      -7.475 -41.196   6.119  1.00  0.00     0.157 HD
ATOM     19  H51 UNL     1      -6.801 -42.198   4.847  1.00  0.00     0.157 HD
BRANCH  16  20
HETATM   20  N6  UNL     1      -5.444 -40.379   3.686  1.00  0.00    -0.380 N 
HETATM   21  C19 UNL     1      -5.987 -40.088   2.367  1.00  0.00     0.150 C 
HETATM   22  C20 UNL     1      -4.063 -40.786   3.760  1.00  0.00     0.150 C 
ENDBRANCH  16  20
ENDBRANCH  14  16
ENDBRANCH   7  10
ENDBRANCH   5   6
BRANCH   5  23
HETATM   23  C22 UNL     1      -3.330 -35.622  10.509  1.00  0.00     0.009 C 
HETATM   24  C23 UNL     1      -4.717 -35.748  11.022  1.00  0.00     0.012 C 
HETATM   25  C24 UNL     1      -2.403 -34.971  11.505  1.00  0.00     0.012 C 
ENDBRANCH   5  23
ENDBRANCH   3   5
BRANCH   1  26
HETATM   26  C9  UNL     1      -1.931 -31.408   8.492  1.00  0.00     0.087 C 
HETATM   27  C8  UNL     1      -3.026 -30.833   7.665  1.00  0.00     0.028 C 
HETATM   28  C7  UNL     1      -2.421 -29.898   6.669  1.00  0.00     0.051 C 
HETATM   29  C6  UNL     1      -1.038 -29.675   7.158  1.00  0.00     0.205 C 
HETATM   30  C25 UNL     1      -0.649 -30.892   7.921  1.00  0.00     0.074 C 
BRANCH  29  31
HETATM   31  C5  UNL     1      -0.066 -29.237   6.143  1.00  0.00     0.256 C 
HETATM   32  N1  UNL     1       1.333 -29.170   6.261  1.00  0.00    -0.350 N 
HETATM   33  C4  UNL     1       2.119 -29.510   7.408  1.00  0.00     0.126 C 
HETATM   34  C26 UNL     1       2.087 -28.719   5.085  1.00  0.00     0.126 C 
HETATM   35  C3  UNL     1       2.843 -28.237   7.867  1.00  0.00     0.024 C 
HETATM   36  C2  UNL     1       3.707 -27.777   6.743  1.00  0.00    -0.015 C 
HETATM   37  C1  UNL     1       4.337 -26.440   7.145  1.00  0.00     0.010 C 
HETATM   38  C27 UNL     1       2.932 -27.530   5.470  1.00  0.00     0.024 C 
HETATM   39  O1  UNL     1      -0.578 -28.874   5.013  1.00  0.00    -0.271 OA
ENDBRANCH  29  31
BRANCH  29  40
HETATM   40  N2  UNL     1      -1.143 -28.594   8.169  1.00  0.00    -0.061 N 
ATOM     41  H23 UNL     1      -0.272 -28.078   8.293  1.00  0.00     0.275 HD
ATOM     42  H22 UNL     1      -1.718 -27.811   7.857  1.00  0.00     0.275 HD
ATOM     43  H21 UNL     1      -1.482 -29.016   9.034  1.00  0.00     0.275 HD
ENDBRANCH  29  40
ENDBRANCH   1  26
TORSDOF 9
ENDMDL
MODEL 2
REMARK VINA RESULT: -9.604124267      5.265      9.044
REMARK  9 active torsions:
REMARK  status: ('A' for Active; 'I' for Inactive)
REMARK       I    between atoms: N1_5  and  C5_6 
REMARK    1  A    between atoms: C5_6  and  C6_8 
REMARK    2  A    between atoms: C6_8  and  N2_9 
REMARK    3  A    between atoms: C9_15  and  N3_16 
REMARK       I    between atoms: N3_16  and  C10_18 
REMARK    4  A    between atoms: C10_18  and  C11_20 
REMARK    5  A    between atoms: C11_20  and  N4_21 
REMARK    6  A    between atoms: C11_20  and  C22_38 
REMARK       I    between atoms: N4_21  and  C12_23 
REMARK    7  A    between atoms: C12_23  and  C13_25 
REMARK    8  A    between atoms: C17_29  and  C18_30 
REMARK    9  A    between atoms: C18_30  and  N6_34 
ROOT
HETATM    1  N3  UNL     1      -5.586 -39.235   5.086  1.00  0.00    -0.355 N 
ATOM      2  H3  UNL     1      -4.921 -38.596   4.650  1.00  0.00     0.162 HD
HETATM    3  C10 UNL     1      -5.663 -40.557   4.593  1.00  0.00     0.241 C 
HETATM    4  O2  UNL     1      -6.530 -41.284   5.201  1.00  0.00    -0.271 OA
ENDROOT
BRANCH   3   5
HETATM    5  C11 UNL     1      -4.908 -41.170   3.525  1.00  0.00     0.180 C 
BRANCH   5   6
HETATM    6  N4  UNL     1      -3.509 -41.297   3.933  1.00  0.00    -0.347 N 
HETATM    7  C12 UNL     1      -3.058 -42.448   4.627  1.00  0.00     0.222 C 
HETATM    8  O3  UNL     1      -3.865 -43.357   4.883  1.00  0.00    -0.273 OA
ATOM      9  H4  UNL     1      -2.850 -40.549   3.715  1.00  0.00     0.163 HD
BRANCH   7  10
HETATM   10  C13 UNL     1      -1.654 -42.561   5.041  1.00  0.00     0.078 C 
HETATM   11  C14 UNL     1      -0.964 -43.769   4.435  1.00  0.00     0.014 C 
HETATM   12  C15 UNL     1       0.537 -43.525   4.648  1.00  0.00     0.002 C 
HETATM   13  C16 UNL     1       0.782 -43.581   6.136  1.00  0.00     0.012 C 
HETATM   14  C17 UNL     1      -0.100 -42.643   6.922  1.00  0.00     0.053 C 
HETATM   15  C21 UNL     1      -1.561 -42.778   6.564  1.00  0.00     0.026 C 
BRANCH  14  16
HETATM   16  C18 UNL     1       0.148 -42.845   8.363  1.00  0.00     0.076 C 
HETATM   17  N5  UNL     1      -0.467 -43.753   9.028  1.00  0.00    -0.389 N 
ATOM     18  H52 UNL     1      -1.147 -44.354   8.562  1.00  0.00     0.157 HD
ATOM     19  H51 UNL     1      -0.296 -43.892  10.024  1.00  0.00     0.157 HD
BRANCH  16  20
HETATM   20  N6  UNL     1       1.092 -42.010   9.011  1.00  0.00    -0.380 N 
HETATM   21  C19 UNL     1       1.647 -40.859   8.313  1.00  0.00     0.150 C 
HETATM   22  C20 UNL     1       1.542 -42.249  10.359  1.00  0.00     0.150 C 
ENDBRANCH  16  20
ENDBRANCH  14  16
ENDBRANCH   7  10
ENDBRANCH   5   6
BRANCH   5  23
HETATM   23  C22 UNL     1      -4.959 -40.510   2.180  1.00  0.00     0.009 C 
HETATM   24  C23 UNL     1      -6.312 -40.314   1.601  1.00  0.00     0.012 C 
HETATM   25  C24 UNL     1      -3.993 -41.121   1.197  1.00  0.00     0.012 C 
ENDBRANCH   5  23
ENDBRANCH   3   5
BRANCH   1  26
HETATM   26  C9  UNL     1      -6.409 -38.735   6.187  1.00  0.00     0.087 C 
HETATM   27  C8  UNL     1      -7.656 -38.055   5.744  1.00  0.00     0.028 C 
HETATM   28  C7  UNL     1      -7.715 -36.712   6.395  1.00  0.00     0.051 C 
HETATM   29  C6  UNL     1      -6.696 -36.773   7.470  1.00  0.00     0.205 C 
HETATM   30  C25 UNL     1      -5.664 -37.752   7.032  1.00  0.00     0.074 C 
BRANCH  29  31
HETATM   31  C5  UNL     1      -6.171 -35.475   7.924  1.00  0.00     0.256 C 
HETATM   32  N1  UNL     1      -4.844 -35.147   8.252  1.00  0.00    -0.350 N 
HETATM   33  C4  UNL     1      -3.708 -36.019   8.221  1.00  0.00     0.126 C 
HETATM   34  C26 UNL     1      -4.572 -33.763   8.658  1.00  0.00     0.126 C 
HETATM   35  C3  UNL     1      -3.167 -36.125   9.654  1.00  0.00     0.024 C 
HETATM   36  C2  UNL     1      -2.780 -34.755  10.095  1.00  0.00    -0.015 C 
HETATM   37  C1  UNL     1      -2.356 -34.832  11.564  1.00  0.00     0.010 C 
HETATM   38  C27 UNL     1      -3.921 -33.769  10.019  1.00  0.00     0.024 C 
HETATM   39  O1  UNL     1      -7.051 -34.533   8.029  1.00  0.00    -0.271 OA
ENDBRANCH  29  31
BRANCH  29  40
HETATM   40  N2  UNL     1      -7.374 -37.408   8.627  1.00  0.00    -0.061 N 
ATOM     41  H23 UNL     1      -8.018 -38.150   8.352  1.00  0.00     0.275 HD
ATOM     42  H22 UNL     1      -6.746 -37.980   9.191  1.00  0.00     0.275 HD
ATOM     43  H21 UNL     1      -7.825 -36.666   9.162  1.00  0.00     0.275 HD
ENDBRANCH  29  40
ENDBRANCH   1  26
TORSDOF 9
ENDMDL
MODEL 3
REMARK VINA RESULT: -9.541886917      2.300     10.886
REMARK  9 active torsions:
REMARK  status: ('A' for Active; 'I' for Inactive)
REMARK       I    between atoms: N1_5  and  C5_6 
REMARK    1  A    between atoms: C5_6  and  C6_8 
REMARK    2  A    between atoms: C6_8  and  N2_9 
REMARK    3  A    between atoms: C9_15  and  N3_16 
REMARK       I    between atoms: N3_16  and  C10_18 
REMARK    4  A    between atoms: C10_18  and  C11_20 
REMARK    5  A    between atoms: C11_20  and  N4_21 
REMARK    6  A    between atoms: C11_20  and  C22_38 
REMARK       I    between atoms: N4_21  and  C12_23 
REMARK    7  A    between atoms: C12_23  and  C13_25 
REMARK    8  A    between atoms: C17_29  and  C18_30 
REMARK    9  A    between atoms: C18_30  and  N6_34 
ROOT
HETATM    1  N3  UNL     1      -6.069 -36.846   7.393  1.00  0.00    -0.355 N 
ATOM      2  H3  UNL     1      -5.440 -37.550   7.009  1.00  0.00     0.162 HD
HETATM    3  C10 UNL     1      -5.534 -35.882   8.277  1.00  0.00     0.241 C 
HETATM    4  O2  UNL     1      -6.403 -35.042   8.711  1.00  0.00    -0.271 OA
ENDROOT
BRANCH   3   5
HETATM    5  C11 UNL     1      -4.172 -35.732   8.735  1.00  0.00     0.180 C 
BRANCH   5   6
HETATM    6  N4  UNL     1      -3.654 -34.436   8.296  1.00  0.00    -0.347 N 
HETATM    7  C12 UNL     1      -3.211 -33.476   9.241  1.00  0.00     0.222 C 
HETATM    8  O3  UNL     1      -3.260 -33.748  10.451  1.00  0.00    -0.273 OA
ATOM      9  H4  UNL     1      -3.611 -34.222   7.300  1.00  0.00     0.163 HD
BRANCH   7  10
HETATM   10  C13 UNL     1      -2.702 -32.174   8.790  1.00  0.00     0.078 C 
HETATM   11  C14 UNL     1      -3.300 -31.743   7.464  1.00  0.00     0.014 C 
HETATM   12  C15 UNL     1      -2.972 -30.249   7.340  1.00  0.00     0.002 C 
HETATM   13  C16 UNL     1      -1.474 -30.140   7.201  1.00  0.00     0.012 C 
HETATM   14  C17 UNL     1      -0.720 -30.834   8.308  1.00  0.00     0.053 C 
HETATM   15  C21 UNL     1      -1.185 -32.254   8.530  1.00  0.00     0.026 C 
BRANCH  14  16
HETATM   16  C18 UNL     1       0.728 -30.754   8.027  1.00  0.00     0.076 C 
HETATM   17  N5  UNL     1       1.455 -31.807   7.950  1.00  0.00    -0.389 N 
ATOM     18  H52 UNL     1       1.036 -32.728   8.085  1.00  0.00     0.157 HD
ATOM     19  H51 UNL     1       2.455 -31.751   7.755  1.00  0.00     0.157 HD
BRANCH  16  20
HETATM   20  N6  UNL     1       1.310 -29.476   7.838  1.00  0.00    -0.380 N 
HETATM   21  C19 UNL     1       1.229 -28.476   8.893  1.00  0.00     0.150 C 
HETATM   22  C20 UNL     1       1.996 -29.107   6.626  1.00  0.00     0.150 C 
ENDBRANCH  16  20
ENDBRANCH  14  16
ENDBRANCH   7  10
ENDBRANCH   5   6
BRANCH   5  23
HETATM   23  C22 UNL     1      -3.193 -36.798   8.345  1.00  0.00     0.009 C 
HETATM   24  C23 UNL     1      -3.436 -38.147   8.915  1.00  0.00     0.012 C 
HETATM   25  C24 UNL     1      -1.760 -36.356   8.499  1.00  0.00     0.012 C 
ENDBRANCH   5  23
ENDBRANCH   3   5
BRANCH   1  26
HETATM   26  C9  UNL     1      -7.478 -36.886   7.001  1.00  0.00     0.087 C 
HETATM   27  C8  UNL     1      -8.262 -37.947   7.688  1.00  0.00     0.028 C 
HETATM   28  C7  UNL     1      -8.970 -38.755   6.650  1.00  0.00     0.051 C 
HETATM   29  C6  UNL     1      -8.872 -37.942   5.413  1.00  0.00     0.205 C 
HETATM   30  C25 UNL     1      -7.636 -37.122   5.532  1.00  0.00     0.074 C 
BRANCH  29  31
HETATM   31  C5  UNL     1      -9.008 -38.686   4.150  1.00  0.00     0.256 C 
HETATM   32  N1  UNL     1      -8.191 -39.724   3.667  1.00  0.00    -0.350 N 
HETATM   33  C4  UNL     1      -7.035 -40.278   4.305  1.00  0.00     0.126 C 
HETATM   34  C26 UNL     1      -8.555 -40.324   2.379  1.00  0.00     0.126 C 
HETATM   35  C3  UNL     1      -5.831 -40.015   3.390  1.00  0.00     0.024 C 
HETATM   36  C2  UNL     1      -6.097 -40.685   2.086  1.00  0.00    -0.015 C 
HETATM   37  C1  UNL     1      -4.960 -40.325   1.126  1.00  0.00     0.010 C 
HETATM   38  C27 UNL     1      -7.380 -40.222   1.438  1.00  0.00     0.024 C 
HETATM   39  O1  UNL     1     -10.004 -38.330   3.407  1.00  0.00    -0.271 OA
ENDBRANCH  29  31
BRANCH  29  40
HETATM   40  N2  UNL     1      -9.994 -36.974   5.482  1.00  0.00    -0.061 N 
ATOM     41  H23 UNL     1      -9.844 -36.150   4.900  1.00  0.00     0.275 HD
ATOM     42  H22 UNL     1     -10.839 -37.311   5.021  1.00  0.00     0.275 HD
ATOM     43  H21 UNL     1     -10.141 -36.746   6.466  1.00  0.00     0.275 HD
ENDBRANCH  29  40
ENDBRANCH   1  26
TORSDOF 9
ENDMDL
MODEL 4
REMARK VINA RESULT: -9.397338326      6.519      9.248
REMARK  9 active torsions:
REMARK  status: ('A' for Active; 'I' for Inactive)
REMARK       I    between atoms: N1_5  and  C5_6 
REMARK    1  A    between atoms: C5_6  and  C6_8 
REMARK    2  A    between atoms: C6_8  and  N2_9 
REMARK    3  A    between atoms: C9_15  and  N3_16 
REMARK       I    between atoms: N3_16  and  C10_18 
REMARK    4  A    between atoms: C10_18  and  C11_20 
REMARK    5  A    between atoms: C11_20  and  N4_21 
REMARK    6  A    between atoms: C11_20  and  C22_38 
REMARK       I    between atoms: N4_21  and  C12_23 
REMARK    7  A    between atoms: C12_23  and  C13_25 
REMARK    8  A    between atoms: C17_29  and  C18_30 
REMARK    9  A    between atoms: C18_30  and  N6_34 
ROOT
HETATM    1  N3  UNL     1      -4.597 -39.293   6.367  1.00  0.00    -0.355 N 
ATOM      2  H3  UNL     1      -5.527 -39.615   6.097  1.00  0.00     0.162 HD
HETATM    3  C10 UNL     1      -4.501 -38.213   7.273  1.00  0.00     0.241 C 
HETATM    4  O2  UNL     1      -3.292 -37.878   7.548  1.00  0.00    -0.271 OA
ENDROOT
BRANCH   3   5
HETATM    5  C11 UNL     1      -5.563 -37.466   7.906  1.00  0.00     0.180 C 
BRANCH   5   6
HETATM    6  N4  UNL     1      -6.601 -37.170   6.919  1.00  0.00    -0.347 N 
HETATM    7  C12 UNL     1      -7.894 -37.742   7.033  1.00  0.00     0.222 C 
HETATM    8  O3  UNL     1      -8.141 -38.496   7.989  1.00  0.00    -0.273 OA
ATOM      9  H4  UNL     1      -6.393 -36.546   6.139  1.00  0.00     0.163 HD
BRANCH   7  10
HETATM   10  C13 UNL     1      -8.926 -37.446   6.031  1.00  0.00     0.078 C 
HETATM   11  C14 UNL     1     -10.059 -36.607   6.593  1.00  0.00     0.014 C 
HETATM   12  C15 UNL     1     -10.819 -36.084   5.366  1.00  0.00     0.002 C 
HETATM   13  C16 UNL     1     -11.449 -37.281   4.699  1.00  0.00     0.012 C 
HETATM   14  C17 UNL     1     -10.461 -38.374   4.376  1.00  0.00     0.053 C 
HETATM   15  C21 UNL     1      -9.599 -38.749   5.557  1.00  0.00     0.026 C 
BRANCH  14  16
HETATM   16  C18 UNL     1     -11.190 -39.531   3.820  1.00  0.00     0.076 C 
HETATM   17  N5  UNL     1     -12.459 -39.655   3.960  1.00  0.00    -0.389 N 
ATOM     18  H52 UNL     1     -12.987 -38.944   4.466  1.00  0.00     0.157 HD
ATOM     19  H51 UNL     1     -12.962 -40.455   3.576  1.00  0.00     0.157 HD
BRANCH  16  20
HETATM   20  N6  UNL     1     -10.456 -40.519   3.117  1.00  0.00    -0.380 N 
HETATM   21  C19 UNL     1      -9.591 -40.134   2.010  1.00  0.00     0.150 C 
HETATM   22  C20 UNL     1     -10.522 -41.919   3.451  1.00  0.00     0.150 C 
ENDBRANCH  16  20
ENDBRANCH  14  16
ENDBRANCH   7  10
ENDBRANCH   5   6
BRANCH   5  23
HETATM   23  C22 UNL     1      -5.188 -36.194   8.605  1.00  0.00     0.009 C 
HETATM   24  C23 UNL     1      -5.367 -36.182  10.078  1.00  0.00     0.012 C 
HETATM   25  C24 UNL     1      -5.773 -34.973   7.941  1.00  0.00     0.012 C 
ENDBRANCH   5  23
ENDBRANCH   3   5
BRANCH   1  26
HETATM   26  C9  UNL     1      -3.435 -39.974   5.797  1.00  0.00     0.087 C 
HETATM   27  C8  UNL     1      -3.774 -41.209   5.040  1.00  0.00     0.028 C 
HETATM   28  C7  UNL     1      -2.935 -42.328   5.566  1.00  0.00     0.051 C 
HETATM   29  C6  UNL     1      -1.880 -41.659   6.367  1.00  0.00     0.205 C 
HETATM   30  C25 UNL     1      -2.457 -40.377   6.855  1.00  0.00     0.074 C 
BRANCH  29  31
HETATM   31  C5  UNL     1      -1.243 -42.491   7.401  1.00  0.00     0.256 C 
HETATM   32  N1  UNL     1      -0.095 -42.198   8.157  1.00  0.00    -0.350 N 
HETATM   33  C4  UNL     1       0.713 -41.019   8.076  1.00  0.00     0.126 C 
HETATM   34  C26 UNL     1       0.328 -43.191   9.152  1.00  0.00     0.126 C 
HETATM   35  C3  UNL     1       2.118 -41.450   7.633  1.00  0.00     0.024 C 
HETATM   36  C2  UNL     1       2.647 -42.393   8.659  1.00  0.00    -0.015 C 
HETATM   37  C1  UNL     1       3.996 -42.924   8.165  1.00  0.00     0.010 C 
HETATM   38  C27 UNL     1       1.754 -43.592   8.870  1.00  0.00     0.024 C 
HETATM   39  O1  UNL     1      -1.823 -43.624   7.629  1.00  0.00    -0.271 OA
ENDBRANCH  29  31
BRANCH  29  40
HETATM   40  N2  UNL     1      -0.828 -41.273   5.395  1.00  0.00    -0.061 N 
ATOM     41  H23 UNL     1      -0.743 -41.929   4.619  1.00  0.00     0.275 HD
ATOM     42  H22 UNL     1      -1.075 -40.450   4.847  1.00  0.00     0.275 HD
ATOM     43  H21 UNL     1       0.042 -41.158   5.916  1.00  0.00     0.275 HD
ENDBRANCH  29  40
ENDBRANCH   1  26
TORSDOF 9
ENDMDL
MODEL 5
REMARK VINA RESULT: -9.302307897      6.855     10.827
REMARK  9 active torsions:
REMARK  status: ('A' for Active; 'I' for Inactive)
REMARK       I    between atoms: N1_5  and  C5_6 
REMARK    1  A    between atoms: C5_6  and  C6_8 
REMARK    2  A    between atoms: C6_8  and  N2_9 
REMARK    3  A    between atoms: C9_15  and  N3_16 
REMARK       I    between atoms: N3_16  and  C10_18 
REMARK    4  A    between atoms: C10_18  and  C11_20 
REMARK    5  A    between atoms: C11_20  and  N4_21 
REMARK    6  A    between atoms: C11_20  and  C22_38 
REMARK       I    between atoms: N4_21  and  C12_23 
REMARK    7  A    between atoms: C12_23  and  C13_25 
REMARK    8  A    between atoms: C17_29  and  C18_30 
REMARK    9  A    between atoms: C18_30  and  N6_34 
ROOT
HETATM    1  N3  UNL     1       5.250 -30.047   6.207  1.00  0.00    -0.355 N 
ATOM      2  H3  UNL     1       4.608 -30.773   6.527  1.00  0.00     0.162 HD
HETATM    3  C10 UNL     1       6.602 -30.396   5.994  1.00  0.00     0.241 C 
HETATM    4  O2  UNL     1       7.330 -29.416   5.597  1.00  0.00    -0.271 OA
ENDROOT
BRANCH   3   5
HETATM    5  C11 UNL     1       7.243 -31.680   6.163  1.00  0.00     0.180 C 
BRANCH   5   6
HETATM    6  N4  UNL     1       6.654 -32.640   5.230  1.00  0.00    -0.347 N 
HETATM    7  C12 UNL     1       7.430 -33.202   4.184  1.00  0.00     0.222 C 
HETATM    8  O3  UNL     1       8.622 -32.874   4.070  1.00  0.00    -0.273 OA
ATOM      9  H4  UNL     1       5.676 -32.909   5.332  1.00  0.00     0.163 HD
BRANCH   7  10
HETATM   10  C13 UNL     1       6.827 -34.158   3.246  1.00  0.00     0.078 C 
HETATM   11  C14 UNL     1       5.999 -35.218   3.948  1.00  0.00     0.014 C 
HETATM   12  C15 UNL     1       5.158 -35.871   2.841  1.00  0.00     0.002 C 
HETATM   13  C16 UNL     1       6.120 -36.596   1.932  1.00  0.00     0.012 C 
HETATM   14  C17 UNL     1       7.226 -35.714   1.409  1.00  0.00     0.053 C 
HETATM   15  C21 UNL     1       7.925 -34.943   2.503  1.00  0.00     0.026 C 
BRANCH  14  16
HETATM   16  C18 UNL     1       8.161 -36.537   0.615  1.00  0.00     0.076 C 
HETATM   17  N5  UNL     1       7.982 -37.798   0.465  1.00  0.00    -0.389 N 
ATOM     18  H52 UNL     1       7.181 -38.255   0.901  1.00  0.00     0.157 HD
ATOM     19  H51 UNL     1       8.628 -38.367  -0.083  1.00  0.00     0.157 HD
BRANCH  16  20
HETATM   20  N6  UNL     1       9.274 -35.902   0.009  1.00  0.00    -0.380 N 
HETATM   21  C19 UNL     1      10.625 -36.328   0.341  1.00  0.00     0.150 C 
HETATM   22  C20 UNL     1       9.131 -34.830  -0.944  1.00  0.00     0.150 C 
ENDBRANCH  16  20
ENDBRANCH  14  16
ENDBRANCH   7  10
ENDBRANCH   5   6
BRANCH   5  23
HETATM   23  C22 UNL     1       7.234 -32.278   7.537  1.00  0.00     0.009 C 
HETATM   24  C23 UNL     1       6.070 -33.139   7.867  1.00  0.00     0.012 C 
HETATM   25  C24 UNL     1       7.524 -31.263   8.614  1.00  0.00     0.012 C 
ENDBRANCH   5  23
ENDBRANCH   3   5
BRANCH   1  26
HETATM   26  C9  UNL     1       4.720 -28.700   5.992  1.00  0.00     0.087 C 
HETATM   27  C8  UNL     1       5.001 -27.760   7.109  1.00  0.00     0.028 C 
HETATM   28  C7  UNL     1       3.712 -27.132   7.530  1.00  0.00     0.051 C 
HETATM   29  C6  UNL     1       2.767 -27.445   6.430  1.00  0.00     0.205 C 
HETATM   30  C25 UNL     1       3.236 -28.713   5.807  1.00  0.00     0.074 C 
BRANCH  29  31
HETATM   31  C5  UNL     1       1.340 -27.416   6.789  1.00  0.00     0.256 C 
HETATM   32  N1  UNL     1       0.674 -28.207   7.742  1.00  0.00    -0.350 N 
HETATM   33  C4  UNL     1       1.247 -29.226   8.568  1.00  0.00     0.126 C 
HETATM   34  C26 UNL     1      -0.761 -27.966   7.932  1.00  0.00     0.126 C 
HETATM   35  C3  UNL     1       0.570 -30.554   8.203  1.00  0.00     0.024 C 
HETATM   36  C2  UNL     1      -0.890 -30.407   8.466  1.00  0.00    -0.015 C 
HETATM   37  C1  UNL     1      -1.589 -31.682   7.988  1.00  0.00     0.010 C 
HETATM   38  C27 UNL     1      -1.510 -29.256   7.710  1.00  0.00     0.024 C 
HETATM   39  O1  UNL     1       0.628 -26.554   6.141  1.00  0.00    -0.271 OA
ENDBRANCH  29  31
BRANCH  29  40
HETATM   40  N2  UNL     1       2.989 -26.398   5.403  1.00  0.00    -0.061 N 
ATOM     41  H23 UNL     1       2.639 -25.482   5.687  1.00  0.00     0.275 HD
ATOM     42  H22 UNL     1       3.971 -26.139   5.304  1.00  0.00     0.275 HD
ATOM     43  H21 UNL     1       2.575 -26.730   4.532  1.00  0.00     0.275 HD
ENDBRANCH  29  40
ENDBRANCH   1  26
TORSDOF 9
ENDMDL
