MODEL 1
REMARK VINA RESULT: -10.232069140      0.000      0.000
REMARK  8 active torsions:
REMARK  status: ('A' for Active; 'I' for Inactive)
REMARK    1  A    between atoms: C1_4  and  C2_5 
REMARK    2  A    between atoms: C1_4  and  N2_14 
REMARK    3  A    between atoms: C6_9  and  C7_10 
REMARK    4  A    between atoms: C9_15  and  C10_16 
REMARK       I    between atoms: C10_16  and  N3_18 
REMARK    5  A    between atoms: N3_18  and  C11_20 
REMARK    6  A    between atoms: C11_20  and  C12_21 
REMARK    7  A    between atoms: C17_26  and  C18_27 
REMARK       I    between atoms: C18_27  and  N4_29 
REMARK    8  A    between atoms: N4_29  and  C19_31 
ROOT
HETATM    1  C10 UNL     1      -5.565 -39.905   5.492  1.00  0.00     0.240 C 
HETATM    2  O3  UNL     1      -4.977 -38.900   6.035  1.00  0.00    -0.271 OA
HETATM    3  N3  UNL     1      -6.803 -39.634   4.864  1.00  0.00    -0.359 N 
ATOM      4  H3  UNL     1      -7.324 -40.386   4.413  1.00  0.00     0.162 HD
ENDROOT
BRANCH   1   5
HETATM    5  C9  UNL     1      -4.907 -41.204   5.576  1.00  0.00     0.182 C 
HETATM    6  N2  UNL     1      -3.559 -41.267   5.066  1.00  0.00    -0.328 N 
HETATM    7  C27 UNL     1      -3.666 -41.481   3.635  1.00  0.00     0.255 A 
HETATM    8  C26 UNL     1      -4.874 -42.291   3.501  1.00  0.00     0.175 A 
HETATM    9  O5  UNL     1      -4.756 -41.047   2.923  1.00  0.00    -0.354 OA
HETATM   10  C25 UNL     1      -5.663 -42.277   4.799  1.00  0.00     0.071 C 
BRANCH   6  11
HETATM   11  C1  UNL     1      -2.390 -41.158   5.866  1.00  0.00     0.080 C 
HETATM   12  N1  UNL     1      -2.124 -39.995   6.410  1.00  0.00    -0.389 N 
ATOM     13  H12 UNL     1      -1.284 -39.917   6.984  1.00  0.00     0.157 HD
ATOM     14  H11 UNL     1      -2.768 -39.224   6.238  1.00  0.00     0.157 HD
BRANCH  11  15
HETATM   15  C2  UNL     1      -1.463 -42.268   6.113  1.00  0.00     0.054 C 
HETATM   16  C3  UNL     1      -0.224 -42.267   5.273  1.00  0.00     0.012 C 
HETATM   17  C4  UNL     1       0.546 -43.533   5.604  1.00  0.00     0.002 C 
HETATM   18  C5  UNL     1       1.022 -43.407   7.020  1.00  0.00     0.015 C 
HETATM   19  C6  UNL     1      -0.178 -43.418   7.934  1.00  0.00     0.087 C 
HETATM   20  C8  UNL     1      -1.176 -42.343   7.590  1.00  0.00     0.027 C 
BRANCH  19  21
HETATM   21  C7  UNL     1       0.312 -43.153   9.314  1.00  0.00     0.177 C 
HETATM   22  O1  UNL     1      -0.313 -42.457  10.155  1.00  0.00    -0.648 OA
HETATM   23  O2  UNL     1       1.524 -43.691   9.733  1.00  0.00    -0.648 OA
ENDBRANCH  19  21
ENDBRANCH  11  15
ENDBRANCH   6  11
ENDBRANCH   1   5
BRANCH   3  24
HETATM   24  C11 UNL     1      -7.331 -38.272   4.865  1.00  0.00     0.128 C 
BRANCH  24  25
HETATM   25  C12 UNL     1      -7.842 -37.895   6.236  1.00  0.00     0.016 C 
HETATM   26  C13 UNL     1      -9.102 -38.600   6.600  1.00  0.00     0.007 C 
HETATM   27  C14 UNL     1     -10.277 -38.138   5.746  1.00  0.00     0.000 C 
HETATM   28  C15 UNL     1     -10.258 -36.617   5.647  1.00  0.00     0.001 C 
HETATM   29  C16 UNL     1      -9.378 -36.049   6.746  1.00  0.00     0.014 C 
HETATM   30  C17 UNL     1      -7.949 -36.419   6.420  1.00  0.00     0.083 C 
BRANCH  30  31
HETATM   31  C18 UNL     1      -7.003 -35.883   7.412  1.00  0.00     0.222 C 
HETATM   32  O4  UNL     1      -7.251 -34.818   8.011  1.00  0.00    -0.273 OA
HETATM   33  N4  UNL     1      -5.801 -36.568   7.699  1.00  0.00    -0.356 N 
ATOM     34  H4  UNL     1      -5.601 -37.439   7.207  1.00  0.00     0.162 HD
BRANCH  33  35
HETATM   35  C19 UNL     1      -4.835 -36.070   8.675  1.00  0.00     0.084 C 
HETATM   36  C20 UNL     1      -4.032 -34.969   8.078  1.00  0.00     0.025 C 
HETATM   37  C21 UNL     1      -2.736 -34.796   8.876  1.00  0.00     0.002 C 
HETATM   38  C22 UNL     1      -1.819 -35.965   8.738  1.00  0.00     0.000 C 
HETATM   39  C23 UNL     1      -2.611 -37.212   8.513  1.00  0.00     0.002 C 
HETATM   40  C24 UNL     1      -3.943 -37.174   9.196  1.00  0.00     0.025 C 
ENDBRANCH  33  35
ENDBRANCH  30  31
ENDBRANCH  24  25
ENDBRANCH   3  24
TORSDOF 8
ENDMDL
MODEL 2
REMARK VINA RESULT: -9.567831902      1.696      2.183
REMARK  8 active torsions:
REMARK  status: ('A' for Active; 'I' for Inactive)
REMARK    1  A    between atoms: C1_4  and  C2_5 
REMARK    2  A    between atoms: C1_4  and  N2_14 
REMARK    3  A    between atoms: C6_9  and  C7_10 
REMARK    4  A    between atoms: C9_15  and  C10_16 
REMARK       I    between atoms: C10_16  and  N3_18 
REMARK    5  A    between atoms: N3_18  and  C11_20 
REMARK    6  A    between atoms: C11_20  and  C12_21 
REMARK    7  A    between atoms: C17_26  and  C18_27 
REMARK       I    between atoms: C18_27  and  N4_29 
REMARK    8  A    between atoms: N4_29  and  C19_31 
ROOT
HETATM    1  C10 UNL     1      -7.511 -40.192   3.634  1.00  0.00     0.240 C 
HETATM    2  O3  UNL     1      -8.630 -39.955   3.050  1.00  0.00    -0.271 OA
HETATM    3  N3  UNL     1      -7.010 -39.158   4.457  1.00  0.00    -0.359 N 
ATOM      4  H3  UNL     1      -6.125 -39.278   4.951  1.00  0.00     0.162 HD
ENDROOT
BRANCH   1   5
HETATM    5  C9  UNL     1      -6.879 -41.484   3.393  1.00  0.00     0.182 C 
HETATM    6  N2  UNL     1      -5.459 -41.552   3.639  1.00  0.00    -0.328 N 
HETATM    7  C27 UNL     1      -4.804 -41.075   2.436  1.00  0.00     0.255 A 
HETATM    8  C26 UNL     1      -5.701 -41.505   1.367  1.00  0.00     0.175 A 
HETATM    9  O5  UNL     1      -5.413 -40.178   1.594  1.00  0.00    -0.354 OA
HETATM   10  C25 UNL     1      -7.039 -41.936   1.944  1.00  0.00     0.071 C 
BRANCH   6  11
HETATM   11  C1  UNL     1      -4.874 -42.029   4.843  1.00  0.00     0.080 C 
HETATM   12  N1  UNL     1      -5.632 -42.713   5.666  1.00  0.00    -0.389 N 
ATOM     13  H12 UNL     1      -5.212 -43.055   6.531  1.00  0.00     0.157 HD
ATOM     14  H11 UNL     1      -6.604 -42.875   5.403  1.00  0.00     0.157 HD
BRANCH  11  15
HETATM   15  C2  UNL     1      -3.476 -41.795   5.221  1.00  0.00     0.054 C 
HETATM   16  C3  UNL     1      -3.170 -40.419   5.723  1.00  0.00     0.012 C 
HETATM   17  C4  UNL     1      -1.671 -40.350   5.962  1.00  0.00     0.002 C 
HETATM   18  C5  UNL     1      -1.360 -41.271   7.104  1.00  0.00     0.015 C 
HETATM   19  C6  UNL     1      -1.629 -42.689   6.665  1.00  0.00     0.087 C 
HETATM   20  C8  UNL     1      -3.040 -42.882   6.170  1.00  0.00     0.027 C 
BRANCH  19  21
HETATM   21  C7  UNL     1      -1.446 -43.564   7.853  1.00  0.00     0.177 C 
HETATM   22  O1  UNL     1      -2.398 -44.063   8.507  1.00  0.00    -0.648 OA
HETATM   23  O2  UNL     1      -0.164 -43.872   8.294  1.00  0.00    -0.648 OA
ENDBRANCH  19  21
ENDBRANCH  11  15
ENDBRANCH   6  11
ENDBRANCH   1   5
BRANCH   3  24
HETATM   24  C11 UNL     1      -7.765 -37.915   4.598  1.00  0.00     0.128 C 
BRANCH  24  25
HETATM   25  C12 UNL     1      -8.171 -37.694   6.037  1.00  0.00     0.016 C 
HETATM   26  C13 UNL     1      -9.428 -38.405   6.400  1.00  0.00     0.007 C 
HETATM   27  C14 UNL     1     -10.640 -37.811   5.691  1.00  0.00     0.000 C 
HETATM   28  C15 UNL     1     -10.575 -36.290   5.773  1.00  0.00     0.001 C 
HETATM   29  C16 UNL     1      -9.605 -35.884   6.869  1.00  0.00     0.014 C 
HETATM   30  C17 UNL     1      -8.215 -36.249   6.403  1.00  0.00     0.083 C 
BRANCH  30  31
HETATM   31  C18 UNL     1      -7.187 -35.863   7.383  1.00  0.00     0.222 C 
HETATM   32  O4  UNL     1      -7.305 -34.810   8.041  1.00  0.00    -0.273 OA
HETATM   33  N4  UNL     1      -6.054 -36.679   7.593  1.00  0.00    -0.356 N 
ATOM     34  H4  UNL     1      -5.960 -37.541   7.053  1.00  0.00     0.162 HD
BRANCH  33  35
HETATM   35  C19 UNL     1      -5.012 -36.332   8.556  1.00  0.00     0.084 C 
HETATM   36  C20 UNL     1      -4.125 -35.282   7.986  1.00  0.00     0.025 C 
HETATM   37  C21 UNL     1      -2.792 -35.279   8.740  1.00  0.00     0.002 C 
HETATM   38  C22 UNL     1      -1.999 -36.522   8.505  1.00  0.00     0.000 C 
HETATM   39  C23 UNL     1      -2.917 -37.672   8.247  1.00  0.00     0.002 C 
HETATM   40  C24 UNL     1      -4.215 -37.544   8.982  1.00  0.00     0.025 C 
ENDBRANCH  33  35
ENDBRANCH  30  31
ENDBRANCH  24  25
ENDBRANCH   3  24
TORSDOF 8
ENDMDL
MODEL 3
REMARK VINA RESULT: -9.337169347      1.473      1.743
REMARK  8 active torsions:
REMARK  status: ('A' for Active; 'I' for Inactive)
REMARK    1  A    between atoms: C1_4  and  C2_5 
REMARK    2  A    between atoms: C1_4  and  N2_14 
REMARK    3  A    between atoms: C6_9  and  C7_10 
REMARK    4  A    between atoms: C9_15  and  C10_16 
REMARK       I    between atoms: C10_16  and  N3_18 
REMARK    5  A    between atoms: N3_18  and  C11_20 
REMARK    6  A    between atoms: C11_20  and  C12_21 
REMARK    7  A    between atoms: C17_26  and  C18_27 
REMARK       I    between atoms: C18_27  and  N4_29 
REMARK    8  A    between atoms: N4_29  and  C19_31 
ROOT
HETATM    1  C10 UNL     1      -7.183 -40.149   4.447  1.00  0.00     0.240 C 
HETATM    2  O3  UNL     1      -8.431 -40.347   4.216  1.00  0.00    -0.271 OA
HETATM    3  N3  UNL     1      -6.818 -38.826   4.786  1.00  0.00    -0.359 N 
ATOM      4  H3  UNL     1      -5.843 -38.597   4.982  1.00  0.00     0.162 HD
ENDROOT
BRANCH   1   5
HETATM    5  C9  UNL     1      -6.282 -41.291   4.339  1.00  0.00     0.182 C 
HETATM    6  N2  UNL     1      -4.884 -40.982   4.167  1.00  0.00    -0.328 N 
HETATM    7  C27 UNL     1      -4.678 -40.761   2.748  1.00  0.00     0.255 A 
HETATM    8  C26 UNL     1      -5.632 -41.670   2.119  1.00  0.00     0.175 A 
HETATM    9  O5  UNL     1      -5.688 -40.306   1.937  1.00  0.00    -0.354 OA
HETATM   10  C25 UNL     1      -6.628 -42.179   3.148  1.00  0.00     0.071 C 
BRANCH   6  11
HETATM   11  C1  UNL     1      -3.934 -40.941   5.222  1.00  0.00     0.080 C 
HETATM   12  N1  UNL     1      -3.881 -39.859   5.961  1.00  0.00    -0.389 N 
ATOM     13  H12 UNL     1      -3.198 -39.830   6.719  1.00  0.00     0.157 HD
ATOM     14  H11 UNL     1      -4.526 -39.098   5.747  1.00  0.00     0.157 HD
BRANCH  11  15
HETATM   15  C2  UNL     1      -3.005 -42.036   5.529  1.00  0.00     0.054 C 
HETATM   16  C3  UNL     1      -2.573 -42.856   4.354  1.00  0.00     0.012 C 
HETATM   17  C4  UNL     1      -1.707 -43.984   4.889  1.00  0.00     0.002 C 
HETATM   18  C5  UNL     1      -0.452 -43.364   5.428  1.00  0.00     0.015 C 
HETATM   19  C6  UNL     1      -0.808 -42.530   6.633  1.00  0.00     0.087 C 
HETATM   20  C8  UNL     1      -1.850 -41.486   6.324  1.00  0.00     0.027 C 
BRANCH  19  21
HETATM   21  C7  UNL     1       0.427 -41.820   7.062  1.00  0.00     0.177 C 
HETATM   22  O1  UNL     1       1.503 -41.834   6.412  1.00  0.00    -0.648 OA
HETATM   23  O2  UNL     1       0.427 -41.087   8.244  1.00  0.00    -0.648 OA
ENDBRANCH  19  21
ENDBRANCH  11  15
ENDBRANCH   6  11
ENDBRANCH   1   5
BRANCH   3  24
HETATM   24  C11 UNL     1      -7.843 -37.787   4.854  1.00  0.00     0.128 C 
BRANCH  24  25
HETATM   25  C12 UNL     1      -8.212 -37.491   6.290  1.00  0.00     0.016 C 
HETATM   26  C13 UNL     1      -9.478 -38.152   6.711  1.00  0.00     0.007 C 
HETATM   27  C14 UNL     1     -10.690 -37.560   6.001  1.00  0.00     0.000 C 
HETATM   28  C15 UNL     1     -10.585 -36.039   6.013  1.00  0.00     0.001 C 
HETATM   29  C16 UNL     1      -9.582 -35.609   7.069  1.00  0.00     0.014 C 
HETATM   30  C17 UNL     1      -8.211 -36.031   6.591  1.00  0.00     0.083 C 
BRANCH  30  31
HETATM   31  C18 UNL     1      -7.153 -35.628   7.532  1.00  0.00     0.222 C 
HETATM   32  O4  UNL     1      -7.258 -34.571   8.185  1.00  0.00    -0.273 OA
HETATM   33  N4  UNL     1      -6.006 -36.433   7.707  1.00  0.00    -0.356 N 
ATOM     34  H4  UNL     1      -5.923 -37.297   7.171  1.00  0.00     0.162 HD
BRANCH  33  35
HETATM   35  C19 UNL     1      -4.934 -36.068   8.630  1.00  0.00     0.084 C 
HETATM   36  C20 UNL     1      -4.021 -35.087   7.984  1.00  0.00     0.025 C 
HETATM   37  C21 UNL     1      -2.675 -35.090   8.714  1.00  0.00     0.002 C 
HETATM   38  C22 UNL     1      -1.931 -36.372   8.539  1.00  0.00     0.000 C 
HETATM   39  C23 UNL     1      -2.895 -37.501   8.365  1.00  0.00     0.002 C 
HETATM   40  C24 UNL     1      -4.173 -37.282   9.113  1.00  0.00     0.025 C 
ENDBRANCH  33  35
ENDBRANCH  30  31
ENDBRANCH  24  25
ENDBRANCH   3  24
TORSDOF 8
ENDMDL
MODEL 4
REMARK VINA RESULT: -9.315754661      2.330      7.530
REMARK  8 active torsions:
REMARK  status: ('A' for Active; 'I' for Inactive)
REMARK    1  A    between atoms: C1_4  and  C2_5 
REMARK    2  A    between atoms: C1_4  and  N2_14 
REMARK    3  A    between atoms: C6_9  and  C7_10 
REMARK    4  A    between atoms: C9_15  and  C10_16 
REMARK       I    between atoms: C10_16  and  N3_18 
REMARK    5  A    between atoms: N3_18  and  C11_20 
REMARK    6  A    between atoms: C11_20  and  C12_21 
REMARK    7  A    between atoms: C17_26  and  C18_27 
REMARK       I    between atoms: C18_27  and  N4_29 
REMARK    8  A    between atoms: N4_29  and  C19_31 
ROOT
HETATM    1  C10 UNL     1      -6.221 -39.506   5.103  1.00  0.00     0.240 C 
HETATM    2  O3  UNL     1      -5.408 -39.247   6.063  1.00  0.00    -0.271 OA
HETATM    3  N3  UNL     1      -6.253 -40.849   4.664  1.00  0.00    -0.359 N 
ATOM      4  H3  UNL     1      -6.876 -41.126   3.904  1.00  0.00     0.162 HD
ENDROOT
BRANCH   1   5
HETATM    5  C9  UNL     1      -7.017 -38.406   4.571  1.00  0.00     0.182 C 
HETATM    6  N2  UNL     1      -8.172 -38.025   5.347  1.00  0.00    -0.328 N 
HETATM    7  C27 UNL     1      -9.249 -38.914   4.954  1.00  0.00     0.255 A 
HETATM    8  C26 UNL     1      -8.977 -39.176   3.543  1.00  0.00     0.175 A 
HETATM    9  O5  UNL     1      -9.001 -40.180   4.486  1.00  0.00    -0.354 OA
HETATM   10  C25 UNL     1      -7.573 -38.721   3.186  1.00  0.00     0.071 C 
BRANCH   6  11
HETATM   11  C1  UNL     1      -8.195 -36.957   6.284  1.00  0.00     0.080 C 
HETATM   12  N1  UNL     1      -9.352 -36.404   6.558  1.00  0.00    -0.389 N 
ATOM     13  H12 UNL     1      -9.369 -35.637   7.230  1.00  0.00     0.157 HD
ATOM     14  H11 UNL     1     -10.183 -36.768   6.090  1.00  0.00     0.157 HD
BRANCH  11  15
HETATM   15  C2  UNL     1      -7.001 -36.433   6.957  1.00  0.00     0.054 C 
HETATM   16  C3  UNL     1      -6.962 -34.947   7.127  1.00  0.00     0.012 C 
HETATM   17  C4  UNL     1      -5.618 -34.600   7.744  1.00  0.00     0.002 C 
HETATM   18  C5  UNL     1      -5.608 -35.163   9.134  1.00  0.00     0.015 C 
HETATM   19  C6  UNL     1      -5.629 -36.668   9.043  1.00  0.00     0.087 C 
HETATM   20  C8  UNL     1      -6.802 -37.182   8.249  1.00  0.00     0.027 C 
BRANCH  19  21
HETATM   21  C7  UNL     1      -5.759 -37.195  10.429  1.00  0.00     0.177 C 
HETATM   22  O1  UNL     1      -5.487 -36.526  11.459  1.00  0.00    -0.648 OA
HETATM   23  O2  UNL     1      -6.206 -38.495  10.635  1.00  0.00    -0.648 OA
ENDBRANCH  19  21
ENDBRANCH  11  15
ENDBRANCH   6  11
ENDBRANCH   1   5
BRANCH   3  24
HETATM   24  C11 UNL     1      -5.390 -41.840   5.302  1.00  0.00     0.128 C 
BRANCH  24  25
HETATM   25  C12 UNL     1      -4.020 -41.849   4.665  1.00  0.00     0.016 C 
HETATM   26  C13 UNL     1      -4.068 -42.037   3.189  1.00  0.00     0.007 C 
HETATM   27  C14 UNL     1      -4.542 -43.436   2.811  1.00  0.00     0.000 C 
HETATM   28  C15 UNL     1      -3.829 -44.461   3.686  1.00  0.00     0.001 C 
HETATM   29  C16 UNL     1      -2.604 -43.823   4.316  1.00  0.00     0.014 C 
HETATM   30  C17 UNL     1      -3.088 -42.808   5.325  1.00  0.00     0.083 C 
BRANCH  30  31
HETATM   31  C18 UNL     1      -1.972 -42.151   6.024  1.00  0.00     0.222 C 
HETATM   32  O4  UNL     1      -1.665 -40.972   5.758  1.00  0.00    -0.273 OA
HETATM   33  N4  UNL     1      -1.232 -42.848   7.006  1.00  0.00    -0.356 N 
ATOM     34  H4  UNL     1      -1.486 -43.812   7.223  1.00  0.00     0.162 HD
BRANCH  33  35
HETATM   35  C19 UNL     1      -0.118 -42.233   7.722  1.00  0.00     0.084 C 
HETATM   36  C20 UNL     1       0.835 -43.282   8.174  1.00  0.00     0.025 C 
HETATM   37  C21 UNL     1       1.696 -42.729   9.313  1.00  0.00     0.002 C 
HETATM   38  C22 UNL     1       0.907 -42.466  10.552  1.00  0.00     0.000 C 
HETATM   39  C23 UNL     1      -0.499 -42.111  10.196  1.00  0.00     0.002 C 
HETATM   40  C24 UNL     1      -0.593 -41.392   8.885  1.00  0.00     0.025 C 
ENDBRANCH  33  35
ENDBRANCH  30  31
ENDBRANCH  24  25
ENDBRANCH   3  24
TORSDOF 8
ENDMDL
MODEL 5
REMARK VINA RESULT: -9.271466042      1.702      2.143
REMARK  8 active torsions:
REMARK  status: ('A' for Active; 'I' for Inactive)
REMARK    1  A    between atoms: C1_4  and  C2_5 
REMARK    2  A    between atoms: C1_4  and  N2_14 
REMARK    3  A    between atoms: C6_9  and  C7_10 
REMARK    4  A    between atoms: C9_15  and  C10_16 
REMARK       I    between atoms: C10_16  and  N3_18 
REMARK    5  A    between atoms: N3_18  and  C11_20 
REMARK    6  A    between atoms: C11_20  and  C12_21 
REMARK    7  A    between atoms: C17_26  and  C18_27 
REMARK       I    between atoms: C18_27  and  N4_29 
REMARK    8  A    between atoms: N4_29  and  C19_31 
ROOT
HETATM    1  C10 UNL     1      -4.705 -41.176   5.154  1.00  0.00     0.240 C 
HETATM    2  O3  UNL     1      -4.544 -40.021   5.691  1.00  0.00    -0.271 OA
HETATM    3  N3  UNL     1      -5.694 -41.258   4.147  1.00  0.00    -0.359 N 
ATOM      4  H3  UNL     1      -5.876 -42.146   3.678  1.00  0.00     0.162 HD
ENDROOT
BRANCH   1   5
HETATM    5  C9  UNL     1      -3.866 -42.269   5.629  1.00  0.00     0.182 C 
HETATM    6  N2  UNL     1      -2.453 -42.149   5.359  1.00  0.00    -0.328 N 
HETATM    7  C27 UNL     1      -2.242 -42.651   4.015  1.00  0.00     0.255 A 
HETATM    8  C26 UNL     1      -3.246 -43.704   3.883  1.00  0.00     0.175 A 
HETATM    9  O5  UNL     1      -3.231 -42.597   3.064  1.00  0.00    -0.354 OA
HETATM   10  C25 UNL     1      -4.262 -43.605   5.008  1.00  0.00     0.071 C 
BRANCH   6  11
HETATM   11  C1  UNL     1      -1.498 -41.649   6.284  1.00  0.00     0.080 C 
HETATM   12  N1  UNL     1      -1.542 -40.374   6.586  1.00  0.00    -0.389 N 
ATOM     13  H12 UNL     1      -0.856 -40.014   7.249  1.00  0.00     0.157 HD
ATOM     14  H11 UNL     1      -2.262 -39.800   6.146  1.00  0.00     0.157 HD
BRANCH  11  15
HETATM   15  C2  UNL     1      -0.462 -42.475   6.917  1.00  0.00     0.054 C 
HETATM   16  C3  UNL     1       0.916 -42.315   6.354  1.00  0.00     0.012 C 
HETATM   17  C4  UNL     1       1.810 -43.316   7.065  1.00  0.00     0.002 C 
HETATM   18  C5  UNL     1       1.910 -42.883   8.498  1.00  0.00     0.015 C 
HETATM   19  C6  UNL     1       0.554 -43.033   9.141  1.00  0.00     0.087 C 
HETATM   20  C8  UNL     1      -0.520 -42.270   8.408  1.00  0.00     0.027 C 
BRANCH  19  21
HETATM   21  C7  UNL     1       0.648 -42.470  10.514  1.00  0.00     0.177 C 
HETATM   22  O1  UNL     1       1.736 -42.241  11.103  1.00  0.00    -0.648 OA
HETATM   23  O2  UNL     1      -0.512 -42.164  11.217  1.00  0.00    -0.648 OA
ENDBRANCH  19  21
ENDBRANCH  11  15
ENDBRANCH   6  11
ENDBRANCH   1   5
BRANCH   3  24
HETATM   24  C11 UNL     1      -6.455 -40.066   3.781  1.00  0.00     0.128 C 
BRANCH  24  25
HETATM   25  C12 UNL     1      -7.629 -39.872   4.713  1.00  0.00     0.016 C 
HETATM   26  C13 UNL     1      -8.813 -40.690   4.332  1.00  0.00     0.007 C 
HETATM   27  C14 UNL     1      -9.435 -40.213   3.024  1.00  0.00     0.000 C 
HETATM   28  C15 UNL     1      -9.534 -38.691   3.041  1.00  0.00     0.001 C 
HETATM   29  C16 UNL     1      -9.402 -38.192   4.469  1.00  0.00     0.014 C 
HETATM   30  C17 UNL     1      -7.975 -38.434   4.904  1.00  0.00     0.083 C 
BRANCH  30  31
HETATM   31  C18 UNL     1      -7.729 -37.950   6.272  1.00  0.00     0.222 C 
HETATM   32  O4  UNL     1      -8.669 -37.845   7.085  1.00  0.00    -0.273 OA
HETATM   33  N4  UNL     1      -6.424 -37.597   6.684  1.00  0.00    -0.356 N 
ATOM     34  H4  UNL     1      -5.657 -37.685   6.017  1.00  0.00     0.162 HD
BRANCH  33  35
HETATM   35  C19 UNL     1      -6.137 -37.113   8.031  1.00  0.00     0.084 C 
HETATM   36  C20 UNL     1      -6.068 -35.627   8.032  1.00  0.00     0.025 C 
HETATM   37  C21 UNL     1      -5.297 -35.155   9.268  1.00  0.00     0.002 C 
HETATM   38  C22 UNL     1      -3.855 -35.537   9.223  1.00  0.00     0.000 C 
HETATM   39  C23 UNL     1      -3.686 -36.806   8.453  1.00  0.00     0.002 C 
HETATM   40  C24 UNL     1      -4.867 -37.717   8.587  1.00  0.00     0.025 C 
ENDBRANCH  33  35
ENDBRANCH  30  31
ENDBRANCH  24  25
ENDBRANCH   3  24
TORSDOF 8
ENDMDL
