MODEL 1
REMARK VINA RESULT: -8.956509910      0.000      0.000
REMARK  5 active torsions:
REMARK  status: ('A' for Active; 'I' for Inactive)
REMARK    1  A    between atoms: C2_2  and  C3_3 
REMARK    2  A    between atoms: C5_5  and  C6_6 
REMARK    3  A    between atoms: C14_14  and  C15_15 
REMARK    4  A    between atoms: C15_15  and  N1_16 
REMARK    5  A    between atoms: C19_23  and  N2_24 
ROOT
HETATM    1  C6  UNL     1     -13.521  14.757  41.932  1.00  0.00    -0.069 C 
HETATM    2  C7  UNL     1     -13.170  14.650  43.373  1.00  0.00     0.035 C 
HETATM    3  C8  UNL     1     -13.774  15.836  44.092  1.00  0.00     0.009 C 
HETATM    4  C9  UNL     1     -15.252  15.976  43.776  1.00  0.00    -0.013 C 
HETATM    5  C10 UNL     1     -15.357  16.304  42.326  1.00  0.00     0.014 C 
HETATM    6  C11 UNL     1     -14.916  15.044  41.564  1.00  0.00     0.020 C 
HETATM    7  C12 UNL     1     -15.963  14.045  41.703  1.00  0.00     0.005 A 
HETATM    8  C13 UNL     1     -15.976  12.799  42.436  1.00  0.00     0.017 A 
HETATM    9  C14 UNL     1     -16.702  14.040  43.022  1.00  0.00    -0.012 A 
HETATM   10  C16 UNL     1     -16.003  14.727  44.129  1.00  0.00     0.016 C 
ENDROOT
BRANCH   1  11
HETATM   11  C5  UNL     1     -12.891  13.683  41.091  1.00  0.00    -0.059 C 
HETATM   12  C4  UNL     1     -11.543  13.983  40.514  1.00  0.00     0.045 C 
HETATM   13  C3  UNL     1     -10.813  12.822  40.005  1.00  0.00     0.020 C 
HETATM   14  C19 UNL     1     -11.352  11.482  40.353  1.00  0.00     0.191 C 
HETATM   15  C18 UNL     1     -12.835  11.458  40.011  1.00  0.00     0.061 C 
HETATM   16  C17 UNL     1     -13.464  12.526  40.849  1.00  0.00    -0.017 C 
BRANCH  13  17
HETATM   17  C2  UNL     1      -9.364  12.876  40.508  1.00  0.00     0.002 C 
HETATM   18  C1  UNL     1      -9.230  13.799  41.689  1.00  0.00     0.005 C 
ENDBRANCH  13  17
BRANCH  14  19
HETATM   19  N2  UNL     1     -10.689  10.484  39.537  1.00  0.00    -0.074 N 
ATOM     20  H23 UNL     1     -10.088  10.900  38.825  1.00  0.00     0.274 HD
ATOM     21  H22 UNL     1      -9.969   9.976  40.051  1.00  0.00     0.274 HD
ATOM     22  H21 UNL     1     -11.393   9.864  39.137  1.00  0.00     0.274 HD
ENDBRANCH  14  19
ENDBRANCH   1  11
BRANCH   9  23
HETATM   23  C15 UNL     1     -18.187  13.930  43.057  1.00  0.00     0.239 C 
BRANCH  23  24
HETATM   24  N1  UNL     1     -18.653  14.271  44.381  1.00  0.00    -0.079 N 
ATOM     25  H13 UNL     1     -19.424  13.676  44.686  1.00  0.00     0.274 HD
ATOM     26  H12 UNL     1     -17.982  14.018  45.106  1.00  0.00     0.274 HD
ATOM     27  H11 UNL     1     -18.895  15.262  44.404  1.00  0.00     0.274 HD
ENDBRANCH  23  24
ENDBRANCH   9  23
TORSDOF 5
ENDMDL
MODEL 2
REMARK VINA RESULT: -8.828614702      2.174      3.312
REMARK  5 active torsions:
REMARK  status: ('A' for Active; 'I' for Inactive)
REMARK    1  A    between atoms: C2_2  and  C3_3 
REMARK    2  A    between atoms: C5_5  and  C6_6 
REMARK    3  A    between atoms: C14_14  and  C15_15 
REMARK    4  A    between atoms: C15_15  and  N1_16 
REMARK    5  A    between atoms: C19_23  and  N2_24 
ROOT
HETATM    1  C6  UNL     1     -14.415  14.694  42.174  1.00  0.00    -0.069 C 
HETATM    2  C7  UNL     1     -14.562  16.017  41.511  1.00  0.00     0.035 C 
HETATM    3  C8  UNL     1     -15.404  16.899  42.407  1.00  0.00     0.009 C 
HETATM    4  C9  UNL     1     -14.862  16.921  43.824  1.00  0.00    -0.013 C 
HETATM    5  C10 UNL     1     -15.021  15.544  44.371  1.00  0.00     0.014 C 
HETATM    6  C11 UNL     1     -14.038  14.653  43.595  1.00  0.00     0.020 C 
HETATM    7  C12 UNL     1     -12.692  14.978  44.038  1.00  0.00     0.005 A 
HETATM    8  C13 UNL     1     -11.614  15.645  43.343  1.00  0.00     0.017 A 
HETATM    9  C14 UNL     1     -12.445  16.426  44.397  1.00  0.00    -0.012 A 
HETATM   10  C16 UNL     1     -13.435  17.380  43.853  1.00  0.00     0.016 C 
ENDROOT
BRANCH   1  11
HETATM   11  C5  UNL     1     -13.676  13.692  41.332  1.00  0.00    -0.059 C 
HETATM   12  C4  UNL     1     -12.515  14.206  40.538  1.00  0.00     0.045 C 
HETATM   13  C3  UNL     1     -11.617  13.175  40.016  1.00  0.00     0.020 C 
HETATM   14  C19 UNL     1     -11.793  11.797  40.542  1.00  0.00     0.191 C 
HETATM   15  C18 UNL     1     -13.266  11.426  40.428  1.00  0.00     0.061 C 
HETATM   16  C17 UNL     1     -14.002  12.422  41.268  1.00  0.00    -0.017 C 
BRANCH  13  17
HETATM   17  C2  UNL     1     -10.164  13.587  40.289  1.00  0.00     0.002 C 
HETATM   18  C1  UNL     1      -9.821  13.443  41.747  1.00  0.00     0.005 C 
ENDBRANCH  13  17
BRANCH  14  19
HETATM   19  N2  UNL     1     -11.036  10.880  39.713  1.00  0.00    -0.074 N 
ATOM     20  H23 UNL     1     -10.584  10.146  40.258  1.00  0.00     0.274 HD
ATOM     21  H22 UNL     1     -11.636  10.284  39.143  1.00  0.00     0.274 HD
ATOM     22  H21 UNL     1     -10.372  11.414  39.153  1.00  0.00     0.274 HD
ENDBRANCH  14  19
ENDBRANCH   1  11
BRANCH   9  23
HETATM   23  C15 UNL     1     -11.698  16.781  45.635  1.00  0.00     0.239 C 
BRANCH  23  24
HETATM   24  N1  UNL     1     -12.272  17.979  46.203  1.00  0.00    -0.079 N 
ATOM     25  H13 UNL     1     -11.710  18.353  46.969  1.00  0.00     0.274 HD
ATOM     26  H12 UNL     1     -12.204  18.779  45.574  1.00  0.00     0.274 HD
ATOM     27  H11 UNL     1     -13.233  17.786  46.485  1.00  0.00     0.274 HD
ENDBRANCH  23  24
ENDBRANCH   9  23
TORSDOF 5
ENDMDL
MODEL 3
REMARK VINA RESULT: -8.674205143      2.628      4.927
REMARK  5 active torsions:
REMARK  status: ('A' for Active; 'I' for Inactive)
REMARK    1  A    between atoms: C2_2  and  C3_3 
REMARK    2  A    between atoms: C5_5  and  C6_6 
REMARK    3  A    between atoms: C14_14  and  C15_15 
REMARK    4  A    between atoms: C15_15  and  N1_16 
REMARK    5  A    between atoms: C19_23  and  N2_24 
ROOT
HETATM    1  C6  UNL     1     -16.384  14.390  42.925  1.00  0.00    -0.069 C 
HETATM    2  C7  UNL     1     -16.638  13.190  43.765  1.00  0.00     0.035 C 
HETATM    3  C8  UNL     1     -17.775  12.412  43.141  1.00  0.00     0.009 C 
HETATM    4  C9  UNL     1     -17.520  12.151  41.668  1.00  0.00    -0.013 C 
HETATM    5  C10 UNL     1     -17.530  13.474  40.984  1.00  0.00     0.014 C 
HETATM    6  C11 UNL     1     -16.277  14.222  41.467  1.00  0.00     0.020 C 
HETATM    7  C12 UNL     1     -15.116  13.597  40.854  1.00  0.00     0.005 A 
HETATM    8  C13 UNL     1     -14.064  12.798  41.441  1.00  0.00     0.017 A 
HETATM    9  C14 UNL     1     -15.202  12.102  40.646  1.00  0.00    -0.012 A 
HETATM   10  C16 UNL     1     -16.227  11.418  41.463  1.00  0.00     0.016 C 
ENDROOT
BRANCH   1  11
HETATM   11  C5  UNL     1     -15.335  15.300  43.499  1.00  0.00    -0.059 C 
HETATM   12  C4  UNL     1     -14.117  14.646  44.073  1.00  0.00     0.045 C 
HETATM   13  C3  UNL     1     -12.981  15.540  44.300  1.00  0.00     0.020 C 
HETATM   14  C19 UNL     1     -13.062  16.898  43.701  1.00  0.00     0.191 C 
HETATM   15  C18 UNL     1     -14.400  17.513  44.089  1.00  0.00     0.061 C 
HETATM   16  C17 UNL     1     -15.445  16.609  43.516  1.00  0.00    -0.017 C 
BRANCH  13  17
HETATM   17  C2  UNL     1     -11.704  14.880  43.764  1.00  0.00     0.002 C 
HETATM   18  C1  UNL     1     -11.665  14.906  42.260  1.00  0.00     0.005 C 
ENDBRANCH  13  17
BRANCH  14  19
HETATM   19  N2  UNL     1     -12.011  17.721  44.266  1.00  0.00    -0.074 N 
ATOM     20  H23 UNL     1     -11.341  17.178  44.810  1.00  0.00     0.274 HD
ATOM     21  H22 UNL     1     -11.367  18.071  43.556  1.00  0.00     0.274 HD
ATOM     22  H21 UNL     1     -12.437  18.472  44.809  1.00  0.00     0.274 HD
ENDBRANCH  14  19
ENDBRANCH   1  11
BRANCH   9  23
HETATM   23  C15 UNL     1     -14.774  11.492  39.357  1.00  0.00     0.239 C 
BRANCH  23  24
HETATM   24  N1  UNL     1     -15.525  10.277  39.139  1.00  0.00    -0.079 N 
ATOM     25  H13 UNL     1     -15.856   9.863  40.011  1.00  0.00     0.274 HD
ATOM     26  H12 UNL     1     -16.433  10.454  38.711  1.00  0.00     0.274 HD
ATOM     27  H11 UNL     1     -14.958   9.629  38.592  1.00  0.00     0.274 HD
ENDBRANCH  23  24
ENDBRANCH   9  23
TORSDOF 5
ENDMDL
MODEL 4
REMARK VINA RESULT: -8.254451633      1.723      6.310
REMARK  5 active torsions:
REMARK  status: ('A' for Active; 'I' for Inactive)
REMARK    1  A    between atoms: C2_2  and  C3_3 
REMARK    2  A    between atoms: C5_5  and  C6_6 
REMARK    3  A    between atoms: C14_14  and  C15_15 
REMARK    4  A    between atoms: C15_15  and  N1_16 
REMARK    5  A    between atoms: C19_23  and  N2_24 
ROOT
HETATM    1  C6  UNL     1     -13.443  13.283  40.941  1.00  0.00    -0.069 C 
HETATM    2  C7  UNL     1     -13.024  11.878  41.181  1.00  0.00     0.035 C 
HETATM    3  C8  UNL     1     -11.849  11.577  40.276  1.00  0.00     0.009 C 
HETATM    4  C9  UNL     1     -10.764  12.629  40.417  1.00  0.00    -0.013 C 
HETATM    5  C10 UNL     1     -11.332  13.910  39.908  1.00  0.00     0.014 C 
HETATM    6  C11 UNL     1     -12.414  14.334  40.914  1.00  0.00     0.020 C 
HETATM    7  C12 UNL     1     -11.749  14.783  42.127  1.00  0.00     0.005 A 
HETATM    8  C13 UNL     1     -11.693  14.181  43.440  1.00  0.00     0.017 A 
HETATM    9  C14 UNL     1     -10.472  14.058  42.488  1.00  0.00    -0.012 A 
HETATM   10  C16 UNL     1     -10.298  12.742  41.838  1.00  0.00     0.016 C 
ENDROOT
BRANCH   1  11
HETATM   11  C5  UNL     1     -14.671  13.672  41.715  1.00  0.00    -0.059 C 
HETATM   12  C4  UNL     1     -15.991  13.413  41.057  1.00  0.00     0.045 C 
HETATM   13  C3  UNL     1     -17.150  13.471  41.949  1.00  0.00     0.020 C 
HETATM   14  C19 UNL     1     -16.877  13.507  43.409  1.00  0.00     0.191 C 
HETATM   15  C18 UNL     1     -15.854  14.603  43.678  1.00  0.00     0.061 C 
HETATM   16  C17 UNL     1     -14.630  14.216  42.910  1.00  0.00    -0.017 C 
BRANCH  13  17
HETATM   17  C2  UNL     1     -18.053  12.259  41.683  1.00  0.00     0.002 C 
HETATM   18  C1  UNL     1     -17.254  10.985  41.626  1.00  0.00     0.005 C 
ENDBRANCH  13  17
BRANCH  14  19
HETATM   19  N2  UNL     1     -18.099  13.855  44.106  1.00  0.00    -0.074 N 
ATOM     20  H23 UNL     1     -18.672  13.038  44.318  1.00  0.00     0.274 HD
ATOM     21  H22 UNL     1     -17.928  14.162  45.063  1.00  0.00     0.274 HD
ATOM     22  H21 UNL     1     -18.604  14.552  43.558  1.00  0.00     0.274 HD
ENDBRANCH  14  19
ENDBRANCH   1  11
BRANCH   9  23
HETATM   23  C15 UNL     1      -9.268  14.819  42.923  1.00  0.00     0.239 C 
BRANCH  23  24
HETATM   24  N1  UNL     1      -8.135  14.401  42.130  1.00  0.00    -0.079 N 
ATOM     25  H13 UNL     1      -7.326  14.163  42.704  1.00  0.00     0.274 HD
ATOM     26  H12 UNL     1      -8.279  13.488  41.700  1.00  0.00     0.274 HD
ATOM     27  H11 UNL     1      -7.924  15.125  41.444  1.00  0.00     0.274 HD
ENDBRANCH  23  24
ENDBRANCH   9  23
TORSDOF 5
ENDMDL
MODEL 5
REMARK VINA RESULT: -8.061020760      0.780      2.111
REMARK  5 active torsions:
REMARK  status: ('A' for Active; 'I' for Inactive)
REMARK    1  A    between atoms: C2_2  and  C3_3 
REMARK    2  A    between atoms: C5_5  and  C6_6 
REMARK    3  A    between atoms: C14_14  and  C15_15 
REMARK    4  A    between atoms: C15_15  and  N1_16 
REMARK    5  A    between atoms: C19_23  and  N2_24 
ROOT
HETATM    1  C6  UNL     1     -13.454  15.160  42.095  1.00  0.00    -0.069 C 
HETATM    2  C7  UNL     1     -13.225  15.442  43.537  1.00  0.00     0.035 C 
HETATM    3  C8  UNL     1     -13.991  16.697  43.897  1.00  0.00     0.009 C 
HETATM    4  C9  UNL     1     -15.441  16.600  43.460  1.00  0.00    -0.013 C 
HETATM    5  C10 UNL     1     -15.443  16.555  41.970  1.00  0.00     0.014 C 
HETATM    6  C11 UNL     1     -14.830  15.201  41.576  1.00  0.00     0.020 C 
HETATM    7  C12 UNL     1     -15.796  14.162  41.891  1.00  0.00     0.005 A 
HETATM    8  C13 UNL     1     -15.768  13.136  42.909  1.00  0.00     0.017 A 
HETATM    9  C14 UNL     1     -16.647  14.399  43.118  1.00  0.00    -0.012 A 
HETATM   10  C16 UNL     1     -16.111  15.402  44.063  1.00  0.00     0.016 C 
ENDROOT
BRANCH   1  11
HETATM   11  C5  UNL     1     -12.662  13.987  41.592  1.00  0.00    -0.059 C 
HETATM   12  C4  UNL     1     -13.312  12.642  41.694  1.00  0.00     0.045 C 
HETATM   13  C3  UNL     1     -12.685  11.588  40.897  1.00  0.00     0.020 C 
HETATM   14  C19 UNL     1     -11.676  12.012  39.893  1.00  0.00     0.191 C 
HETATM   15  C18 UNL     1     -10.670  12.925  40.581  1.00  0.00     0.061 C 
HETATM   16  C17 UNL     1     -11.457  14.095  41.081  1.00  0.00    -0.017 C 
BRANCH  13  17
HETATM   17  C2  UNL     1     -13.773  10.807  40.148  1.00  0.00     0.002 C 
HETATM   18  C1  UNL     1     -14.633  11.724  39.321  1.00  0.00     0.005 C 
ENDBRANCH  13  17
BRANCH  14  19
HETATM   19  N2  UNL     1     -10.965  10.840  39.419  1.00  0.00    -0.074 N 
ATOM     20  H23 UNL     1     -10.637  10.946  38.459  1.00  0.00     0.274 HD
ATOM     21  H22 UNL     1     -10.057  10.727  39.869  1.00  0.00     0.274 HD
ATOM     22  H21 UNL     1     -11.563  10.022  39.538  1.00  0.00     0.274 HD
ENDBRANCH  14  19
ENDBRANCH   1  11
BRANCH   9  23
HETATM   23  C15 UNL     1     -18.114  14.145  43.082  1.00  0.00     0.239 C 
BRANCH  23  24
HETATM   24  N1  UNL     1     -18.663  14.366  44.400  1.00  0.00    -0.079 N 
ATOM     25  H13 UNL     1     -18.105  13.924  45.131  1.00  0.00     0.274 HD
ATOM     26  H12 UNL     1     -18.561  15.333  44.706  1.00  0.00     0.274 HD
ATOM     27  H11 UNL     1     -19.635  14.055  44.412  1.00  0.00     0.274 HD
ENDBRANCH  23  24
ENDBRANCH   9  23
TORSDOF 5
ENDMDL
