MODEL 1
REMARK VINA RESULT: -8.381866029      0.000      0.000
REMARK  4 active torsions:
REMARK  status: ('A' for Active; 'I' for Inactive)
REMARK       I    between atoms: C1_2  and  N1_3 
REMARK    1  A    between atoms: C1_2  and  C9_12 
REMARK    2  A    between atoms: N1_3  and  C2_5 
REMARK    3  A    between atoms: C2_5  and  C3_6 
REMARK    4  A    between atoms: C15_18  and  O2_19 
ROOT
HETATM    1  C9  UNL     1     -15.204  14.064  42.289  1.00  0.00     0.044 C 
HETATM    2  C10 UNL     1     -15.068  12.661  41.775  1.00  0.00     0.024 C 
HETATM    3  C11 UNL     1     -16.406  12.000  41.618  1.00  0.00    -0.010 C 
HETATM    4  C12 UNL     1     -17.365  12.860  40.790  1.00  0.00     0.012 C 
HETATM    5  C13 UNL     1     -17.464  14.085  41.705  1.00  0.00     0.022 C 
HETATM    6  C14 UNL     1     -16.182  14.877  41.427  1.00  0.00     0.027 C 
HETATM    7  C15 UNL     1     -17.314  13.562  43.112  1.00  0.00     0.063 C 
HETATM    8  C16 UNL     1     -17.122  12.046  42.974  1.00  0.00     0.043 C 
HETATM    9  C17 UNL     1     -15.956  14.082  43.607  1.00  0.00     0.057 C 
ENDROOT
BRANCH   1  10
HETATM   10  C1  UNL     1     -13.946  14.791  42.318  1.00  0.00     0.226 C 
HETATM   11  O1  UNL     1     -13.916  16.019  42.093  1.00  0.00    -0.273 OA
HETATM   12  N1  UNL     1     -12.746  14.113  42.604  1.00  0.00    -0.360 N 
ATOM     13  H1  UNL     1     -12.808  13.111  42.782  1.00  0.00     0.162 HD
BRANCH  12  14
HETATM   14  C2  UNL     1     -11.440  14.714  42.668  1.00  0.00     0.127 C 
BRANCH  14  15
HETATM   15  C3  UNL     1     -10.686  14.353  41.417  1.00  0.00     0.003 C 
HETATM   16  C4  UNL     1      -9.361  13.702  41.773  1.00  0.00     0.006 C 
HETATM   17  C5  UNL     1      -8.779  13.189  40.449  1.00  0.00     0.000 C 
HETATM   18  C6  UNL     1      -9.532  11.896  40.153  1.00  0.00     0.000 C 
HETATM   19  C7  UNL     1     -10.953  11.972  40.683  1.00  0.00     0.000 C 
HETATM   20  C8  UNL     1     -11.503  13.377  40.589  1.00  0.00     0.006 C 
ENDBRANCH  14  15
ENDBRANCH  12  14
ENDBRANCH   1  10
BRANCH   7  21
HETATM   21  O2  UNL     1     -18.338  13.893  43.948  1.00  0.00    -0.389 OA
ATOM     22  H2  UNL     1     -19.076  13.294  43.923  1.00  0.00     0.210 HD
ENDBRANCH   7  21
TORSDOF 4
ENDMDL
MODEL 2
REMARK VINA RESULT: -8.060038106      1.337      1.969
REMARK  4 active torsions:
REMARK  status: ('A' for Active; 'I' for Inactive)
REMARK       I    between atoms: C1_2  and  N1_3 
REMARK    1  A    between atoms: C1_2  and  C9_12 
REMARK    2  A    between atoms: N1_3  and  C2_5 
REMARK    3  A    between atoms: C2_5  and  C3_6 
REMARK    4  A    between atoms: C15_18  and  O2_19 
ROOT
HETATM    1  C9  UNL     1     -15.583  13.582  42.340  1.00  0.00     0.044 C 
HETATM    2  C10 UNL     1     -16.392  14.438  41.410  1.00  0.00     0.024 C 
HETATM    3  C11 UNL     1     -17.635  13.731  40.953  1.00  0.00    -0.010 C 
HETATM    4  C12 UNL     1     -18.442  13.188  42.137  1.00  0.00     0.012 C 
HETATM    5  C13 UNL     1     -17.424  12.193  42.703  1.00  0.00     0.022 C 
HETATM    6  C14 UNL     1     -16.443  13.058  43.500  1.00  0.00     0.027 C 
HETATM    7  C15 UNL     1     -16.639  11.686  41.519  1.00  0.00     0.063 C 
HETATM    8  C16 UNL     1     -17.217  12.409  40.295  1.00  0.00     0.043 C 
HETATM    9  C17 UNL     1     -15.224  12.264  41.679  1.00  0.00     0.057 C 
ENDROOT
BRANCH   1  10
HETATM   10  C1  UNL     1     -14.448  14.278  42.922  1.00  0.00     0.226 C 
HETATM   11  O1  UNL     1     -14.622  15.233  43.707  1.00  0.00    -0.273 OA
HETATM   12  N1  UNL     1     -13.136  13.877  42.604  1.00  0.00    -0.360 N 
ATOM     13  H1  UNL     1     -13.032  13.094  41.958  1.00  0.00     0.162 HD
BRANCH  12  14
HETATM   14  C2  UNL     1     -11.931  14.476  43.113  1.00  0.00     0.127 C 
BRANCH  14  15
HETATM   15  C3  UNL     1     -10.921  14.539  41.999  1.00  0.00     0.003 C 
HETATM   16  C4  UNL     1      -9.635  13.849  42.419  1.00  0.00     0.006 C 
HETATM   17  C5  UNL     1      -8.765  13.785  41.156  1.00  0.00     0.000 C 
HETATM   18  C6  UNL     1      -9.325  12.622  40.342  1.00  0.00     0.000 C 
HETATM   19  C7  UNL     1     -10.822  12.491  40.559  1.00  0.00     0.000 C 
HETATM   20  C8  UNL     1     -11.471  13.840  40.768  1.00  0.00     0.006 C 
ENDBRANCH  14  15
ENDBRANCH  12  14
ENDBRANCH   1  10
BRANCH   7  21
HETATM   21  O2  UNL     1     -16.639  10.330  41.382  1.00  0.00    -0.389 OA
ATOM     22  H2  UNL     1     -16.178  10.013  40.614  1.00  0.00     0.210 HD
ENDBRANCH   7  21
TORSDOF 4
ENDMDL
MODEL 3
REMARK VINA RESULT: -7.822564946      1.174      1.877
REMARK  4 active torsions:
REMARK  status: ('A' for Active; 'I' for Inactive)
REMARK       I    between atoms: C1_2  and  N1_3 
REMARK    1  A    between atoms: C1_2  and  C9_12 
REMARK    2  A    between atoms: N1_3  and  C2_5 
REMARK    3  A    between atoms: C2_5  and  C3_6 
REMARK    4  A    between atoms: C15_18  and  O2_19 
ROOT
HETATM    1  C9  UNL     1     -15.766  13.525  41.924  1.00  0.00     0.044 C 
HETATM    2  C10 UNL     1     -15.750  12.031  41.781  1.00  0.00     0.024 C 
HETATM    3  C11 UNL     1     -17.081  11.432  42.128  1.00  0.00    -0.010 C 
HETATM    4  C12 UNL     1     -18.221  12.104  41.356  1.00  0.00     0.012 C 
HETATM    5  C13 UNL     1     -18.100  13.527  41.913  1.00  0.00     0.022 C 
HETATM    6  C14 UNL     1     -16.931  14.144  41.138  1.00  0.00     0.027 C 
HETATM    7  C15 UNL     1     -17.605  13.375  43.329  1.00  0.00     0.063 C 
HETATM    8  C16 UNL     1     -17.443  11.866  43.555  1.00  0.00     0.043 C 
HETATM    9  C17 UNL     1     -16.170  13.925  43.331  1.00  0.00     0.057 C 
ENDROOT
BRANCH   1  10
HETATM   10  C1  UNL     1     -14.544  14.160  41.459  1.00  0.00     0.226 C 
HETATM   11  O1  UNL     1     -14.461  15.404  41.388  1.00  0.00    -0.273 OA
HETATM   12  N1  UNL     1     -13.439  13.373  41.083  1.00  0.00    -0.360 N 
ATOM     13  H1  UNL     1     -13.543  12.361  41.152  1.00  0.00     0.162 HD
BRANCH  12  14
HETATM   14  C2  UNL     1     -12.176  13.875  40.612  1.00  0.00     0.127 C 
BRANCH  14  15
HETATM   15  C3  UNL     1     -11.123  13.561  41.640  1.00  0.00     0.003 C 
HETATM   16  C4  UNL     1      -9.793  14.170  41.230  1.00  0.00     0.006 C 
HETATM   17  C5  UNL     1      -8.857  13.976  42.431  1.00  0.00     0.000 C 
HETATM   18  C6  UNL     1      -9.246  15.067  43.423  1.00  0.00     0.000 C 
HETATM   19  C7  UNL     1     -10.730  15.376  43.323  1.00  0.00     0.000 C 
HETATM   20  C8  UNL     1     -11.530  14.138  42.984  1.00  0.00     0.006 C 
ENDBRANCH  14  15
ENDBRANCH  12  14
ENDBRANCH   1  10
BRANCH   7  21
HETATM   21  O2  UNL     1     -18.394  13.969  44.269  1.00  0.00    -0.389 OA
ATOM     22  H2  UNL     1     -18.468  13.485  45.083  1.00  0.00     0.210 HD
ENDBRANCH   7  21
TORSDOF 4
ENDMDL
MODEL 4
REMARK VINA RESULT: -7.589520637      1.681      2.361
REMARK  4 active torsions:
REMARK  status: ('A' for Active; 'I' for Inactive)
REMARK       I    between atoms: C1_2  and  N1_3 
REMARK    1  A    between atoms: C1_2  and  C9_12 
REMARK    2  A    between atoms: N1_3  and  C2_5 
REMARK    3  A    between atoms: C2_5  and  C3_6 
REMARK    4  A    between atoms: C15_18  and  O2_19 
ROOT
HETATM    1  C9  UNL     1     -15.591  12.450  41.175  1.00  0.00     0.044 C 
HETATM    2  C10 UNL     1     -16.423  11.233  41.461  1.00  0.00     0.024 C 
HETATM    3  C11 UNL     1     -17.691  11.591  42.179  1.00  0.00    -0.010 C 
HETATM    4  C12 UNL     1     -18.460  12.695  41.448  1.00  0.00     0.012 C 
HETATM    5  C13 UNL     1     -17.436  13.830  41.551  1.00  0.00     0.022 C 
HETATM    6  C14 UNL     1     -16.414  13.525  40.451  1.00  0.00     0.027 C 
HETATM    7  C15 UNL     1     -16.703  13.608  42.850  1.00  0.00     0.063 C 
HETATM    8  C16 UNL     1     -17.316  12.342  43.464  1.00  0.00     0.043 C 
HETATM    9  C17 UNL     1     -15.275  13.196  42.458  1.00  0.00     0.057 C 
ENDROOT
BRANCH   1  10
HETATM   10  C1  UNL     1     -14.426  12.170  40.353  1.00  0.00     0.226 C 
HETATM   11  O1  UNL     1     -14.443  11.239  39.521  1.00  0.00    -0.273 OA
HETATM   12  N1  UNL     1     -13.263  12.952  40.489  1.00  0.00    -0.360 N 
ATOM     13  H1  UNL     1     -13.283  13.702  41.180  1.00  0.00     0.162 HD
BRANCH  12  14
HETATM   14  C2  UNL     1     -12.048  12.783  39.737  1.00  0.00     0.127 C 
BRANCH  14  15
HETATM   15  C3  UNL     1     -10.898  12.681  40.702  1.00  0.00     0.003 C 
HETATM   16  C4  UNL     1      -9.736  13.535  40.222  1.00  0.00     0.006 C 
HETATM   17  C5  UNL     1      -8.714  13.529  41.367  1.00  0.00     0.000 C 
HETATM   18  C6  UNL     1      -9.250  14.527  42.389  1.00  0.00     0.000 C 
HETATM   19  C7  UNL     1     -10.768  14.543  42.374  1.00  0.00     0.000 C 
HETATM   20  C8  UNL     1     -11.332  13.174  42.071  1.00  0.00     0.006 C 
ENDBRANCH  14  15
ENDBRANCH  12  14
ENDBRANCH   1  10
BRANCH   7  21
HETATM   21  O2  UNL     1     -16.726  14.673  43.700  1.00  0.00    -0.389 OA
ATOM     22  H2  UNL     1     -16.751  15.520  43.269  1.00  0.00     0.210 HD
ENDBRANCH   7  21
TORSDOF 4
ENDMDL
MODEL 5
REMARK VINA RESULT: -7.508929035      1.370      2.573
REMARK  4 active torsions:
REMARK  status: ('A' for Active; 'I' for Inactive)
REMARK       I    between atoms: C1_2  and  N1_3 
REMARK    1  A    between atoms: C1_2  and  C9_12 
REMARK    2  A    between atoms: N1_3  and  C2_5 
REMARK    3  A    between atoms: C2_5  and  C3_6 
REMARK    4  A    between atoms: C15_18  and  O2_19 
ROOT
HETATM    1  C9  UNL     1     -16.007  13.933  42.247  1.00  0.00     0.044 C 
HETATM    2  C10 UNL     1     -16.318  14.687  43.507  1.00  0.00     0.024 C 
HETATM    3  C11 UNL     1     -17.504  14.105  44.218  1.00  0.00    -0.010 C 
HETATM    4  C12 UNL     1     -17.346  12.597  44.436  1.00  0.00     0.012 C 
HETATM    5  C13 UNL     1     -17.301  12.133  42.976  1.00  0.00     0.022 C 
HETATM    6  C14 UNL     1     -15.869  12.429  42.523  1.00  0.00     0.027 C 
HETATM    7  C15 UNL     1     -18.171  13.097  42.210  1.00  0.00     0.063 C 
HETATM    8  C16 UNL     1     -18.691  14.104  43.245  1.00  0.00     0.043 C 
HETATM    9  C17 UNL     1     -17.212  13.910  41.325  1.00  0.00     0.057 C 
ENDROOT
BRANCH   1  10
HETATM   10  C1  UNL     1     -14.780  14.370  41.603  1.00  0.00     0.226 C 
HETATM   11  O1  UNL     1     -14.575  15.582  41.381  1.00  0.00    -0.273 OA
HETATM   12  N1  UNL     1     -13.809  13.425  41.223  1.00  0.00    -0.360 N 
ATOM     13  H1  UNL     1     -14.010  12.445  41.417  1.00  0.00     0.162 HD
BRANCH  12  14
HETATM   14  C2  UNL     1     -12.554  13.725  40.584  1.00  0.00     0.127 C 
BRANCH  14  15
HETATM   15  C3  UNL     1     -11.441  13.417  41.548  1.00  0.00     0.003 C 
HETATM   16  C4  UNL     1     -10.145  14.050  41.069  1.00  0.00     0.006 C 
HETATM   17  C5  UNL     1      -9.140  13.858  42.214  1.00  0.00     0.000 C 
HETATM   18  C6  UNL     1      -9.488  14.935  43.237  1.00  0.00     0.000 C 
HETATM   19  C7  UNL     1     -10.979  15.223  43.224  1.00  0.00     0.000 C 
HETATM   20  C8  UNL     1     -11.780  13.977  42.918  1.00  0.00     0.006 C 
ENDBRANCH  14  15
ENDBRANCH  12  14
ENDBRANCH   1  10
BRANCH   7  21
HETATM   21  O2  UNL     1     -19.171  12.509  41.495  1.00  0.00    -0.389 OA
ATOM     22  H2  UNL     1     -20.047  12.739  41.781  1.00  0.00     0.210 HD
ENDBRANCH   7  21
TORSDOF 4
ENDMDL
