MODEL 1
REMARK VINA RESULT: -7.324369330      0.000      0.000
REMARK  5 active torsions:
REMARK  status: ('A' for Active; 'I' for Inactive)
REMARK    1  A    between atoms: C2_2  and  C3_3 
REMARK    2  A    between atoms: N1_5  and  N2_7 
REMARK    3  A    between atoms: N2_7  and  C5_9 
REMARK    4  A    between atoms: C5_9  and  N3_11 
REMARK    5  A    between atoms: N3_11  and  C6_13 
ROOT
HETATM    1  N3  UNL     1     -12.921  15.439  44.985  1.00  0.00    -0.339 N 
ATOM      2  H3  UNL     1     -12.964  14.967  45.889  1.00  0.00     0.168 HD
ENDROOT
BRANCH   1   3
HETATM    3  C5  UNL     1     -11.908  16.370  44.937  1.00  0.00     0.190 C 
HETATM    4  S1  UNL     1     -12.135  17.945  45.125  1.00  0.00    -0.039 SA
BRANCH   3   5
HETATM    5  N2  UNL     1     -10.556  15.954  44.692  1.00  0.00    -0.276 N 
ATOM      6  H2  UNL     1      -9.819  16.303  45.304  1.00  0.00     0.189 HD
BRANCH   5   7
HETATM    7  N1  UNL     1     -10.212  15.093  43.653  1.00  0.00    -0.307 N 
HETATM    8  C3  UNL     1      -8.997  15.071  43.210  1.00  0.00    -0.001 C 
HETATM    9  C4  UNL     1      -7.913  15.927  43.751  1.00  0.00     0.065 C 
ATOM     10  H1  UNL     1     -10.916  14.482  43.241  1.00  0.00     0.186 HD
BRANCH   8  11
HETATM   11  C2  UNL     1      -8.631  14.148  42.096  1.00  0.00     0.049 C 
HETATM   12  C1  UNL     1      -9.844  13.800  41.260  1.00  0.00     0.011 C 
ENDBRANCH   8  11
ENDBRANCH   5   7
ENDBRANCH   3   5
ENDBRANCH   1   3
BRANCH   1  13
HETATM   13  C6  UNL     1     -13.911  14.975  44.099  1.00  0.00    -0.003 C 
HETATM   14  C7  UNL     1     -15.262  15.613  44.120  1.00  0.00     0.032 C 
HETATM   15  C8  UNL     1     -16.229  14.434  43.750  1.00  0.00     0.015 C 
HETATM   16  C12 UNL     1     -15.546  16.665  43.111  1.00  0.00     0.015 C 
HETATM   17  C9  UNL     1     -15.819  13.930  42.405  1.00  0.00    -0.013 C 
HETATM   18  C10 UNL     1     -16.087  15.017  41.382  1.00  0.00     0.009 C 
HETATM   19  C15 UNL     1     -14.409  13.449  42.292  1.00  0.00     0.015 C 
HETATM   20  C11 UNL     1     -15.186  16.194  41.731  1.00  0.00    -0.013 C 
HETATM   21  C13 UNL     1     -13.773  15.682  41.663  1.00  0.00     0.015 C 
HETATM   22  C14 UNL     1     -13.491  14.634  42.695  1.00  0.00     0.032 C 
ENDBRANCH   1  13
TORSDOF 5
ENDMDL
MODEL 2
REMARK VINA RESULT: -7.255107509      3.124      4.256
REMARK  5 active torsions:
REMARK  status: ('A' for Active; 'I' for Inactive)
REMARK    1  A    between atoms: C2_2  and  C3_3 
REMARK    2  A    between atoms: N1_5  and  N2_7 
REMARK    3  A    between atoms: N2_7  and  C5_9 
REMARK    4  A    between atoms: C5_9  and  N3_11 
REMARK    5  A    between atoms: N3_11  and  C6_13 
ROOT
HETATM    1  N3  UNL     1     -13.901  12.290  41.554  1.00  0.00    -0.339 N 
ATOM      2  H3  UNL     1     -13.460  11.558  42.112  1.00  0.00     0.168 HD
ENDROOT
BRANCH   1   3
HETATM    3  C5  UNL     1     -13.915  11.979  40.213  1.00  0.00     0.190 C 
HETATM    4  S1  UNL     1     -15.158  11.293  39.469  1.00  0.00    -0.039 SA
BRANCH   3   5
HETATM    5  N2  UNL     1     -12.767  12.253  39.397  1.00  0.00    -0.276 N 
ATOM      6  H2  UNL     1     -12.754  11.905  38.439  1.00  0.00     0.189 HD
BRANCH   5   7
HETATM    7  N1  UNL     1     -11.669  12.974  39.862  1.00  0.00    -0.307 N 
HETATM    8  C3  UNL     1     -10.570  12.359  40.154  1.00  0.00    -0.001 C 
HETATM    9  C4  UNL     1     -10.395  10.891  40.024  1.00  0.00     0.065 C 
ATOM     10  H1  UNL     1     -11.733  13.985  39.971  1.00  0.00     0.186 HD
BRANCH   8  11
HETATM   11  C2  UNL     1      -9.397  13.134  40.651  1.00  0.00     0.049 C 
HETATM   12  C1  UNL     1      -9.800  14.067  41.773  1.00  0.00     0.011 C 
ENDBRANCH   8  11
ENDBRANCH   5   7
ENDBRANCH   3   5
ENDBRANCH   1   3
BRANCH   1  13
HETATM   13  C6  UNL     1     -14.344  13.364  42.349  1.00  0.00    -0.003 C 
HETATM   14  C7  UNL     1     -13.486  14.581  42.469  1.00  0.00     0.032 C 
HETATM   15  C8  UNL     1     -13.778  15.090  43.925  1.00  0.00     0.015 C 
HETATM   16  C12 UNL     1     -13.799  15.739  41.594  1.00  0.00     0.015 C 
HETATM   17  C9  UNL     1     -15.242  15.372  44.011  1.00  0.00    -0.013 C 
HETATM   18  C10 UNL     1     -15.562  16.538  43.095  1.00  0.00     0.009 C 
HETATM   19  C15 UNL     1     -16.145  14.220  43.714  1.00  0.00     0.015 C 
HETATM   20  C11 UNL     1     -15.259  16.089  41.673  1.00  0.00    -0.013 C 
HETATM   21  C13 UNL     1     -16.138  14.897  41.407  1.00  0.00     0.015 C 
HETATM   22  C14 UNL     1     -15.802  13.729  42.282  1.00  0.00     0.032 C 
ENDBRANCH   1  13
TORSDOF 5
ENDMDL
MODEL 3
REMARK VINA RESULT: -7.011487587      0.507      1.999
REMARK  5 active torsions:
REMARK  status: ('A' for Active; 'I' for Inactive)
REMARK    1  A    between atoms: C2_2  and  C3_3 
REMARK    2  A    between atoms: N1_5  and  N2_7 
REMARK    3  A    between atoms: N2_7  and  C5_9 
REMARK    4  A    between atoms: C5_9  and  N3_11 
REMARK    5  A    between atoms: N3_11  and  C6_13 
ROOT
HETATM    1  N3  UNL     1     -12.795  16.016  44.846  1.00  0.00    -0.339 N 
ATOM      2  H3  UNL     1     -13.061  15.340  45.563  1.00  0.00     0.168 HD
ENDROOT
BRANCH   1   3
HETATM    3  C5  UNL     1     -11.651  16.704  45.183  1.00  0.00     0.190 C 
HETATM    4  S1  UNL     1     -11.649  18.110  45.952  1.00  0.00    -0.039 SA
BRANCH   3   5
HETATM    5  N2  UNL     1     -10.363  16.177  44.833  1.00  0.00    -0.276 N 
ATOM      6  H2  UNL     1      -9.545  16.501  45.349  1.00  0.00     0.189 HD
BRANCH   5   7
HETATM    7  N1  UNL     1     -10.185  15.241  43.816  1.00  0.00    -0.307 N 
HETATM    8  C3  UNL     1      -9.021  15.093  43.273  1.00  0.00    -0.001 C 
HETATM    9  C4  UNL     1      -7.826  15.877  43.672  1.00  0.00     0.065 C 
ATOM     10  H1  UNL     1     -10.971  14.674  43.501  1.00  0.00     0.186 HD
BRANCH   8  11
HETATM   11  C2  UNL     1      -8.834  14.090  42.185  1.00  0.00     0.049 C 
HETATM   12  C1  UNL     1     -10.088  13.957  41.348  1.00  0.00     0.011 C 
ENDBRANCH   8  11
ENDBRANCH   5   7
ENDBRANCH   3   5
ENDBRANCH   1   3
BRANCH   1  13
HETATM   13  C6  UNL     1     -13.690  16.013  43.760  1.00  0.00    -0.003 C 
HETATM   14  C7  UNL     1     -13.381  15.169  42.566  1.00  0.00     0.032 C 
HETATM   15  C8  UNL     1     -13.983  15.990  41.372  1.00  0.00     0.015 C 
HETATM   16  C12 UNL     1     -14.031  13.836  42.473  1.00  0.00     0.015 C 
HETATM   17  C9  UNL     1     -15.444  16.151  41.636  1.00  0.00    -0.013 C 
HETATM   18  C10 UNL     1     -16.099  14.785  41.567  1.00  0.00     0.009 C 
HETATM   19  C15 UNL     1     -15.803  16.832  42.918  1.00  0.00     0.015 C 
HETATM   20  C11 UNL     1     -15.513  13.948  42.695  1.00  0.00    -0.013 C 
HETATM   21  C13 UNL     1     -15.837  14.671  43.974  1.00  0.00     0.015 C 
HETATM   22  C14 UNL     1     -15.163  16.005  44.066  1.00  0.00     0.032 C 
ENDBRANCH   1  13
TORSDOF 5
ENDMDL
MODEL 4
REMARK VINA RESULT: -6.922805094      1.165      1.473
REMARK  5 active torsions:
REMARK  status: ('A' for Active; 'I' for Inactive)
REMARK    1  A    between atoms: C2_2  and  C3_3 
REMARK    2  A    between atoms: N1_5  and  N2_7 
REMARK    3  A    between atoms: N2_7  and  C5_9 
REMARK    4  A    between atoms: C5_9  and  N3_11 
REMARK    5  A    between atoms: N3_11  and  C6_13 
ROOT
HETATM    1  N3  UNL     1     -12.735  15.483  44.930  1.00  0.00    -0.339 N 
ATOM      2  H3  UNL     1     -12.580  14.872  45.732  1.00  0.00     0.168 HD
ENDROOT
BRANCH   1   3
HETATM    3  C5  UNL     1     -11.930  16.598  44.968  1.00  0.00     0.190 C 
HETATM    4  S1  UNL     1     -12.422  18.069  44.563  1.00  0.00    -0.039 SA
BRANCH   3   5
HETATM    5  N2  UNL     1     -10.557  16.484  45.372  1.00  0.00    -0.276 N 
ATOM      6  H2  UNL     1     -10.270  16.909  46.253  1.00  0.00     0.189 HD
BRANCH   5   7
HETATM    7  N1  UNL     1      -9.602  15.816  44.609  1.00  0.00    -0.307 N 
HETATM    8  C3  UNL     1      -8.522  16.427  44.248  1.00  0.00    -0.001 C 
HETATM    9  C4  UNL     1      -8.223  17.837  44.602  1.00  0.00     0.065 C 
ATOM     10  H1  UNL     1      -9.755  14.846  44.336  1.00  0.00     0.186 HD
BRANCH   8  11
HETATM   11  C2  UNL     1      -7.501  15.709  43.431  1.00  0.00     0.049 C 
HETATM   12  C1  UNL     1      -6.229  16.521  43.317  1.00  0.00     0.011 C 
ENDBRANCH   8  11
ENDBRANCH   5   7
ENDBRANCH   3   5
ENDBRANCH   1   3
BRANCH   1  13
HETATM   13  C6  UNL     1     -13.719  14.974  44.061  1.00  0.00    -0.003 C 
HETATM   14  C7  UNL     1     -15.111  15.510  44.146  1.00  0.00     0.032 C 
HETATM   15  C8  UNL     1     -16.001  14.274  43.768  1.00  0.00     0.015 C 
HETATM   16  C12 UNL     1     -15.506  16.569  43.182  1.00  0.00     0.015 C 
HETATM   17  C9  UNL     1     -15.603  13.843  42.394  1.00  0.00    -0.013 C 
HETATM   18  C10 UNL     1     -15.983  14.939  41.418  1.00  0.00     0.009 C 
HETATM   19  C15 UNL     1     -14.165  13.473  42.220  1.00  0.00     0.015 C 
HETATM   20  C11 UNL     1     -15.159  16.168  41.776  1.00  0.00    -0.013 C 
HETATM   21  C13 UNL     1     -13.716  15.765  41.646  1.00  0.00     0.015 C 
HETATM   22  C14 UNL     1     -13.323  14.710  42.634  1.00  0.00     0.032 C 
ENDBRANCH   1  13
TORSDOF 5
ENDMDL
MODEL 5
REMARK VINA RESULT: -6.872384161      2.163      3.127
REMARK  5 active torsions:
REMARK  status: ('A' for Active; 'I' for Inactive)
REMARK    1  A    between atoms: C2_2  and  C3_3 
REMARK    2  A    between atoms: N1_5  and  N2_7 
REMARK    3  A    between atoms: N2_7  and  C5_9 
REMARK    4  A    between atoms: C5_9  and  N3_11 
REMARK    5  A    between atoms: N3_11  and  C6_13 
ROOT
HETATM    1  N3  UNL     1     -14.969  14.687  43.564  1.00  0.00    -0.339 N 
ATOM      2  H3  UNL     1     -14.879  14.572  44.574  1.00  0.00     0.168 HD
ENDROOT
BRANCH   1   3
HETATM    3  C5  UNL     1     -14.373  15.846  43.122  1.00  0.00     0.190 C 
HETATM    4  S1  UNL     1     -14.851  17.315  43.552  1.00  0.00    -0.039 SA
BRANCH   3   5
HETATM    5  N2  UNL     1     -13.266  15.787  42.211  1.00  0.00    -0.276 N 
ATOM      6  H2  UNL     1     -13.431  16.000  41.227  1.00  0.00     0.189 HD
BRANCH   5   7
HETATM    7  N1  UNL     1     -11.977  15.451  42.616  1.00  0.00    -0.307 N 
HETATM    8  C3  UNL     1     -11.311  14.552  41.967  1.00  0.00    -0.001 C 
HETATM    9  C4  UNL     1     -11.845  13.833  40.785  1.00  0.00     0.065 C 
ATOM     10  H1  UNL     1     -11.558  15.912  43.423  1.00  0.00     0.186 HD
BRANCH   8  11
HETATM   11  C2  UNL     1      -9.930  14.194  42.403  1.00  0.00     0.049 C 
HETATM   12  C1  UNL     1      -9.126  13.632  41.250  1.00  0.00     0.011 C 
ENDBRANCH   8  11
ENDBRANCH   5   7
ENDBRANCH   3   5
ENDBRANCH   1   3
BRANCH   1  13
HETATM   13  C6  UNL     1     -15.670  13.620  42.972  1.00  0.00    -0.003 C 
HETATM   14  C7  UNL     1     -16.980  13.198  43.555  1.00  0.00     0.032 C 
HETATM   15  C8  UNL     1     -17.017  11.652  43.288  1.00  0.00     0.015 C 
HETATM   16  C12 UNL     1     -18.219  13.720  42.924  1.00  0.00     0.015 C 
HETATM   17  C9  UNL     1     -16.921  11.454  41.811  1.00  0.00    -0.013 C 
HETATM   18  C10 UNL     1     -18.177  12.012  41.169  1.00  0.00     0.009 C 
HETATM   19  C15 UNL     1     -15.707  12.027  41.154  1.00  0.00     0.015 C 
HETATM   20  C11 UNL     1     -18.191  13.510  41.436  1.00  0.00    -0.013 C 
HETATM   21  C13 UNL     1     -16.938  14.065  40.815  1.00  0.00     0.015 C 
HETATM   22  C14 UNL     1     -15.694  13.547  41.469  1.00  0.00     0.032 C 
ENDBRANCH   1  13
TORSDOF 5
ENDMDL
