MODEL 1
REMARK VINA RESULT: -7.806898813      0.000      0.000
REMARK  3 active torsions:
REMARK  status: ('A' for Active; 'I' for Inactive)
REMARK       I    between atoms: C2_5  and  N3_6 
REMARK       I    between atoms: C2_5  and  N4_13 
REMARK    1  A    between atoms: N3_6  and  C3_8 
REMARK    2  A    between atoms: C3_8  and  C4_9 
REMARK    3  A    between atoms: N4_13  and  C8_15 
ROOT
HETATM    1  N1  UNL     1     -12.951  17.852  44.181  1.00  0.00    -0.171 NA
HETATM    2  C1  UNL     1     -13.350  16.862  43.702  1.00  0.00     0.196 C 
HETATM    3  N2  UNL     1     -13.819  15.693  43.115  1.00  0.00    -0.126 N 
ATOM      4  H2  UNL     1     -14.730  15.720  42.658  1.00  0.00     0.197 HD
HETATM    5  C2  UNL     1     -13.174  14.579  43.111  1.00  0.00     0.683 C 
HETATM    6  N3  UNL     1     -11.899  14.489  43.735  1.00  0.00    -0.225 N 
ATOM      7  H3  UNL     1     -11.814  14.088  44.669  1.00  0.00     0.177 HD
HETATM    8  N4  UNL     1     -13.788  13.469  42.469  1.00  0.00    -0.216 N 
ATOM      9  H4  UNL     1     -13.183  12.705  42.164  1.00  0.00     0.178 HD
ENDROOT
BRANCH   6  10
HETATM   10  C3  UNL     1     -10.742  14.959  43.053  1.00  0.00     0.142 C 
BRANCH  10  11
HETATM   11  C4  UNL     1      -9.976  13.899  42.328  1.00  0.00     0.004 C 
HETATM   12  C5  UNL     1     -10.329  13.748  40.859  1.00  0.00     0.006 C 
HETATM   13  C6  UNL     1      -8.842  13.458  40.615  1.00  0.00     0.001 C 
HETATM   14  C7  UNL     1      -8.576  14.206  41.926  1.00  0.00     0.006 C 
ENDBRANCH  10  11
ENDBRANCH   6  10
BRANCH   8  15
HETATM   15  C8  UNL     1     -15.194  13.344  42.219  1.00  0.00     0.048 C 
HETATM   16  C9  UNL     1     -15.918  12.933  43.492  1.00  0.00     0.036 C 
HETATM   17  C10 UNL     1     -17.371  12.687  43.242  1.00  0.00    -0.012 C 
HETATM   18  C11 UNL     1     -17.500  11.473  42.343  1.00  0.00     0.009 C 
HETATM   19  C15 UNL     1     -17.980  13.906  42.616  1.00  0.00     0.009 C 
HETATM   20  C12 UNL     1     -16.809  11.813  41.043  1.00  0.00    -0.012 C 
HETATM   21  C13 UNL     1     -17.474  13.009  40.381  1.00  0.00     0.009 C 
HETATM   22  C17 UNL     1     -15.370  12.157  41.256  1.00  0.00     0.036 C 
HETATM   23  C14 UNL     1     -17.290  14.184  41.315  1.00  0.00    -0.012 C 
HETATM   24  C16 UNL     1     -15.823  14.513  41.528  1.00  0.00     0.036 C 
ENDBRANCH   8  15
TORSDOF 3
ENDMDL
MODEL 2
REMARK VINA RESULT: -7.722273933      2.866      6.583
REMARK  3 active torsions:
REMARK  status: ('A' for Active; 'I' for Inactive)
REMARK       I    between atoms: C2_5  and  N3_6 
REMARK       I    between atoms: C2_5  and  N4_13 
REMARK    1  A    between atoms: N3_6  and  C3_8 
REMARK    2  A    between atoms: C3_8  and  C4_9 
REMARK    3  A    between atoms: N4_13  and  C8_15 
ROOT
HETATM    1  N1  UNL     1     -16.126  14.505  44.101  1.00  0.00    -0.171 NA
HETATM    2  C1  UNL     1     -15.206  15.218  44.219  1.00  0.00     0.196 C 
HETATM    3  N2  UNL     1     -14.102  16.050  44.367  1.00  0.00    -0.126 N 
ATOM      4  H2  UNL     1     -13.939  16.468  45.283  1.00  0.00     0.197 HD
HETATM    5  C2  UNL     1     -13.274  16.326  43.420  1.00  0.00     0.683 C 
HETATM    6  N3  UNL     1     -13.458  15.769  42.125  1.00  0.00    -0.225 N 
ATOM      7  H3  UNL     1     -13.887  16.325  41.385  1.00  0.00     0.177 HD
HETATM    8  N4  UNL     1     -12.193  17.197  43.729  1.00  0.00    -0.216 N 
ATOM      9  H4  UNL     1     -11.371  17.161  43.126  1.00  0.00     0.178 HD
ENDROOT
BRANCH   6  10
HETATM   10  C3  UNL     1     -13.043  14.433  41.862  1.00  0.00     0.142 C 
BRANCH  10  11
HETATM   11  C4  UNL     1     -11.837  14.320  40.985  1.00  0.00     0.004 C 
HETATM   12  C5  UNL     1     -10.514  14.235  41.726  1.00  0.00     0.006 C 
HETATM   13  C6  UNL     1     -10.056  13.263  40.630  1.00  0.00     0.001 C 
HETATM   14  C7  UNL     1     -11.543  12.995  40.375  1.00  0.00     0.006 C 
ENDBRANCH  10  11
ENDBRANCH   6  10
BRANCH   8  15
HETATM   15  C8  UNL     1     -12.176  18.121  44.824  1.00  0.00     0.048 C 
HETATM   16  C9  UNL     1     -13.466  18.926  44.851  1.00  0.00     0.036 C 
HETATM   17  C10 UNL     1     -13.436  19.977  45.913  1.00  0.00    -0.012 C 
HETATM   18  C11 UNL     1     -12.378  20.998  45.544  1.00  0.00     0.009 C 
HETATM   19  C15 UNL     1     -13.145  19.334  47.237  1.00  0.00     0.009 C 
HETATM   20  C12 UNL     1     -11.055  20.269  45.509  1.00  0.00    -0.012 C 
HETATM   21  C13 UNL     1     -10.735  19.677  46.872  1.00  0.00     0.009 C 
HETATM   22  C17 UNL     1     -11.068  19.147  44.522  1.00  0.00     0.036 C 
HETATM   23  C14 UNL     1     -11.810  18.656  47.169  1.00  0.00    -0.012 C 
HETATM   24  C16 UNL     1     -11.817  17.529  46.151  1.00  0.00     0.036 C 
ENDBRANCH   8  15
TORSDOF 3
ENDMDL
MODEL 3
REMARK VINA RESULT: -7.595466385      3.649      6.774
REMARK  3 active torsions:
REMARK  status: ('A' for Active; 'I' for Inactive)
REMARK       I    between atoms: C2_5  and  N3_6 
REMARK       I    between atoms: C2_5  and  N4_13 
REMARK    1  A    between atoms: N3_6  and  C3_8 
REMARK    2  A    between atoms: C3_8  and  C4_9 
REMARK    3  A    between atoms: N4_13  and  C8_15 
ROOT
HETATM    1  N1  UNL     1      -6.846  15.640  44.547  1.00  0.00    -0.171 NA
HETATM    2  C1  UNL     1      -7.899  16.149  44.521  1.00  0.00     0.196 C 
HETATM    3  N2  UNL     1      -9.146  16.760  44.472  1.00  0.00    -0.126 N 
ATOM      4  H2  UNL     1      -9.200  17.753  44.698  1.00  0.00     0.197 HD
HETATM    5  C2  UNL     1     -10.237  16.152  44.160  1.00  0.00     0.683 C 
HETATM    6  N3  UNL     1     -10.216  14.767  43.837  1.00  0.00    -0.225 N 
ATOM      7  H3  UNL     1     -10.486  14.074  44.535  1.00  0.00     0.177 HD
HETATM    8  N4  UNL     1     -11.436  16.916  44.156  1.00  0.00    -0.216 N 
ATOM      9  H4  UNL     1     -12.220  16.563  43.607  1.00  0.00     0.178 HD
ENDROOT
BRANCH   6  10
HETATM   10  C3  UNL     1      -9.815  14.349  42.537  1.00  0.00     0.142 C 
BRANCH  10  11
HETATM   11  C4  UNL     1     -10.918  14.322  41.527  1.00  0.00     0.004 C 
HETATM   12  C5  UNL     1     -10.647  13.457  40.309  1.00  0.00     0.006 C 
HETATM   13  C6  UNL     1     -12.136  13.090  40.338  1.00  0.00     0.001 C 
HETATM   14  C7  UNL     1     -12.108  13.476  41.821  1.00  0.00     0.006 C 
ENDBRANCH  10  11
ENDBRANCH   6  10
BRANCH   8  15
HETATM   15  C8  UNL     1     -11.623  18.146  44.868  1.00  0.00     0.048 C 
HETATM   16  C9  UNL     1     -11.502  17.909  46.366  1.00  0.00     0.036 C 
HETATM   17  C10 UNL     1     -11.802  19.148  47.145  1.00  0.00    -0.012 C 
HETATM   18  C11 UNL     1     -13.265  19.493  46.948  1.00  0.00     0.009 C 
HETATM   19  C15 UNL     1     -10.905  20.255  46.677  1.00  0.00     0.009 C 
HETATM   20  C12 UNL     1     -13.460  19.757  45.474  1.00  0.00    -0.012 C 
HETATM   21  C13 UNL     1     -12.598  20.923  45.020  1.00  0.00     0.009 C 
HETATM   22  C17 UNL     1     -13.085  18.570  44.645  1.00  0.00     0.036 C 
HETATM   23  C14 UNL     1     -11.159  20.507  45.221  1.00  0.00    -0.012 C 
HETATM   24  C16 UNL     1     -10.797  19.295  44.381  1.00  0.00     0.036 C 
ENDBRANCH   8  15
TORSDOF 3
ENDMDL
MODEL 4
REMARK VINA RESULT: -7.499329083      2.565      3.620
REMARK  3 active torsions:
REMARK  status: ('A' for Active; 'I' for Inactive)
REMARK       I    between atoms: C2_5  and  N3_6 
REMARK       I    between atoms: C2_5  and  N4_13 
REMARK    1  A    between atoms: N3_6  and  C3_8 
REMARK    2  A    between atoms: C3_8  and  C4_9 
REMARK    3  A    between atoms: N4_13  and  C8_15 
ROOT
HETATM    1  N1  UNL     1     -11.492  18.783  47.413  1.00  0.00    -0.171 NA
HETATM    2  C1  UNL     1     -11.807  18.205  46.445  1.00  0.00     0.196 C 
HETATM    3  N2  UNL     1     -12.178  17.536  45.286  1.00  0.00    -0.126 N 
ATOM      4  H2  UNL     1     -13.140  17.638  44.963  1.00  0.00     0.197 HD
HETATM    5  C2  UNL     1     -11.384  16.795  44.593  1.00  0.00     0.683 C 
HETATM    6  N3  UNL     1     -10.033  16.621  45.001  1.00  0.00    -0.225 N 
ATOM      7  H3  UNL     1      -9.755  15.777  45.503  1.00  0.00     0.177 HD
HETATM    8  N4  UNL     1     -11.915  16.175  43.430  1.00  0.00    -0.216 N 
ATOM      9  H4  UNL     1     -11.256  15.878  42.710  1.00  0.00     0.178 HD
ENDROOT
BRANCH   6  10
HETATM   10  C3  UNL     1      -9.069  17.626  44.709  1.00  0.00     0.142 C 
BRANCH  10  11
HETATM   11  C4  UNL     1      -7.672  17.117  44.549  1.00  0.00     0.004 C 
HETATM   12  C5  UNL     1      -7.535  15.899  43.653  1.00  0.00     0.006 C 
HETATM   13  C6  UNL     1      -6.208  16.502  43.173  1.00  0.00     0.001 C 
HETATM   14  C7  UNL     1      -6.764  17.855  43.629  1.00  0.00     0.006 C 
ENDBRANCH  10  11
ENDBRANCH   6  10
BRANCH   8  15
HETATM   15  C8  UNL     1     -13.309  15.936  43.194  1.00  0.00     0.048 C 
HETATM   16  C9  UNL     1     -13.837  14.904  44.178  1.00  0.00     0.036 C 
HETATM   17  C10 UNL     1     -15.260  14.548  43.891  1.00  0.00    -0.012 C 
HETATM   18  C11 UNL     1     -15.312  13.835  42.554  1.00  0.00     0.009 C 
HETATM   19  C15 UNL     1     -16.090  15.796  43.885  1.00  0.00     0.009 C 
HETATM   20  C12 UNL     1     -14.810  14.811  41.516  1.00  0.00    -0.012 C 
HETATM   21  C13 UNL     1     -15.696  16.045  41.469  1.00  0.00     0.009 C 
HETATM   22  C17 UNL     1     -13.417  15.266  41.813  1.00  0.00     0.036 C 
HETATM   23  C14 UNL     1     -15.581  16.718  42.818  1.00  0.00    -0.012 C 
HETATM   24  C16 UNL     1     -14.159  17.164  43.109  1.00  0.00     0.036 C 
ENDBRANCH   8  15
TORSDOF 3
ENDMDL
MODEL 5
REMARK VINA RESULT: -7.493433910      2.871      6.943
REMARK  3 active torsions:
REMARK  status: ('A' for Active; 'I' for Inactive)
REMARK       I    between atoms: C2_5  and  N3_6 
REMARK       I    between atoms: C2_5  and  N4_13 
REMARK    1  A    between atoms: N3_6  and  C3_8 
REMARK    2  A    between atoms: C3_8  and  C4_9 
REMARK    3  A    between atoms: N4_13  and  C8_15 
ROOT
HETATM    1  N1  UNL     1     -16.526  14.872  44.228  1.00  0.00    -0.171 NA
HETATM    2  C1  UNL     1     -15.525  15.468  44.331  1.00  0.00     0.196 C 
HETATM    3  N2  UNL     1     -14.327  16.161  44.464  1.00  0.00    -0.126 N 
ATOM      4  H2  UNL     1     -14.150  16.643  45.345  1.00  0.00     0.197 HD
HETATM    5  C2  UNL     1     -13.428  16.231  43.545  1.00  0.00     0.683 C 
HETATM    6  N3  UNL     1     -13.627  15.576  42.298  1.00  0.00    -0.225 N 
ATOM      7  H3  UNL     1     -13.944  16.107  41.487  1.00  0.00     0.177 HD
HETATM    8  N4  UNL     1     -12.255  16.981  43.833  1.00  0.00    -0.216 N 
ATOM      9  H4  UNL     1     -11.418  16.779  43.284  1.00  0.00     0.178 HD
ENDROOT
BRANCH   6  10
HETATM   10  C3  UNL     1     -13.384  14.179  42.186  1.00  0.00     0.142 C 
BRANCH  10  11
HETATM   11  C4  UNL     1     -14.147  13.504  41.090  1.00  0.00     0.004 C 
HETATM   12  C5  UNL     1     -13.634  12.125  40.712  1.00  0.00     0.006 C 
HETATM   13  C6  UNL     1     -15.100  11.729  40.494  1.00  0.00     0.001 C 
HETATM   14  C7  UNL     1     -15.457  12.886  41.433  1.00  0.00     0.006 C 
ENDBRANCH  10  11
ENDBRANCH   6  10
BRANCH   8  15
HETATM   15  C8  UNL     1     -12.162  18.000  44.837  1.00  0.00     0.048 C 
HETATM   16  C9  UNL     1     -13.369  18.922  44.761  1.00  0.00     0.036 C 
HETATM   17  C10 UNL     1     -13.251  20.061  45.721  1.00  0.00    -0.012 C 
HETATM   18  C11 UNL     1     -12.096  20.939  45.279  1.00  0.00     0.009 C 
HETATM   19  C15 UNL     1     -13.038  19.524  47.104  1.00  0.00     0.009 C 
HETATM   20  C12 UNL     1     -10.849  20.088  45.340  1.00  0.00    -0.012 C 
HETATM   21  C13 UNL     1     -10.603  19.601  46.759  1.00  0.00     0.009 C 
HETATM   22  C17 UNL     1     -10.958  18.883  44.462  1.00  0.00     0.036 C 
HETATM   23  C14 UNL     1     -11.774  18.719  47.128  1.00  0.00    -0.012 C 
HETATM   24  C16 UNL     1     -11.877  17.506  46.220  1.00  0.00     0.036 C 
ENDBRANCH   8  15
TORSDOF 3
ENDMDL
