MODEL 1
REMARK VINA RESULT: -6.879869633      0.000      0.000
REMARK  9 active torsions:
REMARK  status: ('A' for Active; 'I' for Inactive)
REMARK    1  A    between atoms: O1_1  and  C1_3 
REMARK    2  A    between atoms: C1_3  and  C2_4 
REMARK    3  A    between atoms: C2_4  and  C3_5 
REMARK    4  A    between atoms: C2_4  and  C15_25 
REMARK    5  A    between atoms: C4_6  and  C5_7 
REMARK    6  A    between atoms: C5_7  and  C6_8 
REMARK    7  A    between atoms: C6_8  and  C7_9 
REMARK    8  A    between atoms: C11_14  and  O2_15 
REMARK    9  A    between atoms: C13_19  and  O3_20 
ROOT
HETATM    1  C7  UNL     1     -13.229  12.962  40.749  1.00  0.00     0.011 A 
HETATM    2  C8  UNL     1     -12.588  13.955  40.069  1.00  0.00     0.040 A 
HETATM    3  C9  UNL     1     -12.438  15.005  40.981  1.00  0.00     0.015 A 
HETATM    4  C10 UNL     1     -11.878  16.237  40.861  1.00  0.00     0.058 A 
HETATM    5 BR1  UNL     1     -11.103  16.810  39.219  1.00  0.00    -0.047 Br
HETATM    6  C11 UNL     1     -11.883  17.067  41.963  1.00  0.00     0.104 A 
HETATM    7  C12 UNL     1     -12.459  16.620  43.158  1.00  0.00     0.081 A 
HETATM    8 BR2  UNL     1     -12.437  17.813  44.653  1.00  0.00    -0.045 Br
HETATM    9  C13 UNL     1     -13.025  15.366  43.264  1.00  0.00     0.113 A 
HETATM   10  C14 UNL     1     -13.015  14.549  42.166  1.00  0.00     0.079 A 
HETATM   11  N1  UNL     1     -13.492  13.306  42.011  1.00  0.00    -0.357 N 
ATOM     12  H1  UNL     1     -13.962  12.737  42.716  1.00  0.00     0.166 HD
ENDROOT
BRANCH   1  13
HETATM   13  C6  UNL     1     -13.594  11.629  40.134  1.00  0.00     0.061 C 
BRANCH  13  14
HETATM   14  C5  UNL     1     -14.462  11.941  38.978  1.00  0.00     0.033 C 
BRANCH  14  15
HETATM   15  C4  UNL     1     -15.843  11.546  38.936  1.00  0.00    -0.030 C 
HETATM   16  C3  UNL     1     -16.838  11.734  39.696  1.00  0.00    -0.023 C 
BRANCH  16  17
HETATM   17  C2  UNL     1     -16.961  12.452  40.951  1.00  0.00     0.045 C 
BRANCH  17  18
HETATM   18  C1  UNL     1     -17.998  11.707  41.837  1.00  0.00     0.173 C 
BRANCH  18  19
HETATM   19  O1  UNL     1     -18.725  10.809  41.069  1.00  0.00    -0.400 OA
ATOM     20  H1  UNL     1     -18.832   9.990  41.538  1.00  0.00     0.209 HD
ENDBRANCH  18  19
ENDBRANCH  17  18
BRANCH  17  21
HETATM   21  C15 UNL     1     -17.525  13.848  40.647  1.00  0.00     0.125 C 
HETATM   22 CL1  UNL     1     -16.227  15.031  40.760  1.00  0.00    -0.130 Cl
ENDBRANCH  17  21
ENDBRANCH  16  17
ENDBRANCH  14  15
ENDBRANCH  13  14
ENDBRANCH   1  13
BRANCH   9  23
HETATM   23  O3  UNL     1     -13.583  14.981  44.487  1.00  0.00    -0.357 OA
ATOM     24  H3  UNL     1     -14.246  14.301  44.492  1.00  0.00     0.217 HD
ENDBRANCH   9  23
BRANCH   6  25
HETATM   25  O2  UNL     1     -11.329  18.320  41.895  1.00  0.00    -0.358 OA
ATOM     26  H2  UNL     1     -10.573  18.545  42.425  1.00  0.00     0.217 HD
ENDBRANCH   6  25
TORSDOF 9
ENDMDL
MODEL 2
REMARK VINA RESULT: -6.824405579      3.186      4.755
REMARK  9 active torsions:
REMARK  status: ('A' for Active; 'I' for Inactive)
REMARK    1  A    between atoms: O1_1  and  C1_3 
REMARK    2  A    between atoms: C1_3  and  C2_4 
REMARK    3  A    between atoms: C2_4  and  C3_5 
REMARK    4  A    between atoms: C2_4  and  C15_25 
REMARK    5  A    between atoms: C4_6  and  C5_7 
REMARK    6  A    between atoms: C5_7  and  C6_8 
REMARK    7  A    between atoms: C6_8  and  C7_9 
REMARK    8  A    between atoms: C11_14  and  O2_15 
REMARK    9  A    between atoms: C13_19  and  O3_20 
ROOT
HETATM    1  C7  UNL     1     -13.288  16.798  40.220  1.00  0.00     0.011 A 
HETATM    2  C8  UNL     1     -12.651  15.618  40.463  1.00  0.00     0.040 A 
HETATM    3  C9  UNL     1     -11.595  15.559  39.547  1.00  0.00     0.015 A 
HETATM    4  C10 UNL     1     -10.636  14.623  39.327  1.00  0.00     0.058 A 
HETATM    5 BR1  UNL     1     -10.560  13.030  40.367  1.00  0.00    -0.047 Br
HETATM    6  C11 UNL     1      -9.713  14.855  38.328  1.00  0.00     0.104 A 
HETATM    7  C12 UNL     1      -9.792  16.035  37.579  1.00  0.00     0.081 A 
HETATM    8 BR2  UNL     1      -8.487  16.304  36.207  1.00  0.00    -0.045 Br
HETATM    9  C13 UNL     1     -10.774  16.977  37.814  1.00  0.00     0.113 A 
HETATM   10  C14 UNL     1     -11.685  16.738  38.806  1.00  0.00     0.079 A 
HETATM   11  N1  UNL     1     -12.718  17.482  39.227  1.00  0.00    -0.357 N 
ATOM     12  H1  UNL     1     -13.010  18.388  38.861  1.00  0.00     0.166 HD
ENDROOT
BRANCH   1  13
HETATM   13  C6  UNL     1     -14.500  17.267  40.994  1.00  0.00     0.061 C 
BRANCH  13  14
HETATM   14  C5  UNL     1     -15.552  16.257  40.750  1.00  0.00     0.033 C 
BRANCH  14  15
HETATM   15  C4  UNL     1     -16.057  15.416  41.801  1.00  0.00    -0.030 C 
HETATM   16  C3  UNL     1     -16.738  14.349  41.826  1.00  0.00    -0.023 C 
BRANCH  16  17
HETATM   17  C2  UNL     1     -17.286  13.539  40.754  1.00  0.00     0.045 C 
BRANCH  17  18
HETATM   18  C1  UNL     1     -18.704  13.066  41.180  1.00  0.00     0.173 C 
BRANCH  18  19
HETATM   19  O1  UNL     1     -18.619  11.866  41.871  1.00  0.00    -0.400 OA
ATOM     20  H1  UNL     1     -19.025  11.951  42.726  1.00  0.00     0.209 HD
ENDBRANCH  18  19
ENDBRANCH  17  18
BRANCH  17  21
HETATM   21  C15 UNL     1     -16.405  12.290  40.600  1.00  0.00     0.125 C 
HETATM   22 CL1  UNL     1     -14.923  12.732  39.762  1.00  0.00    -0.130 Cl
ENDBRANCH  17  21
ENDBRANCH  16  17
ENDBRANCH  14  15
ENDBRANCH  13  14
ENDBRANCH   1  13
BRANCH   9  23
HETATM   23  O3  UNL     1     -10.797  18.134  37.030  1.00  0.00    -0.357 OA
ATOM     24  H3  UNL     1     -10.130  18.795  37.172  1.00  0.00     0.217 HD
ENDBRANCH   9  23
BRANCH   6  25
HETATM   25  O2  UNL     1      -8.724  13.942  38.066  1.00  0.00    -0.358 OA
ATOM     26  H2  UNL     1      -8.919  13.012  38.033  1.00  0.00     0.217 HD
ENDBRANCH   6  25
TORSDOF 9
ENDMDL
MODEL 3
REMARK VINA RESULT: -6.821292303      4.013      7.070
REMARK  9 active torsions:
REMARK  status: ('A' for Active; 'I' for Inactive)
REMARK    1  A    between atoms: O1_1  and  C1_3 
REMARK    2  A    between atoms: C1_3  and  C2_4 
REMARK    3  A    between atoms: C2_4  and  C3_5 
REMARK    4  A    between atoms: C2_4  and  C15_25 
REMARK    5  A    between atoms: C4_6  and  C5_7 
REMARK    6  A    between atoms: C5_7  and  C6_8 
REMARK    7  A    between atoms: C6_8  and  C7_9 
REMARK    8  A    between atoms: C11_14  and  O2_15 
REMARK    9  A    between atoms: C13_19  and  O3_20 
ROOT
HETATM    1  C7  UNL     1     -12.039  13.091  39.884  1.00  0.00     0.011 A 
HETATM    2  C8  UNL     1     -12.961  12.399  39.156  1.00  0.00     0.040 A 
HETATM    3  C9  UNL     1     -14.188  12.613  39.794  1.00  0.00     0.015 A 
HETATM    4  C10 UNL     1     -15.443  12.175  39.518  1.00  0.00     0.058 A 
HETATM    5 BR1  UNL     1     -15.784  11.052  38.018  1.00  0.00    -0.047 Br
HETATM    6  C11 UNL     1     -16.471  12.564  40.351  1.00  0.00     0.104 A 
HETATM    7  C12 UNL     1     -16.192  13.391  41.447  1.00  0.00     0.081 A 
HETATM    8 BR2  UNL     1     -17.654  13.900  42.569  1.00  0.00    -0.045 Br
HETATM    9  C13 UNL     1     -14.910  13.828  41.715  1.00  0.00     0.113 A 
HETATM   10  C14 UNL     1     -13.898  13.437  40.883  1.00  0.00     0.079 A 
HETATM   11  N1  UNL     1     -12.587  13.719  40.924  1.00  0.00    -0.357 N 
ATOM     12  H1  UNL     1     -12.107  14.298  41.614  1.00  0.00     0.166 HD
ENDROOT
BRANCH   1  13
HETATM   13  C6  UNL     1     -10.566  13.134  39.540  1.00  0.00     0.061 C 
BRANCH  13  14
HETATM   14  C5  UNL     1     -10.353  14.413  38.831  1.00  0.00     0.033 C 
BRANCH  14  15
HETATM   15  C4  UNL     1      -9.045  14.992  38.682  1.00  0.00    -0.030 C 
HETATM   16  C3  UNL     1      -8.502  15.729  37.807  1.00  0.00    -0.023 C 
BRANCH  16  17
HETATM   17  C2  UNL     1      -9.021  16.293  36.575  1.00  0.00     0.045 C 
BRANCH  17  18
HETATM   18  C1  UNL     1      -7.819  16.794  35.727  1.00  0.00     0.173 C 
BRANCH  18  19
HETATM   19  O1  UNL     1      -7.530  18.114  36.042  1.00  0.00    -0.400 OA
ATOM     20  H1  UNL     1      -6.721  18.381  35.622  1.00  0.00     0.209 HD
ENDBRANCH  18  19
ENDBRANCH  17  18
BRANCH  17  21
HETATM   21  C15 UNL     1      -9.880  17.514  36.933  1.00  0.00     0.125 C 
HETATM   22 CL1  UNL     1     -11.580  17.097  36.749  1.00  0.00    -0.130 Cl
ENDBRANCH  17  21
ENDBRANCH  16  17
ENDBRANCH  14  15
ENDBRANCH  13  14
ENDBRANCH   1  13
BRANCH   9  23
HETATM   23  O3  UNL     1     -14.700  14.652  42.825  1.00  0.00    -0.357 OA
ATOM     24  H3  UNL     1     -13.815  14.934  43.023  1.00  0.00     0.217 HD
ENDBRANCH   9  23
BRANCH   6  25
HETATM   25  O2  UNL     1     -17.757  12.150  40.116  1.00  0.00    -0.358 OA
ATOM     26  H2  UNL     1     -18.254  12.507  39.389  1.00  0.00     0.217 HD
ENDBRANCH   6  25
TORSDOF 9
ENDMDL
MODEL 4
REMARK VINA RESULT: -6.755084894      4.295      7.235
REMARK  9 active torsions:
REMARK  status: ('A' for Active; 'I' for Inactive)
REMARK    1  A    between atoms: O1_1  and  C1_3 
REMARK    2  A    between atoms: C1_3  and  C2_4 
REMARK    3  A    between atoms: C2_4  and  C3_5 
REMARK    4  A    between atoms: C2_4  and  C15_25 
REMARK    5  A    between atoms: C4_6  and  C5_7 
REMARK    6  A    between atoms: C5_7  and  C6_8 
REMARK    7  A    between atoms: C6_8  and  C7_9 
REMARK    8  A    between atoms: C11_14  and  O2_15 
REMARK    9  A    between atoms: C13_19  and  O3_20 
ROOT
HETATM    1  C7  UNL     1     -12.166  13.732  39.719  1.00  0.00     0.011 A 
HETATM    2  C8  UNL     1     -13.021  12.829  39.161  1.00  0.00     0.040 A 
HETATM    3  C9  UNL     1     -14.216  12.943  39.880  1.00  0.00     0.015 A 
HETATM    4  C10 UNL     1     -15.406  12.297  39.770  1.00  0.00     0.058 A 
HETATM    5 BR1  UNL     1     -15.678  10.957  38.444  1.00  0.00    -0.047 Br
HETATM    6  C11 UNL     1     -16.417  12.636  40.644  1.00  0.00     0.104 A 
HETATM    7  C12 UNL     1     -16.190  13.625  41.609  1.00  0.00     0.081 A 
HETATM    8 BR2  UNL     1     -17.628  14.054  42.795  1.00  0.00    -0.045 Br
HETATM    9  C13 UNL     1     -14.975  14.272  41.709  1.00  0.00     0.113 A 
HETATM   10  C14 UNL     1     -13.977  13.929  40.838  1.00  0.00     0.079 A 
HETATM   11  N1  UNL     1     -12.727  14.400  40.728  1.00  0.00    -0.357 N 
ATOM     12  H1  UNL     1     -12.292  15.124  41.301  1.00  0.00     0.166 HD
ENDROOT
BRANCH   1  13
HETATM   13  C6  UNL     1     -10.746  13.943  39.241  1.00  0.00     0.061 C 
BRANCH  13  14
HETATM   14  C5  UNL     1     -10.580  15.405  39.100  1.00  0.00     0.033 C 
BRANCH  14  15
HETATM   15  C4  UNL     1     -10.606  16.054  37.817  1.00  0.00    -0.030 C 
HETATM   16  C3  UNL     1      -9.726  16.331  36.951  1.00  0.00    -0.023 C 
BRANCH  16  17
HETATM   17  C2  UNL     1      -8.296  16.085  36.928  1.00  0.00     0.045 C 
BRANCH  17  18
HETATM   18  C1  UNL     1      -7.669  16.972  35.815  1.00  0.00     0.173 C 
BRANCH  18  19
HETATM   19  O1  UNL     1      -7.743  18.310  36.173  1.00  0.00    -0.400 OA
ATOM     20  H1  UNL     1      -7.216  18.471  36.947  1.00  0.00     0.209 HD
ENDBRANCH  18  19
ENDBRANCH  17  18
BRANCH  17  21
HETATM   21  C15 UNL     1      -8.071  14.617  36.536  1.00  0.00     0.125 C 
HETATM   22 CL1  UNL     1      -7.338  13.765  37.890  1.00  0.00    -0.130 Cl
ENDBRANCH  17  21
ENDBRANCH  16  17
ENDBRANCH  14  15
ENDBRANCH  13  14
ENDBRANCH   1  13
BRANCH   9  23
HETATM   23  O3  UNL     1     -14.813  15.250  42.695  1.00  0.00    -0.357 OA
ATOM     24  H3  UNL     1     -15.407  15.991  42.705  1.00  0.00     0.217 HD
ENDBRANCH   9  23
BRANCH   6  25
HETATM   25  O2  UNL     1     -17.638  12.014  40.575  1.00  0.00    -0.358 OA
ATOM     26  H2  UNL     1     -17.864  11.322  41.186  1.00  0.00     0.217 HD
ENDBRANCH   6  25
TORSDOF 9
ENDMDL
MODEL 5
REMARK VINA RESULT: -6.693048034      2.135      2.757
REMARK  9 active torsions:
REMARK  status: ('A' for Active; 'I' for Inactive)
REMARK    1  A    between atoms: O1_1  and  C1_3 
REMARK    2  A    between atoms: C1_3  and  C2_4 
REMARK    3  A    between atoms: C2_4  and  C3_5 
REMARK    4  A    between atoms: C2_4  and  C15_25 
REMARK    5  A    between atoms: C4_6  and  C5_7 
REMARK    6  A    between atoms: C5_7  and  C6_8 
REMARK    7  A    between atoms: C6_8  and  C7_9 
REMARK    8  A    between atoms: C11_14  and  O2_15 
REMARK    9  A    between atoms: C13_19  and  O3_20 
ROOT
HETATM    1  C7  UNL     1     -12.683  12.920  39.610  1.00  0.00     0.011 A 
HETATM    2  C8  UNL     1     -13.234  13.388  40.766  1.00  0.00     0.040 A 
HETATM    3  C9  UNL     1     -12.210  14.083  41.420  1.00  0.00     0.015 A 
HETATM    4  C10 UNL     1     -12.180  14.751  42.602  1.00  0.00     0.058 A 
HETATM    5 BR1  UNL     1     -13.727  14.868  43.706  1.00  0.00    -0.047 Br
HETATM    6  C11 UNL     1     -10.996  15.346  42.987  1.00  0.00     0.104 A 
HETATM    7  C12 UNL     1      -9.874  15.245  42.155  1.00  0.00     0.081 A 
HETATM    8 BR2  UNL     1      -8.260  16.090  42.738  1.00  0.00    -0.045 Br
HETATM    9  C13 UNL     1      -9.921  14.562  40.957  1.00  0.00     0.113 A 
HETATM   10  C14 UNL     1     -11.099  13.975  40.584  1.00  0.00     0.079 A 
HETATM   11  N1  UNL     1     -11.401  13.265  39.487  1.00  0.00    -0.357 N 
ATOM     12  H1  UNL     1     -10.776  13.036  38.714  1.00  0.00     0.166 HD
ENDROOT
BRANCH   1  13
HETATM   13  C6  UNL     1     -13.449  12.106  38.590  1.00  0.00     0.061 C 
BRANCH  13  14
HETATM   14  C5  UNL     1     -14.452  11.337  39.357  1.00  0.00     0.033 C 
BRANCH  14  15
HETATM   15  C4  UNL     1     -15.857  11.410  39.060  1.00  0.00    -0.030 C 
HETATM   16  C3  UNL     1     -16.868  11.848  39.683  1.00  0.00    -0.023 C 
BRANCH  16  17
HETATM   17  C2  UNL     1     -16.993  12.469  40.989  1.00  0.00     0.045 C 
BRANCH  17  18
HETATM   18  C1  UNL     1     -18.034  11.661  41.814  1.00  0.00     0.173 C 
BRANCH  18  19
HETATM   19  O1  UNL     1     -18.778  10.845  40.974  1.00  0.00    -0.400 OA
ATOM     20  H1  UNL     1     -18.509   9.940  41.075  1.00  0.00     0.209 HD
ENDBRANCH  18  19
ENDBRANCH  17  18
BRANCH  17  21
HETATM   21  C15 UNL     1     -17.553  13.885  40.792  1.00  0.00     0.125 C 
HETATM   22 CL1  UNL     1     -16.228  15.042  40.851  1.00  0.00    -0.130 Cl
ENDBRANCH  17  21
ENDBRANCH  16  17
ENDBRANCH  14  15
ENDBRANCH  13  14
ENDBRANCH   1  13
BRANCH   9  23
HETATM   23  O3  UNL     1      -8.764  14.498  40.174  1.00  0.00    -0.357 OA
ATOM     24  H3  UNL     1      -8.401  13.646  39.965  1.00  0.00     0.217 HD
ENDBRANCH   9  23
BRANCH   6  25
HETATM   25  O2  UNL     1     -10.913  16.034  44.170  1.00  0.00    -0.358 OA
ATOM     26  H2  UNL     1     -11.699  16.312  44.625  1.00  0.00     0.217 HD
ENDBRANCH   6  25
TORSDOF 9
ENDMDL
