MODEL 1
REMARK VINA RESULT: -9.209131198      0.000      0.000
REMARK  10 active torsions:
REMARK  status: ('A' for Active; 'I' for Inactive)
REMARK    1  A    between atoms: N1_5  and  C5_6 
REMARK    2  A    between atoms: C5_6  and  C6_7 
REMARK    3  A    between atoms: C6_7  and  N2_8 
REMARK       I    between atoms: N2_8  and  C7_9 
REMARK       I    between atoms: C7_9  and  N3_11 
REMARK    4  A    between atoms: N3_11  and  C8_13 
REMARK    5  A    between atoms: C11_16  and  N4_17 
REMARK    6  A    between atoms: N4_17  and  C12_18 
REMARK    7  A    between atoms: C12_18  and  O2_19 
REMARK    8  A    between atoms: C12_18  and  N5_21 
REMARK    9  A    between atoms: N5_21  and  C13_23 
REMARK   10  A    between atoms: C16_26  and  C17_27 
ROOT
HETATM    1  C8  UNL     1     -10.747  13.380  39.610  1.00  0.00     0.037 A 
HETATM    2  C9  UNL     1     -12.035  13.903  39.430  1.00  0.00     0.033 A 
HETATM    3  C10 UNL     1     -13.087  13.098  39.318  1.00  0.00     0.047 A 
HETATM    4  C11 UNL     1     -12.991  11.636  39.371  1.00  0.00     0.111 A 
HETATM    5  C20 UNL     1     -11.766  11.176  39.537  1.00  0.00     0.047 A 
HETATM    6  C21 UNL     1     -10.646  12.037  39.657  1.00  0.00     0.033 A 
ENDROOT
BRANCH   4   7
HETATM    7  N4  UNL     1     -14.246  11.159  39.236  1.00  0.00    -0.365 NA
BRANCH   7   8
HETATM    8  C12 UNL     1     -15.487  10.900  38.937  1.00  0.00     0.299 C 
BRANCH   8   9
HETATM    9  O2  UNL     1     -15.678  10.910  37.559  1.00  0.00    -0.321 OA
ATOM     10  H2  UNL     1     -15.787  10.028  37.225  1.00  0.00     0.222 HD
ENDBRANCH   8   9
BRANCH   8  11
HETATM   11  N5  UNL     1     -16.683  10.608  39.557  1.00  0.00    -0.310 N 
ATOM     12  H5  UNL     1     -17.190   9.730  39.454  1.00  0.00     0.170 HD
BRANCH  11  13
HETATM   13  C13 UNL     1     -17.125  11.732  40.382  1.00  0.00     0.036 A 
HETATM   14  C14 UNL     1     -16.562  12.948  40.318  1.00  0.00     0.030 A 
HETATM   15  C15 UNL     1     -16.815  13.929  41.326  1.00  0.00     0.018 A 
HETATM   16  C16 UNL     1     -17.632  13.608  42.356  1.00  0.00     0.048 A 
HETATM   17  C18 UNL     1     -18.220  12.337  42.404  1.00  0.00     0.018 A 
HETATM   18  C19 UNL     1     -17.985  11.404  41.442  1.00  0.00     0.030 A 
BRANCH  16  19
HETATM   19  C17 UNL     1     -17.885  14.568  43.481  1.00  0.00     0.417 C 
HETATM   20  F1  UNL     1     -17.309  14.104  44.677  1.00  0.00    -0.166 F 
HETATM   21  F2  UNL     1     -19.198  14.668  43.694  1.00  0.00    -0.166 F 
HETATM   22  F3  UNL     1     -17.279  15.748  43.187  1.00  0.00    -0.166 F 
ENDBRANCH  16  19
ENDBRANCH  11  13
ENDBRANCH   8  11
ENDBRANCH   7   8
ENDBRANCH   4   7
BRANCH   1  23
HETATM   23  N3  UNL     1      -9.721  14.321  39.803  1.00  0.00    -0.297 N 
HETATM   24  C7  UNL     1      -9.259  14.875  41.054  1.00  0.00     0.397 C 
HETATM   25  N2  UNL     1      -8.319  15.849  40.983  1.00  0.00    -0.367 NA
HETATM   26  O1  UNL     1      -9.788  14.412  42.094  1.00  0.00    -0.230 OA
ATOM     27  H3  UNL     1      -9.248  14.652  38.962  1.00  0.00     0.172 HD
BRANCH  25  28
HETATM   28  C6  UNL     1      -7.348  16.853  40.916  1.00  0.00     0.191 C 
BRANCH  28  29
HETATM   29  C5  UNL     1      -6.000  16.427  40.428  1.00  0.00     0.331 C 
BRANCH  29  30
HETATM   30  N1  UNL     1      -5.596  17.053  39.177  1.00  0.00     0.094 N 
HETATM   31  C4  UNL     1      -6.632  17.676  38.469  1.00  0.00     0.273 C 
HETATM   32  C3  UNL     1      -6.960  17.085  37.115  1.00  0.00     0.034 C 
HETATM   33  C2  UNL     1      -7.211  15.592  37.325  1.00  0.00    -0.015 C 
HETATM   34  C1  UNL     1      -7.713  15.022  36.018  1.00  0.00     0.010 C 
HETATM   35  C23 UNL     1      -5.919  14.997  37.819  1.00  0.00     0.034 C 
HETATM   36  C22 UNL     1      -4.930  16.049  38.365  1.00  0.00     0.273 C 
ENDBRANCH  29  30
ENDBRANCH  28  29
ENDBRANCH  25  28
ENDBRANCH   1  23
TORSDOF 10
ENDMDL
MODEL 2
REMARK VINA RESULT: -8.840337951      3.158      4.297
REMARK  10 active torsions:
REMARK  status: ('A' for Active; 'I' for Inactive)
REMARK    1  A    between atoms: N1_5  and  C5_6 
REMARK    2  A    between atoms: C5_6  and  C6_7 
REMARK    3  A    between atoms: C6_7  and  N2_8 
REMARK       I    between atoms: N2_8  and  C7_9 
REMARK       I    between atoms: C7_9  and  N3_11 
REMARK    4  A    between atoms: N3_11  and  C8_13 
REMARK    5  A    between atoms: C11_16  and  N4_17 
REMARK    6  A    between atoms: N4_17  and  C12_18 
REMARK    7  A    between atoms: C12_18  and  O2_19 
REMARK    8  A    between atoms: C12_18  and  N5_21 
REMARK    9  A    between atoms: N5_21  and  C13_23 
REMARK   10  A    between atoms: C16_26  and  C17_27 
ROOT
HETATM    1  C8  UNL     1     -10.749  14.957  40.915  1.00  0.00     0.037 A 
HETATM    2  C9  UNL     1     -11.766  15.839  40.524  1.00  0.00     0.033 A 
HETATM    3  C10 UNL     1     -12.754  16.151  41.356  1.00  0.00     0.047 A 
HETATM    4  C11 UNL     1     -12.862  15.613  42.716  1.00  0.00     0.111 A 
HETATM    5  C20 UNL     1     -11.893  14.784  43.052  1.00  0.00     0.047 A 
HETATM    6  C21 UNL     1     -10.839  14.454  42.162  1.00  0.00     0.033 A 
ENDROOT
BRANCH   4   7
HETATM    7  N4  UNL     1     -13.971  16.155  43.261  1.00  0.00    -0.365 NA
BRANCH   7   8
HETATM    8  C12 UNL     1     -15.137  16.663  43.541  1.00  0.00     0.299 C 
BRANCH   8   9
HETATM    9  O2  UNL     1     -15.007  17.784  44.356  1.00  0.00    -0.321 OA
ATOM     10  H2  UNL     1     -15.079  17.546  45.273  1.00  0.00     0.222 HD
ENDBRANCH   8   9
BRANCH   8  11
HETATM   11  N5  UNL     1     -16.472  16.448  43.280  1.00  0.00    -0.310 N 
ATOM     12  H5  UNL     1     -17.219  17.107  43.496  1.00  0.00     0.170 HD
BRANCH  11  13
HETATM   13  C13 UNL     1     -16.672  15.143  42.649  1.00  0.00     0.036 A 
HETATM   14  C14 UNL     1     -16.273  14.871  41.397  1.00  0.00     0.030 A 
HETATM   15  C15 UNL     1     -16.734  13.702  40.716  1.00  0.00     0.018 A 
HETATM   16  C16 UNL     1     -17.591  12.873  41.355  1.00  0.00     0.048 A 
HETATM   17  C18 UNL     1     -17.991  13.165  42.665  1.00  0.00     0.018 A 
HETATM   18  C19 UNL     1     -17.549  14.274  43.318  1.00  0.00     0.030 A 
BRANCH  16  19
HETATM   19  C17 UNL     1     -18.165  11.666  40.673  1.00  0.00     0.417 C 
HETATM   20  F1  UNL     1     -18.130  10.545  41.520  1.00  0.00    -0.166 F 
HETATM   21  F2  UNL     1     -17.427  11.367  39.602  1.00  0.00    -0.166 F 
HETATM   22  F3  UNL     1     -19.473  11.907  40.395  1.00  0.00    -0.166 F 
ENDBRANCH  16  19
ENDBRANCH  11  13
ENDBRANCH   8  11
ENDBRANCH   7   8
ENDBRANCH   4   7
BRANCH   1  23
HETATM   23  N3  UNL     1      -9.710  14.765  39.989  1.00  0.00    -0.297 N 
HETATM   24  C7  UNL     1      -9.496  13.623  39.131  1.00  0.00     0.397 C 
HETATM   25  N2  UNL     1      -8.362  13.618  38.389  1.00  0.00    -0.367 NA
HETATM   26  O1  UNL     1     -10.378  12.730  39.167  1.00  0.00    -0.230 OA
ATOM     27  H3  UNL     1      -9.027  15.519  39.914  1.00  0.00     0.172 HD
BRANCH  25  28
HETATM   28  C6  UNL     1      -7.194  13.607  37.621  1.00  0.00     0.191 C 
BRANCH  28  29
HETATM   29  C5  UNL     1      -7.248  14.376  36.339  1.00  0.00     0.331 C 
BRANCH  29  30
HETATM   30  N1  UNL     1      -7.032  15.807  36.495  1.00  0.00     0.094 N 
HETATM   31  C4  UNL     1      -7.353  16.316  37.761  1.00  0.00     0.273 C 
HETATM   32  C3  UNL     1      -8.489  17.314  37.807  1.00  0.00     0.034 C 
HETATM   33  C2  UNL     1      -9.689  16.663  37.118  1.00  0.00    -0.015 C 
HETATM   34  C1  UNL     1     -10.879  17.573  37.313  1.00  0.00     0.010 C 
HETATM   35  C23 UNL     1      -9.296  16.434  35.683  1.00  0.00     0.034 C 
HETATM   36  C22 UNL     1      -7.771  16.492  35.448  1.00  0.00     0.273 C 
ENDBRANCH  29  30
ENDBRANCH  28  29
ENDBRANCH  25  28
ENDBRANCH   1  23
TORSDOF 10
ENDMDL
MODEL 3
REMARK VINA RESULT: -8.814303117      4.634     10.646
REMARK  10 active torsions:
REMARK  status: ('A' for Active; 'I' for Inactive)
REMARK    1  A    between atoms: N1_5  and  C5_6 
REMARK    2  A    between atoms: C5_6  and  C6_7 
REMARK    3  A    between atoms: C6_7  and  N2_8 
REMARK       I    between atoms: N2_8  and  C7_9 
REMARK       I    between atoms: C7_9  and  N3_11 
REMARK    4  A    between atoms: N3_11  and  C8_13 
REMARK    5  A    between atoms: C11_16  and  N4_17 
REMARK    6  A    between atoms: N4_17  and  C12_18 
REMARK    7  A    between atoms: C12_18  and  O2_19 
REMARK    8  A    between atoms: C12_18  and  N5_21 
REMARK    9  A    between atoms: N5_21  and  C13_23 
REMARK   10  A    between atoms: C16_26  and  C17_27 
ROOT
HETATM    1  C8  UNL     1     -11.734  13.673  40.172  1.00  0.00     0.037 A 
HETATM    2  C9  UNL     1     -11.263  14.424  39.086  1.00  0.00     0.033 A 
HETATM    3  C10 UNL     1     -10.104  15.072  39.158  1.00  0.00     0.047 A 
HETATM    4  C11 UNL     1      -9.246  15.057  40.346  1.00  0.00     0.111 A 
HETATM    5  C20 UNL     1      -9.719  14.345  41.351  1.00  0.00     0.047 A 
HETATM    6  C21 UNL     1     -10.954  13.654  41.271  1.00  0.00     0.033 A 
ENDROOT
BRANCH   4   7
HETATM    7  N4  UNL     1      -8.162  15.805  40.051  1.00  0.00    -0.365 NA
BRANCH   7   8
HETATM    8  C12 UNL     1      -7.098  16.368  39.556  1.00  0.00     0.299 C 
BRANCH   8   9
HETATM    9  O2  UNL     1      -6.504  17.213  40.488  1.00  0.00    -0.321 OA
ATOM     10  H2  UNL     1      -5.666  17.531  40.173  1.00  0.00     0.222 HD
ENDBRANCH   8   9
BRANCH   8  11
HETATM   11  N5  UNL     1      -6.359  16.390  38.393  1.00  0.00    -0.310 N 
ATOM     12  H5  UNL     1      -5.717  17.136  38.128  1.00  0.00     0.170 HD
BRANCH  11  13
HETATM   13  C13 UNL     1      -6.623  15.197  37.590  1.00  0.00     0.036 A 
HETATM   14  C14 UNL     1      -5.987  14.031  37.787  1.00  0.00     0.030 A 
HETATM   15  C15 UNL     1      -6.052  12.985  36.816  1.00  0.00     0.018 A 
HETATM   16  C16 UNL     1      -6.765  13.191  35.685  1.00  0.00     0.048 A 
HETATM   17  C18 UNL     1      -7.431  14.409  35.498  1.00  0.00     0.018 A 
HETATM   18  C19 UNL     1      -7.375  15.404  36.423  1.00  0.00     0.030 A 
BRANCH  16  19
HETATM   19  C17 UNL     1      -6.817  12.159  34.596  1.00  0.00     0.417 C 
HETATM   20  F1  UNL     1      -6.192  12.629  33.428  1.00  0.00    -0.166 F 
HETATM   21  F2  UNL     1      -8.090  11.907  34.283  1.00  0.00    -0.166 F 
HETATM   22  F3  UNL     1      -6.119  11.066  35.002  1.00  0.00    -0.166 F 
ENDBRANCH  16  19
ENDBRANCH  11  13
ENDBRANCH   8  11
ENDBRANCH   7   8
ENDBRANCH   4   7
BRANCH   1  23
HETATM   23  N3  UNL     1     -12.925  12.960  39.958  1.00  0.00    -0.297 N 
HETATM   24  C7  UNL     1     -13.096  11.734  39.214  1.00  0.00     0.397 C 
HETATM   25  N2  UNL     1     -14.364  11.282  39.058  1.00  0.00    -0.367 NA
HETATM   26  O1  UNL     1     -12.048  11.207  38.765  1.00  0.00    -0.230 OA
ATOM     27  H3  UNL     1     -13.768  13.354  40.375  1.00  0.00     0.172 HD
BRANCH  25  28
HETATM   28  C6  UNL     1     -15.670  10.812  38.894  1.00  0.00     0.191 C 
BRANCH  28  29
HETATM   29  C5  UNL     1     -16.650  11.223  39.947  1.00  0.00     0.331 C 
BRANCH  29  30
HETATM   30  N1  UNL     1     -17.038  12.625  39.883  1.00  0.00     0.094 N 
HETATM   31  C4  UNL     1     -16.270  13.485  40.679  1.00  0.00     0.273 C 
HETATM   32  C3  UNL     1     -17.003  14.182  41.803  1.00  0.00     0.034 C 
HETATM   33  C2  UNL     1     -17.704  13.099  42.623  1.00  0.00    -0.015 C 
HETATM   34  C1  UNL     1     -18.292  13.759  43.849  1.00  0.00     0.010 C 
HETATM   35  C23 UNL     1     -18.710  12.445  41.713  1.00  0.00     0.034 C 
HETATM   36  C22 UNL     1     -18.450  12.717  40.216  1.00  0.00     0.273 C 
ENDBRANCH  29  30
ENDBRANCH  28  29
ENDBRANCH  25  28
ENDBRANCH   1  23
TORSDOF 10
ENDMDL
MODEL 4
REMARK VINA RESULT: -8.764360057      4.448     10.520
REMARK  10 active torsions:
REMARK  status: ('A' for Active; 'I' for Inactive)
REMARK    1  A    between atoms: N1_5  and  C5_6 
REMARK    2  A    between atoms: C5_6  and  C6_7 
REMARK    3  A    between atoms: C6_7  and  N2_8 
REMARK       I    between atoms: N2_8  and  C7_9 
REMARK       I    between atoms: C7_9  and  N3_11 
REMARK    4  A    between atoms: N3_11  and  C8_13 
REMARK    5  A    between atoms: C11_16  and  N4_17 
REMARK    6  A    between atoms: N4_17  and  C12_18 
REMARK    7  A    between atoms: C12_18  and  O2_19 
REMARK    8  A    between atoms: C12_18  and  N5_21 
REMARK    9  A    between atoms: N5_21  and  C13_23 
REMARK   10  A    between atoms: C16_26  and  C17_27 
ROOT
HETATM    1  C8  UNL     1     -11.684  14.254  39.972  1.00  0.00     0.037 A 
HETATM    2  C9  UNL     1     -11.462  15.170  38.934  1.00  0.00     0.033 A 
HETATM    3  C10 UNL     1     -10.387  15.953  38.936  1.00  0.00     0.047 A 
HETATM    4  C11 UNL     1      -9.373  15.926  39.994  1.00  0.00     0.111 A 
HETATM    5  C20 UNL     1      -9.614  15.057  40.957  1.00  0.00     0.047 A 
HETATM    6  C21 UNL     1     -10.760  14.223  40.952  1.00  0.00     0.033 A 
ENDROOT
BRANCH   4   7
HETATM    7  N4  UNL     1      -8.435  16.836  39.657  1.00  0.00    -0.365 NA
BRANCH   7   8
HETATM    8  C12 UNL     1      -7.582  17.636  39.084  1.00  0.00     0.299 C 
BRANCH   8   9
HETATM    9  O2  UNL     1      -7.338  18.752  39.878  1.00  0.00    -0.321 OA
ATOM     10  H2  UNL     1      -6.424  19.008  39.831  1.00  0.00     0.222 HD
ENDBRANCH   8   9
BRANCH   8  11
HETATM   11  N5  UNL     1      -6.831  17.728  37.933  1.00  0.00    -0.310 N 
ATOM     12  H5  UNL     1      -6.478  18.600  37.539  1.00  0.00     0.170 HD
BRANCH  11  13
HETATM   13  C13 UNL     1      -6.609  16.404  37.353  1.00  0.00     0.036 A 
HETATM   14  C14 UNL     1      -7.382  15.896  36.381  1.00  0.00     0.030 A 
HETATM   15  C15 UNL     1      -7.323  14.509  36.043  1.00  0.00     0.018 A 
HETATM   16  C16 UNL     1      -6.473  13.709  36.728  1.00  0.00     0.048 A 
HETATM   17  C18 UNL     1      -5.665  14.256  37.733  1.00  0.00     0.018 A 
HETATM   18  C19 UNL     1      -5.716  15.577  38.053  1.00  0.00     0.030 A 
BRANCH  16  19
HETATM   19  C17 UNL     1      -6.411  12.232  36.469  1.00  0.00     0.417 C 
HETATM   20  F1  UNL     1      -5.078  11.789  36.403  1.00  0.00    -0.166 F 
HETATM   21  F2  UNL     1      -6.969  11.964  35.287  1.00  0.00    -0.166 F 
HETATM   22  F3  UNL     1      -6.988  11.585  37.515  1.00  0.00    -0.166 F 
ENDBRANCH  16  19
ENDBRANCH  11  13
ENDBRANCH   8  11
ENDBRANCH   7   8
ENDBRANCH   4   7
BRANCH   1  23
HETATM   23  N3  UNL     1     -12.805  13.419  39.826  1.00  0.00    -0.297 N 
HETATM   24  C7  UNL     1     -12.874  12.154  39.133  1.00  0.00     0.397 C 
HETATM   25  N2  UNL     1     -14.095  11.572  39.039  1.00  0.00    -0.367 NA
HETATM   26  O1  UNL     1     -11.793  11.717  38.666  1.00  0.00    -0.230 OA
ATOM     27  H3  UNL     1     -13.669  13.743  40.259  1.00  0.00     0.172 HD
BRANCH  25  28
HETATM   28  C6  UNL     1     -15.352  10.968  38.939  1.00  0.00     0.191 C 
BRANCH  28  29
HETATM   29  C5  UNL     1     -16.334  11.324  40.009  1.00  0.00     0.331 C 
BRANCH  29  30
HETATM   30  N1  UNL     1     -16.832  12.690  39.929  1.00  0.00     0.094 N 
HETATM   31  C4  UNL     1     -16.171  13.606  40.758  1.00  0.00     0.273 C 
HETATM   32  C3  UNL     1     -17.005  14.237  41.850  1.00  0.00     0.034 C 
HETATM   33  C2  UNL     1     -17.650  13.098  42.639  1.00  0.00    -0.015 C 
HETATM   34  C1  UNL     1     -18.342  13.702  43.838  1.00  0.00     0.010 C 
HETATM   35  C23 UNL     1     -18.560  12.368  41.686  1.00  0.00     0.034 C 
HETATM   36  C22 UNL     1     -18.259  12.666  40.201  1.00  0.00     0.273 C 
ENDBRANCH  29  30
ENDBRANCH  28  29
ENDBRANCH  25  28
ENDBRANCH   1  23
TORSDOF 10
ENDMDL
MODEL 5
REMARK VINA RESULT: -8.643011659      5.038     10.482
REMARK  10 active torsions:
REMARK  status: ('A' for Active; 'I' for Inactive)
REMARK    1  A    between atoms: N1_5  and  C5_6 
REMARK    2  A    between atoms: C5_6  and  C6_7 
REMARK    3  A    between atoms: C6_7  and  N2_8 
REMARK       I    between atoms: N2_8  and  C7_9 
REMARK       I    between atoms: C7_9  and  N3_11 
REMARK    4  A    between atoms: N3_11  and  C8_13 
REMARK    5  A    between atoms: C11_16  and  N4_17 
REMARK    6  A    between atoms: N4_17  and  C12_18 
REMARK    7  A    between atoms: C12_18  and  O2_19 
REMARK    8  A    between atoms: C12_18  and  N5_21 
REMARK    9  A    between atoms: N5_21  and  C13_23 
REMARK   10  A    between atoms: C16_26  and  C17_27 
ROOT
HETATM    1  C8  UNL     1     -12.248  15.125  41.652  1.00  0.00     0.037 A 
HETATM    2  C9  UNL     1     -11.812  16.265  40.963  1.00  0.00     0.033 A 
HETATM    3  C10 UNL     1     -10.568  16.349  40.503  1.00  0.00     0.047 A 
HETATM    4  C11 UNL     1      -9.573  15.286  40.675  1.00  0.00     0.111 A 
HETATM    5  C20 UNL     1     -10.012  14.229  41.331  1.00  0.00     0.047 A 
HETATM    6  C21 UNL     1     -11.340  14.142  41.818  1.00  0.00     0.033 A 
ENDROOT
BRANCH   4   7
HETATM    7  N4  UNL     1      -8.441  15.713  40.076  1.00  0.00    -0.365 NA
BRANCH   7   8
HETATM    8  C12 UNL     1      -7.265  15.878  39.542  1.00  0.00     0.299 C 
BRANCH   8   9
HETATM    9  O2  UNL     1      -6.268  15.819  40.510  1.00  0.00    -0.321 OA
ATOM     10  H2  UNL     1      -6.475  15.170  41.173  1.00  0.00     0.222 HD
ENDBRANCH   8   9
BRANCH   8  11
HETATM   11  N5  UNL     1      -6.686  16.088  38.310  1.00  0.00    -0.310 N 
ATOM     12  H5  UNL     1      -6.172  16.929  38.047  1.00  0.00     0.170 HD
BRANCH  11  13
HETATM   13  C13 UNL     1      -6.911  14.942  37.430  1.00  0.00     0.036 A 
HETATM   14  C14 UNL     1      -6.345  13.743  37.638  1.00  0.00     0.030 A 
HETATM   15  C15 UNL     1      -6.348  12.742  36.618  1.00  0.00     0.018 A 
HETATM   16  C16 UNL     1      -6.929  13.026  35.429  1.00  0.00     0.048 A 
HETATM   17  C18 UNL     1      -7.523  14.278  35.230  1.00  0.00     0.018 A 
HETATM   18  C19 UNL     1      -7.527  15.231  36.202  1.00  0.00     0.030 A 
BRANCH  16  19
HETATM   19  C17 UNL     1      -6.907  12.044  34.295  1.00  0.00     0.417 C 
HETATM   20  F1  UNL     1      -6.334  12.616  33.146  1.00  0.00    -0.166 F 
HETATM   21  F2  UNL     1      -8.157  11.702  33.978  1.00  0.00    -0.166 F 
HETATM   22  F3  UNL     1      -6.117  10.995  34.645  1.00  0.00    -0.166 F 
ENDBRANCH  16  19
ENDBRANCH  11  13
ENDBRANCH   8  11
ENDBRANCH   7   8
ENDBRANCH   4   7
BRANCH   1  23
HETATM   23  N3  UNL     1     -13.605  15.106  42.017  1.00  0.00    -0.297 N 
HETATM   24  C7  UNL     1     -14.173  15.427  43.305  1.00  0.00     0.397 C 
HETATM   25  N2  UNL     1     -15.508  15.239  43.450  1.00  0.00    -0.367 NA
HETATM   26  O1  UNL     1     -13.370  15.835  44.180  1.00  0.00    -0.230 OA
ATOM     27  H3  UNL     1     -14.265  14.834  41.289  1.00  0.00     0.172 HD
BRANCH  25  28
HETATM   28  C6  UNL     1     -16.884  15.048  43.606  1.00  0.00     0.191 C 
BRANCH  28  29
HETATM   29  C5  UNL     1     -17.433  13.774  43.048  1.00  0.00     0.331 C 
BRANCH  29  30
HETATM   30  N1  UNL     1     -18.019  13.909  41.722  1.00  0.00     0.094 N 
HETATM   31  C4  UNL     1     -18.782  12.811  41.301  1.00  0.00     0.273 C 
HETATM   32  C3  UNL     1     -18.259  12.061  40.096  1.00  0.00     0.034 C 
HETATM   33  C2  UNL     1     -16.808  11.684  40.395  1.00  0.00    -0.015 C 
HETATM   34  C1  UNL     1     -16.328  10.784  39.280  1.00  0.00     0.010 C 
HETATM   35  C23 UNL     1     -16.043  12.973  40.541  1.00  0.00     0.034 C 
HETATM   36  C22 UNL     1     -16.949  14.199  40.783  1.00  0.00     0.273 C 
ENDBRANCH  29  30
ENDBRANCH  28  29
ENDBRANCH  25  28
ENDBRANCH   1  23
TORSDOF 10
ENDMDL
