MODEL 1
REMARK VINA RESULT: -9.240934811      0.000      0.000
REMARK  8 active torsions:
REMARK  status: ('A' for Active; 'I' for Inactive)
REMARK    1  A    between atoms: C2_2  and  C3_3 
REMARK    2  A    between atoms: C3_3  and  C4_4 
REMARK    3  A    between atoms: C7_7  and  C8_8 
REMARK    4  A    between atoms: C11_17  and  C12_18 
REMARK    5  A    between atoms: C13_20  and  N2_21 
REMARK       I    between atoms: N2_21  and  C14_23 
REMARK       I    between atoms: C14_23  and  N3_25 
REMARK    6  A    between atoms: N3_25  and  C15_27 
REMARK    7  A    between atoms: C15_27  and  C16_28 
REMARK    8  A    between atoms: C20_32  and  O2_33 
ROOT
HETATM    1  C3  UNL     1     -13.210  14.533  41.783  1.00  0.00     0.138 C 
HETATM    2  N1  UNL     1     -12.469  14.842  43.034  1.00  0.00    -0.057 N 
ATOM      3  H11 UNL     1     -12.704  14.208  43.798  1.00  0.00     0.278 HD
ATOM      4  H12 UNL     1     -12.783  15.708  43.473  1.00  0.00     0.278 HD
HETATM    5  C11 UNL     1     -11.094  14.850  42.741  1.00  0.00     0.238 C 
HETATM    6  C13 UNL     1     -10.908  15.199  41.311  1.00  0.00     0.129 C 
HETATM    7  C22 UNL     1     -12.320  15.134  40.757  1.00  0.00     0.009 C 
HETATM    8  C23 UNL     1     -12.683  16.547  40.360  1.00  0.00     0.020 C 
HETATM    9  C24 UNL     1     -12.198  14.371  39.457  1.00  0.00     0.020 C 
ENDROOT
BRANCH   6  10
HETATM   10  N2  UNL     1      -9.974  14.390  40.632  1.00  0.00    -0.336 N 
HETATM   11  C14 UNL     1      -9.149  14.909  39.605  1.00  0.00     0.316 C 
HETATM   12  O1  UNL     1      -9.279  16.133  39.319  1.00  0.00    -0.247 OA
HETATM   13  N3  UNL     1      -8.209  14.146  38.900  1.00  0.00    -0.339 N 
ATOM     14  H3  UNL     1      -8.095  13.157  39.123  1.00  0.00     0.164 HD
ATOM     15  H2  UNL     1      -9.890  13.405  40.887  1.00  0.00     0.164 HD
BRANCH  13  16
HETATM   16  C15 UNL     1      -7.401  14.738  37.867  1.00  0.00     0.163 C 
BRANCH  16  17
HETATM   17  C16 UNL     1      -7.017  13.777  36.807  1.00  0.00    -0.038 A 
HETATM   18  C17 UNL     1      -7.368  13.951  35.492  1.00  0.00     0.009 A 
HETATM   19  C18 UNL     1      -6.999  13.050  34.527  1.00  0.00     0.003 A 
HETATM   20  C19 UNL     1      -6.262  11.941  34.847  1.00  0.00     0.036 A 
HETATM   21  C20 UNL     1      -5.904  11.757  36.168  1.00  0.00     0.066 A 
HETATM   22  C21 UNL     1      -6.271  12.658  37.145  1.00  0.00     0.045 A 
BRANCH  21  23
HETATM   23  O2  UNL     1      -5.149  10.621  36.496  1.00  0.00    -0.361 OA
ATOM     24  H2  UNL     1      -5.553   9.768  36.385  1.00  0.00     0.217 HD
ENDBRANCH  21  23
ENDBRANCH  16  17
ENDBRANCH  13  16
ENDBRANCH   6  10
BRANCH   5  25
HETATM   25  C12 UNL     1     -10.303  15.805  43.645  1.00  0.00     0.257 C 
HETATM   26  F4  UNL     1     -11.135  16.496  44.484  1.00  0.00    -0.253 F 
ENDBRANCH   5  25
BRANCH   1  27
HETATM   27  C2  UNL     1     -13.210  13.032  41.845  1.00  0.00     0.035 C 
HETATM   28  C1  UNL     1     -13.989  12.223  40.928  1.00  0.00     0.007 C 
ENDBRANCH   1  27
BRANCH   1  29
HETATM   29  C4  UNL     1     -14.528  15.186  41.983  1.00  0.00     0.022 C 
HETATM   30  C5  UNL     1     -15.718  14.722  41.282  1.00  0.00     0.008 C 
HETATM   31  C6  UNL     1     -16.906  14.389  42.210  1.00  0.00     0.014 C 
HETATM   32  C7  UNL     1     -17.210  15.535  43.121  1.00  0.00     0.093 C 
HETATM   33  C9  UNL     1     -15.941  16.120  43.726  1.00  0.00     0.014 C 
HETATM   34  C10 UNL     1     -14.850  15.095  43.486  1.00  0.00     0.008 C 
BRANCH  32  35
HETATM   35  C8  UNL     1     -18.074  15.086  44.261  1.00  0.00     0.391 C 
HETATM   36  F1  UNL     1     -17.933  15.896  45.366  1.00  0.00    -0.171 F 
HETATM   37  F2  UNL     1     -17.903  13.747  44.558  1.00  0.00    -0.171 F 
HETATM   38  F3  UNL     1     -19.404  15.214  43.841  1.00  0.00    -0.171 F 
ENDBRANCH  32  35
ENDBRANCH   1  29
TORSDOF 8
ENDMDL
MODEL 2
REMARK VINA RESULT: -9.040450508      2.227      2.833
REMARK  8 active torsions:
REMARK  status: ('A' for Active; 'I' for Inactive)
REMARK    1  A    between atoms: C2_2  and  C3_3 
REMARK    2  A    between atoms: C3_3  and  C4_4 
REMARK    3  A    between atoms: C7_7  and  C8_8 
REMARK    4  A    between atoms: C11_17  and  C12_18 
REMARK    5  A    between atoms: C13_20  and  N2_21 
REMARK       I    between atoms: N2_21  and  C14_23 
REMARK       I    between atoms: C14_23  and  N3_25 
REMARK    6  A    between atoms: N3_25  and  C15_27 
REMARK    7  A    between atoms: C15_27  and  C16_28 
REMARK    8  A    between atoms: C20_32  and  O2_33 
ROOT
HETATM    1  C3  UNL     1     -13.226  13.482  40.755  1.00  0.00     0.138 C 
HETATM    2  N1  UNL     1     -13.286  13.800  42.206  1.00  0.00    -0.057 N 
ATOM      3  H11 UNL     1     -13.545  12.995  42.776  1.00  0.00     0.278 HD
ATOM      4  H12 UNL     1     -14.077  14.398  42.445  1.00  0.00     0.278 HD
HETATM    5  C11 UNL     1     -12.051  14.357  42.586  1.00  0.00     0.238 C 
HETATM    6  C13 UNL     1     -11.432  15.007  41.405  1.00  0.00     0.129 C 
HETATM    7  C22 UNL     1     -12.311  14.541  40.258  1.00  0.00     0.009 C 
HETATM    8  C23 UNL     1     -13.008  15.776  39.732  1.00  0.00     0.020 C 
HETATM    9  C24 UNL     1     -11.349  14.128  39.167  1.00  0.00     0.020 C 
ENDROOT
BRANCH   6  10
HETATM   10  N2  UNL     1     -10.059  14.729  41.242  1.00  0.00    -0.336 N 
HETATM   11  C14 UNL     1      -9.189  15.638  40.593  1.00  0.00     0.316 C 
HETATM   12  O1  UNL     1      -9.690  16.717  40.166  1.00  0.00    -0.247 OA
HETATM   13  N3  UNL     1      -7.820  15.407  40.405  1.00  0.00    -0.339 N 
ATOM     14  H3  UNL     1      -7.405  14.540  40.746  1.00  0.00     0.164 HD
ATOM     15  H2  UNL     1      -9.683  13.851  41.600  1.00  0.00     0.164 HD
BRANCH  13  16
HETATM   16  C15 UNL     1      -6.992  16.376  39.737  1.00  0.00     0.163 C 
BRANCH  16  17
HETATM   17  C16 UNL     1      -7.215  16.421  38.273  1.00  0.00    -0.038 A 
HETATM   18  C17 UNL     1      -7.415  17.597  37.594  1.00  0.00     0.009 A 
HETATM   19  C18 UNL     1      -7.616  17.614  36.238  1.00  0.00     0.003 A 
HETATM   20  C19 UNL     1      -7.625  16.452  35.513  1.00  0.00     0.036 A 
HETATM   21  C20 UNL     1      -7.425  15.264  36.189  1.00  0.00     0.066 A 
HETATM   22  C21 UNL     1      -7.221  15.237  37.552  1.00  0.00     0.045 A 
BRANCH  21  23
HETATM   23  O2  UNL     1      -7.433  14.073  35.447  1.00  0.00    -0.361 OA
ATOM     24  H2  UNL     1      -7.675  13.270  35.893  1.00  0.00     0.217 HD
ENDBRANCH  21  23
ENDBRANCH  16  17
ENDBRANCH  13  16
ENDBRANCH   6  10
BRANCH   5  25
HETATM   25  C12 UNL     1     -12.184  15.349  43.750  1.00  0.00     0.257 C 
HETATM   26  F4  UNL     1     -13.497  15.565  44.068  1.00  0.00    -0.253 F 
ENDBRANCH   5  25
BRANCH   1  27
HETATM   27  C2  UNL     1     -12.645  12.098  40.816  1.00  0.00     0.035 C 
HETATM   28  C1  UNL     1     -12.456  11.288  39.629  1.00  0.00     0.007 C 
ENDBRANCH   1  27
BRANCH   1  29
HETATM   29  C4  UNL     1     -14.641  13.568  40.316  1.00  0.00     0.022 C 
HETATM   30  C5  UNL     1     -15.283  12.470  39.606  1.00  0.00     0.008 C 
HETATM   31  C6  UNL     1     -16.596  11.981  40.253  1.00  0.00     0.014 C 
HETATM   32  C7  UNL     1     -17.537  13.122  40.478  1.00  0.00     0.093 C 
HETATM   33  C9  UNL     1     -16.822  14.327  41.074  1.00  0.00     0.014 C 
HETATM   34  C10 UNL     1     -15.487  13.817  41.579  1.00  0.00     0.008 C 
BRANCH  32  35
HETATM   35  C8  UNL     1     -18.617  12.731  41.441  1.00  0.00     0.391 C 
HETATM   36  F1  UNL     1     -19.052  13.800  42.193  1.00  0.00    -0.171 F 
HETATM   37  F2  UNL     1     -18.264  11.644  42.219  1.00  0.00    -0.171 F 
HETATM   38  F3  UNL     1     -19.713  12.309  40.678  1.00  0.00    -0.171 F 
ENDBRANCH  32  35
ENDBRANCH   1  29
TORSDOF 8
ENDMDL
MODEL 3
REMARK VINA RESULT: -8.931799404      4.766      7.704
REMARK  8 active torsions:
REMARK  status: ('A' for Active; 'I' for Inactive)
REMARK    1  A    between atoms: C2_2  and  C3_3 
REMARK    2  A    between atoms: C3_3  and  C4_4 
REMARK    3  A    between atoms: C7_7  and  C8_8 
REMARK    4  A    between atoms: C11_17  and  C12_18 
REMARK    5  A    between atoms: C13_20  and  N2_21 
REMARK       I    between atoms: N2_21  and  C14_23 
REMARK       I    between atoms: C14_23  and  N3_25 
REMARK    6  A    between atoms: N3_25  and  C15_27 
REMARK    7  A    between atoms: C15_27  and  C16_28 
REMARK    8  A    between atoms: C20_32  and  O2_33 
ROOT
HETATM    1  C3  UNL     1     -13.822  15.301  41.698  1.00  0.00     0.138 C 
HETATM    2  N1  UNL     1     -13.235  15.690  40.389  1.00  0.00    -0.057 N 
ATOM      3  H11 UNL     1     -13.940  15.983  39.713  1.00  0.00     0.278 HD
ATOM      4  H12 UNL     1     -12.869  14.892  39.870  1.00  0.00     0.278 HD
HETATM    5  C11 UNL     1     -12.262  16.679  40.619  1.00  0.00     0.238 C 
HETATM    6  C13 UNL     1     -11.722  16.514  41.991  1.00  0.00     0.129 C 
HETATM    7  C22 UNL     1     -12.666  15.499  42.610  1.00  0.00     0.009 C 
HETATM    8  C23 UNL     1     -11.843  14.255  42.861  1.00  0.00     0.020 C 
HETATM    9  C24 UNL     1     -12.990  16.048  43.981  1.00  0.00     0.020 C 
ENDROOT
BRANCH   6  10
HETATM   10  N2  UNL     1     -11.598  17.718  42.716  1.00  0.00    -0.336 N 
HETATM   11  C14 UNL     1     -10.348  18.164  43.207  1.00  0.00     0.316 C 
HETATM   12  O1  UNL     1      -9.339  17.441  42.969  1.00  0.00    -0.247 OA
HETATM   13  N3  UNL     1     -10.174  19.350  43.933  1.00  0.00    -0.339 N 
ATOM     14  H3  UNL     1     -10.981  19.941  44.131  1.00  0.00     0.164 HD
ATOM     15  H2  UNL     1     -12.431  18.281  42.890  1.00  0.00     0.164 HD
BRANCH  13  16
HETATM   16  C15 UNL     1      -8.872  19.745  44.403  1.00  0.00     0.163 C 
BRANCH  16  17
HETATM   17  C16 UNL     1      -8.714  19.597  45.869  1.00  0.00    -0.038 A 
HETATM   18  C17 UNL     1      -9.733  19.859  46.750  1.00  0.00     0.009 A 
HETATM   19  C18 UNL     1      -9.565  19.713  48.103  1.00  0.00     0.003 A 
HETATM   20  C19 UNL     1      -8.367  19.298  48.621  1.00  0.00     0.036 A 
HETATM   21  C20 UNL     1      -7.335  19.033  47.742  1.00  0.00     0.066 A 
HETATM   22  C21 UNL     1      -7.496  19.177  46.380  1.00  0.00     0.045 A 
BRANCH  21  23
HETATM   23  O2  UNL     1      -6.108  18.608  48.272  1.00  0.00    -0.361 OA
ATOM     24  H2  UNL     1      -5.355  19.180  48.171  1.00  0.00     0.217 HD
ENDBRANCH  21  23
ENDBRANCH  16  17
ENDBRANCH  13  16
ENDBRANCH   6  10
BRANCH   5  25
HETATM   25  C12 UNL     1     -11.133  16.651  39.579  1.00  0.00     0.257 C 
HETATM   26  F4  UNL     1     -11.353  15.683  38.637  1.00  0.00    -0.253 F 
ENDBRANCH   5  25
BRANCH   1  27
HETATM   27  C2  UNL     1     -14.918  16.322  41.806  1.00  0.00     0.035 C 
HETATM   28  C1  UNL     1     -15.639  16.804  40.645  1.00  0.00     0.007 C 
ENDBRANCH   1  27
BRANCH   1  29
HETATM   29  C4  UNL     1     -14.265  13.901  41.484  1.00  0.00     0.022 C 
HETATM   30  C5  UNL     1     -15.650  13.503  41.696  1.00  0.00     0.008 C 
HETATM   31  C6  UNL     1     -16.296  12.799  40.484  1.00  0.00     0.014 C 
HETATM   32  C7  UNL     1     -15.455  11.653  40.021  1.00  0.00     0.093 C 
HETATM   33  C9  UNL     1     -13.981  12.031  39.957  1.00  0.00     0.014 C 
HETATM   34  C10 UNL     1     -13.933  13.545  40.023  1.00  0.00     0.008 C 
BRANCH  32  35
HETATM   35  C8  UNL     1     -15.859  11.226  38.642  1.00  0.00     0.391 C 
HETATM   36  F1  UNL     1     -16.186   9.889  38.590  1.00  0.00    -0.171 F 
HETATM   37  F2  UNL     1     -14.929  11.583  37.684  1.00  0.00    -0.171 F 
HETATM   38  F3  UNL     1     -17.025  11.933  38.320  1.00  0.00    -0.171 F 
ENDBRANCH  32  35
ENDBRANCH   1  29
TORSDOF 8
ENDMDL
MODEL 4
REMARK VINA RESULT: -8.877952020      1.592      1.992
REMARK  8 active torsions:
REMARK  status: ('A' for Active; 'I' for Inactive)
REMARK    1  A    between atoms: C2_2  and  C3_3 
REMARK    2  A    between atoms: C3_3  and  C4_4 
REMARK    3  A    between atoms: C7_7  and  C8_8 
REMARK    4  A    between atoms: C11_17  and  C12_18 
REMARK    5  A    between atoms: C13_20  and  N2_21 
REMARK       I    between atoms: N2_21  and  C14_23 
REMARK       I    between atoms: C14_23  and  N3_25 
REMARK    6  A    between atoms: N3_25  and  C15_27 
REMARK    7  A    between atoms: C15_27  and  C16_28 
REMARK    8  A    between atoms: C20_32  and  O2_33 
ROOT
HETATM    1  C3  UNL     1     -13.279  14.923  42.167  1.00  0.00     0.138 C 
HETATM    2  N1  UNL     1     -12.836  15.382  43.510  1.00  0.00    -0.057 N 
ATOM      3  H11 UNL     1     -13.071  14.720  44.249  1.00  0.00     0.278 HD
ATOM      4  H12 UNL     1     -13.379  16.173  43.854  1.00  0.00     0.278 HD
HETATM    5  C11 UNL     1     -11.458  15.657  43.448  1.00  0.00     0.238 C 
HETATM    6  C13 UNL     1     -11.101  16.024  42.056  1.00  0.00     0.129 C 
HETATM    7  C22 UNL     1     -12.359  15.679  41.278  1.00  0.00     0.009 C 
HETATM    8  C23 UNL     1     -12.913  16.990  40.769  1.00  0.00     0.020 C 
HETATM    9  C24 UNL     1     -11.873  14.944  40.049  1.00  0.00     0.020 C 
ENDROOT
BRANCH   6  10
HETATM   10  N2  UNL     1      -9.927  15.408  41.575  1.00  0.00    -0.336 N 
HETATM   11  C14 UNL     1      -8.983  16.117  40.794  1.00  0.00     0.316 C 
HETATM   12  O1  UNL     1      -9.230  17.331  40.544  1.00  0.00    -0.247 OA
HETATM   13  N3  UNL     1      -7.804  15.550  40.292  1.00  0.00    -0.339 N 
ATOM     14  H3  UNL     1      -7.594  14.571  40.487  1.00  0.00     0.164 HD
ATOM     15  H2  UNL     1      -9.754  14.427  41.795  1.00  0.00     0.164 HD
BRANCH  13  16
HETATM   16  C15 UNL     1      -6.886  16.329  39.504  1.00  0.00     0.163 C 
BRANCH  16  17
HETATM   17  C16 UNL     1      -7.177  16.278  38.052  1.00  0.00    -0.038 A 
HETATM   18  C17 UNL     1      -7.360  17.410  37.297  1.00  0.00     0.009 A 
HETATM   19  C18 UNL     1      -7.626  17.339  35.955  1.00  0.00     0.003 A 
HETATM   20  C19 UNL     1      -7.718  16.130  35.319  1.00  0.00     0.036 A 
HETATM   21  C20 UNL     1      -7.536  14.985  36.071  1.00  0.00     0.066 A 
HETATM   22  C21 UNL     1      -7.268  15.047  37.422  1.00  0.00     0.045 A 
BRANCH  21  23
HETATM   23  O2  UNL     1      -7.629  13.746  35.420  1.00  0.00    -0.361 OA
ATOM     24  H2  UNL     1      -7.054  13.584  34.681  1.00  0.00     0.217 HD
ENDBRANCH  21  23
ENDBRANCH  16  17
ENDBRANCH  13  16
ENDBRANCH   6  10
BRANCH   5  25
HETATM   25  C12 UNL     1     -11.031  16.757  44.431  1.00  0.00     0.257 C 
HETATM   26  F4  UNL     1     -12.114  17.303  45.063  1.00  0.00    -0.253 F 
ENDBRANCH   5  25
BRANCH   1  27
HETATM   27  C2  UNL     1     -13.002  13.452  42.290  1.00  0.00     0.035 C 
HETATM   28  C1  UNL     1     -13.588  12.480  41.388  1.00  0.00     0.007 C 
ENDBRANCH   1  27
BRANCH   1  29
HETATM   29  C4  UNL     1     -14.712  15.308  42.118  1.00  0.00     0.022 C 
HETATM   30  C5  UNL     1     -15.678  14.536  41.348  1.00  0.00     0.008 C 
HETATM   31  C6  UNL     1     -16.901  14.064  42.162  1.00  0.00     0.014 C 
HETATM   32  C7  UNL     1     -17.547  15.212  42.870  1.00  0.00     0.093 C 
HETATM   33  C9  UNL     1     -16.514  16.108  43.540  1.00  0.00     0.014 C 
HETATM   34  C10 UNL     1     -15.224  15.312  43.571  1.00  0.00     0.008 C 
BRANCH  32  35
HETATM   35  C8  UNL     1     -18.465  14.717  43.947  1.00  0.00     0.391 C 
HETATM   36  F1  UNL     1     -18.403  15.501  45.078  1.00  0.00    -0.171 F 
HETATM   37  F2  UNL     1     -18.283  13.375  44.220  1.00  0.00    -0.171 F 
HETATM   38  F3  UNL     1     -19.771  14.831  43.455  1.00  0.00    -0.171 F 
ENDBRANCH  32  35
ENDBRANCH   1  29
TORSDOF 8
ENDMDL
MODEL 5
REMARK VINA RESULT: -8.813764859      4.046      8.908
REMARK  8 active torsions:
REMARK  status: ('A' for Active; 'I' for Inactive)
REMARK    1  A    between atoms: C2_2  and  C3_3 
REMARK    2  A    between atoms: C3_3  and  C4_4 
REMARK    3  A    between atoms: C7_7  and  C8_8 
REMARK    4  A    between atoms: C11_17  and  C12_18 
REMARK    5  A    between atoms: C13_20  and  N2_21 
REMARK       I    between atoms: N2_21  and  C14_23 
REMARK       I    between atoms: C14_23  and  N3_25 
REMARK    6  A    between atoms: N3_25  and  C15_27 
REMARK    7  A    between atoms: C15_27  and  C16_28 
REMARK    8  A    between atoms: C20_32  and  O2_33 
ROOT
HETATM    1  C3  UNL     1     -10.788  15.958  40.708  1.00  0.00     0.138 C 
HETATM    2  N1  UNL     1     -11.194  17.376  40.901  1.00  0.00    -0.057 N 
ATOM      3  H11 UNL     1     -11.704  17.751  40.101  1.00  0.00     0.278 HD
ATOM      4  H12 UNL     1     -10.402  18.018  40.873  1.00  0.00     0.278 HD
HETATM    5  C11 UNL     1     -11.923  17.466  42.100  1.00  0.00     0.238 C 
HETATM    6  C13 UNL     1     -11.491  16.377  43.010  1.00  0.00     0.129 C 
HETATM    7  C22 UNL     1     -10.632  15.503  42.114  1.00  0.00     0.009 C 
HETATM    8  C23 UNL     1      -9.223  15.601  42.653  1.00  0.00     0.020 C 
HETATM    9  C24 UNL     1     -11.075  14.086  42.403  1.00  0.00     0.020 C 
ENDROOT
BRANCH   6  10
HETATM   10  N2  UNL     1     -12.550  15.699  43.649  1.00  0.00    -0.336 N 
HETATM   11  C14 UNL     1     -13.878  15.767  43.162  1.00  0.00     0.316 C 
HETATM   12  O1  UNL     1     -14.081  16.459  42.124  1.00  0.00    -0.247 OA
HETATM   13  N3  UNL     1     -14.962  15.114  43.763  1.00  0.00    -0.339 N 
ATOM     14  H3  UNL     1     -14.809  14.553  44.601  1.00  0.00     0.164 HD
ATOM     15  H2  UNL     1     -12.354  15.147  44.484  1.00  0.00     0.164 HD
BRANCH  13  16
HETATM   16  C15 UNL     1     -16.288  15.225  43.214  1.00  0.00     0.163 C 
BRANCH  16  17
HETATM   17  C16 UNL     1     -16.611  14.144  42.253  1.00  0.00    -0.038 A 
HETATM   18  C17 UNL     1     -15.665  13.576  41.438  1.00  0.00     0.009 A 
HETATM   19  C18 UNL     1     -15.987  12.575  40.558  1.00  0.00     0.003 A 
HETATM   20  C19 UNL     1     -17.270  12.106  40.465  1.00  0.00     0.036 A 
HETATM   21  C20 UNL     1     -18.230  12.673  41.282  1.00  0.00     0.066 A 
HETATM   22  C21 UNL     1     -17.915  13.680  42.170  1.00  0.00     0.045 A 
BRANCH  21  23
HETATM   23  O2  UNL     1     -19.544  12.193  41.187  1.00  0.00    -0.361 OA
ATOM     24  H2  UNL     1     -20.004  11.985  41.992  1.00  0.00     0.217 HD
ENDBRANCH  21  23
ENDBRANCH  16  17
ENDBRANCH  13  16
ENDBRANCH   6  10
BRANCH   5  25
HETATM   25  C12 UNL     1     -11.779  18.836  42.777  1.00  0.00     0.257 C 
HETATM   26  F4  UNL     1     -11.108  18.732  43.965  1.00  0.00    -0.253 F 
ENDBRANCH   5  25
BRANCH   1  27
HETATM   27  C2  UNL     1     -11.998  15.437  39.986  1.00  0.00     0.035 C 
HETATM   28  C1  UNL     1     -12.067  14.082  39.478  1.00  0.00     0.007 C 
ENDBRANCH   1  27
BRANCH   1  29
HETATM   29  C4  UNL     1      -9.546  16.053  39.901  1.00  0.00     0.022 C 
HETATM   30  C5  UNL     1      -8.888  14.863  39.381  1.00  0.00     0.008 C 
HETATM   31  C6  UNL     1      -8.648  14.890  37.856  1.00  0.00     0.014 C 
HETATM   32  C7  UNL     1      -7.934  16.141  37.451  1.00  0.00     0.093 C 
HETATM   33  C9  UNL     1      -8.529  17.368  38.128  1.00  0.00     0.014 C 
HETATM   34  C10 UNL     1      -9.873  16.934  38.680  1.00  0.00     0.008 C 
BRANCH  32  35
HETATM   35  C8  UNL     1      -8.049  16.356  35.971  1.00  0.00     0.391 C 
HETATM   36  F1  UNL     1      -7.332  17.455  35.552  1.00  0.00    -0.171 F 
HETATM   37  F2  UNL     1      -9.363  16.383  35.541  1.00  0.00    -0.171 F 
HETATM   38  F3  UNL     1      -7.470  15.242  35.350  1.00  0.00    -0.171 F 
ENDBRANCH  32  35
ENDBRANCH   1  29
TORSDOF 8
ENDMDL
