MODEL 1
REMARK VINA RESULT: -8.799270001      0.000      0.000
REMARK  8 active torsions:
REMARK  status: ('A' for Active; 'I' for Inactive)
REMARK    1  A    between atoms: C2_2  and  C5_5 
REMARK    2  A    between atoms: C5_5  and  C6_6 
REMARK    3  A    between atoms: C6_6  and  C9_9 
REMARK    4  A    between atoms: C11_11  and  N1_12 
REMARK       I    between atoms: N1_12  and  C12_14 
REMARK       I    between atoms: C12_14  and  N3_18 
REMARK    5  A    between atoms: N3_18  and  C13_20 
REMARK    6  A    between atoms: C19_27  and  C20_28 
REMARK    7  A    between atoms: C20_28  and  O1_29 
REMARK    8  A    between atoms: C22_32  and  C23_33 
ROOT
HETATM    1  N1  UNL     1     -11.189  12.345  40.213  1.00  0.00    -0.192 N 
ATOM      2  H1  UNL     1     -10.858  11.388  40.091  1.00  0.00     0.184 HD
HETATM    3  C12 UNL     1     -10.247  13.435  40.383  1.00  0.00     0.672 C 
HETATM    4  N2  UNL     1      -9.780  13.517  41.547  1.00  0.00    -0.235 N 
ATOM      5  H21 UNL     1      -9.117  14.284  41.667  1.00  0.00     0.174 HD
ATOM      6  H22 UNL     1      -9.999  12.897  42.327  1.00  0.00     0.174 HD
HETATM    7  N3  UNL     1      -9.944  14.290  39.310  1.00  0.00    -0.220 N 
ATOM      8  H3  UNL     1     -10.748  14.554  38.739  1.00  0.00     0.178 HD
ENDROOT
BRANCH   1   9
HETATM    9  C11 UNL     1     -12.571  12.630  40.218  1.00  0.00     0.050 A 
HETATM   10  C10 UNL     1     -13.118  13.557  41.073  1.00  0.00     0.038 A 
HETATM   11  C9  UNL     1     -14.456  13.833  41.071  1.00  0.00    -0.047 A 
HETATM   12  C24 UNL     1     -15.244  13.141  40.172  1.00  0.00     0.024 A 
HETATM   13  C22 UNL     1     -14.768  12.202  39.294  1.00  0.00     0.050 A 
HETATM   14  C21 UNL     1     -13.408  11.953  39.326  1.00  0.00     0.046 A 
BRANCH  11  15
HETATM   15  C6  UNL     1     -15.142  14.828  41.968  1.00  0.00    -0.020 C 
HETATM   16  C7  UNL     1     -16.620  14.347  41.900  1.00  0.00     0.020 C 
HETATM   17  C8  UNL     1     -14.781  14.744  43.392  1.00  0.00     0.020 C 
BRANCH  15  18
HETATM   18  C5  UNL     1     -15.198  16.170  41.341  1.00  0.00     0.022 C 
BRANCH  18  19
HETATM   19  C2  UNL     1     -14.097  17.123  41.444  1.00  0.00    -0.050 C 
HETATM   20  C1  UNL     1     -13.737  17.519  39.994  1.00  0.00     0.014 C 
HETATM   21  C3  UNL     1     -12.849  16.808  42.147  1.00  0.00     0.014 C 
HETATM   22  C4  UNL     1     -14.627  18.479  42.025  1.00  0.00     0.014 C 
ENDBRANCH  18  19
ENDBRANCH  15  18
ENDBRANCH  11  15
BRANCH  13  23
HETATM   23  C23 UNL     1     -15.645  11.441  38.348  1.00  0.00     0.417 C 
HETATM   24  F1  UNL     1     -16.951  11.741  38.681  1.00  0.00    -0.166 F 
HETATM   25  F2  UNL     1     -15.366  11.694  37.044  1.00  0.00    -0.166 F 
HETATM   26  F3  UNL     1     -15.501  10.066  38.611  1.00  0.00    -0.166 F 
ENDBRANCH  13  23
ENDBRANCH   1   9
BRANCH   7  27
HETATM   27  C13 UNL     1      -8.719  14.845  38.886  1.00  0.00     0.137 C 
HETATM   28  C14 UNL     1      -8.166  14.493  37.560  1.00  0.00     0.063 C 
HETATM   29  C15 UNL     1      -7.415  15.761  37.173  1.00  0.00     0.226 C 
HETATM   30  C16 UNL     1      -7.610  16.022  35.696  1.00  0.00     0.037 C 
HETATM   31  N4  UNL     1      -8.026  16.852  37.881  1.00  0.00     0.102 N 
HETATM   32  C17 UNL     1      -8.938  16.742  35.703  1.00  0.00     0.032 C 
HETATM   33  C18 UNL     1      -8.936  17.509  36.988  1.00  0.00     0.273 C 
HETATM   34  C19 UNL     1      -8.647  16.345  39.071  1.00  0.00     0.270 C 
BRANCH  34  35
HETATM   35  C20 UNL     1      -7.754  16.725  40.253  1.00  0.00     0.202 C 
BRANCH  35  36
HETATM   36  O1  UNL     1      -7.698  15.679  41.175  1.00  0.00    -0.399 OA
ATOM     37  H1  UNL     1      -7.270  14.923  40.791  1.00  0.00     0.209 HD
ENDBRANCH  35  36
ENDBRANCH  34  35
ENDBRANCH   7  27
TORSDOF 8
ENDMDL
MODEL 2
REMARK VINA RESULT: -8.767134228      1.465      1.978
REMARK  8 active torsions:
REMARK  status: ('A' for Active; 'I' for Inactive)
REMARK    1  A    between atoms: C2_2  and  C5_5 
REMARK    2  A    between atoms: C5_5  and  C6_6 
REMARK    3  A    between atoms: C6_6  and  C9_9 
REMARK    4  A    between atoms: C11_11  and  N1_12 
REMARK       I    between atoms: N1_12  and  C12_14 
REMARK       I    between atoms: C12_14  and  N3_18 
REMARK    5  A    between atoms: N3_18  and  C13_20 
REMARK    6  A    between atoms: C19_27  and  C20_28 
REMARK    7  A    between atoms: C20_28  and  O1_29 
REMARK    8  A    between atoms: C22_32  and  C23_33 
ROOT
HETATM    1  N1  UNL     1     -10.520  12.841  40.166  1.00  0.00    -0.192 N 
ATOM      2  H1  UNL     1     -10.109  11.932  40.379  1.00  0.00     0.184 HD
HETATM    3  C12 UNL     1      -9.685  13.943  39.725  1.00  0.00     0.672 C 
HETATM    4  N2  UNL     1      -9.071  14.512  40.663  1.00  0.00    -0.235 N 
ATOM      5  H21 UNL     1      -8.484  15.287  40.353  1.00  0.00     0.174 HD
ATOM      6  H22 UNL     1      -9.112  14.257  41.649  1.00  0.00     0.174 HD
HETATM    7  N3  UNL     1      -9.629  14.295  38.367  1.00  0.00    -0.220 N 
ATOM      8  H3  UNL     1     -10.528  14.270  37.885  1.00  0.00     0.178 HD
ENDROOT
BRANCH   1   9
HETATM    9  C11 UNL     1     -11.911  13.047  40.295  1.00  0.00     0.050 A 
HETATM   10  C10 UNL     1     -12.433  13.904  41.233  1.00  0.00     0.038 A 
HETATM   11  C9  UNL     1     -13.780  14.105  41.351  1.00  0.00    -0.047 A 
HETATM   12  C24 UNL     1     -14.601  13.408  40.486  1.00  0.00     0.024 A 
HETATM   13  C22 UNL     1     -14.150  12.535  39.530  1.00  0.00     0.050 A 
HETATM   14  C21 UNL     1     -12.781  12.363  39.442  1.00  0.00     0.046 A 
BRANCH  11  15
HETATM   15  C6  UNL     1     -14.441  15.021  42.346  1.00  0.00    -0.020 C 
HETATM   16  C7  UNL     1     -15.861  14.393  42.455  1.00  0.00     0.020 C 
HETATM   17  C8  UNL     1     -13.895  14.965  43.710  1.00  0.00     0.020 C 
BRANCH  15  18
HETATM   18  C5  UNL     1     -14.709  16.354  41.755  1.00  0.00     0.022 C 
BRANCH  18  19
HETATM   19  C2  UNL     1     -13.648  17.330  41.527  1.00  0.00    -0.050 C 
HETATM   20  C1  UNL     1     -13.518  17.469  39.994  1.00  0.00     0.014 C 
HETATM   21  C3  UNL     1     -12.301  17.169  42.081  1.00  0.00     0.014 C 
HETATM   22  C4  UNL     1     -14.151  18.758  41.937  1.00  0.00     0.014 C 
ENDBRANCH  18  19
ENDBRANCH  15  18
ENDBRANCH  11  15
BRANCH  13  23
HETATM   23  C23 UNL     1     -15.061  11.767  38.622  1.00  0.00     0.417 C 
HETATM   24  F1  UNL     1     -16.354  12.070  39.000  1.00  0.00    -0.166 F 
HETATM   25  F2  UNL     1     -14.829  12.010  37.307  1.00  0.00    -0.166 F 
HETATM   26  F3  UNL     1     -14.907  10.394  38.891  1.00  0.00    -0.166 F 
ENDBRANCH  13  23
ENDBRANCH   1   9
BRANCH   7  27
HETATM   27  C13 UNL     1      -8.541  14.678  37.554  1.00  0.00     0.137 C 
HETATM   28  C14 UNL     1      -8.406  16.083  37.113  1.00  0.00     0.063 C 
HETATM   29  C15 UNL     1      -6.895  16.250  37.012  1.00  0.00     0.226 C 
HETATM   30  C16 UNL     1      -6.512  17.623  37.518  1.00  0.00     0.037 C 
HETATM   31  N4  UNL     1      -6.300  15.291  37.902  1.00  0.00     0.102 N 
HETATM   32  C17 UNL     1      -6.445  17.375  39.006  1.00  0.00     0.032 C 
HETATM   33  C18 UNL     1      -5.965  15.962  39.124  1.00  0.00     0.273 C 
HETATM   34  C19 UNL     1      -7.207  14.191  38.074  1.00  0.00     0.270 C 
BRANCH  34  35
HETATM   35  C20 UNL     1      -6.673  13.020  37.248  1.00  0.00     0.202 C 
BRANCH  35  36
HETATM   36  O1  UNL     1      -7.393  11.860  37.528  1.00  0.00    -0.399 OA
ATOM     37  H1  UNL     1      -8.069  11.724  36.874  1.00  0.00     0.209 HD
ENDBRANCH  35  36
ENDBRANCH  34  35
ENDBRANCH   7  27
TORSDOF 8
ENDMDL
MODEL 3
REMARK VINA RESULT: -8.662744908      1.245      1.701
REMARK  8 active torsions:
REMARK  status: ('A' for Active; 'I' for Inactive)
REMARK    1  A    between atoms: C2_2  and  C5_5 
REMARK    2  A    between atoms: C5_5  and  C6_6 
REMARK    3  A    between atoms: C6_6  and  C9_9 
REMARK    4  A    between atoms: C11_11  and  N1_12 
REMARK       I    between atoms: N1_12  and  C12_14 
REMARK       I    between atoms: C12_14  and  N3_18 
REMARK    5  A    between atoms: N3_18  and  C13_20 
REMARK    6  A    between atoms: C19_27  and  C20_28 
REMARK    7  A    between atoms: C20_28  and  O1_29 
REMARK    8  A    between atoms: C22_32  and  C23_33 
ROOT
HETATM    1  N1  UNL     1     -12.606  12.682  39.032  1.00  0.00    -0.192 N 
ATOM      2  H1  UNL     1     -12.735  12.451  38.048  1.00  0.00     0.184 HD
HETATM    3  C12 UNL     1     -11.277  12.709  39.615  1.00  0.00     0.672 C 
HETATM    4  N2  UNL     1     -10.828  11.568  39.892  1.00  0.00    -0.235 N 
ATOM      5  H21 UNL     1      -9.894  11.587  40.301  1.00  0.00     0.174 HD
ATOM      6  H22 UNL     1     -11.304  10.681  39.730  1.00  0.00     0.174 HD
HETATM    7  N3  UNL     1     -10.621  13.932  39.837  1.00  0.00    -0.220 N 
ATOM      8  H3  UNL     1     -11.221  14.675  40.197  1.00  0.00     0.178 HD
ENDROOT
BRANCH   1   9
HETATM    9  C11 UNL     1     -13.717  12.982  39.850  1.00  0.00     0.050 A 
HETATM   10  C10 UNL     1     -13.661  13.952  40.823  1.00  0.00     0.038 A 
HETATM   11  C9  UNL     1     -14.741  14.243  41.608  1.00  0.00    -0.047 A 
HETATM   12  C24 UNL     1     -15.898  13.521  41.387  1.00  0.00     0.024 A 
HETATM   13  C22 UNL     1     -16.023  12.540  40.438  1.00  0.00     0.050 A 
HETATM   14  C21 UNL     1     -14.909  12.277  39.663  1.00  0.00     0.046 A 
BRANCH  11  15
HETATM   15  C6  UNL     1     -14.773  15.284  42.695  1.00  0.00    -0.020 C 
HETATM   16  C7  UNL     1     -16.172  15.034  43.329  1.00  0.00     0.020 C 
HETATM   17  C8  UNL     1     -13.816  15.075  43.793  1.00  0.00     0.020 C 
BRANCH  15  18
HETATM   18  C5  UNL     1     -14.900  16.648  42.130  1.00  0.00     0.022 C 
BRANCH  18  19
HETATM   19  C2  UNL     1     -13.742  17.417  41.686  1.00  0.00    -0.050 C 
HETATM   20  C1  UNL     1     -13.857  17.514  40.149  1.00  0.00     0.014 C 
HETATM   21  C3  UNL     1     -12.367  17.025  42.011  1.00  0.00     0.014 C 
HETATM   22  C4  UNL     1     -13.910  18.916  42.116  1.00  0.00     0.014 C 
ENDBRANCH  18  19
ENDBRANCH  15  18
ENDBRANCH  11  15
BRANCH  13  23
HETATM   23  C23 UNL     1     -17.279  11.748  40.234  1.00  0.00     0.417 C 
HETATM   24  F1  UNL     1     -17.004  10.799  39.269  1.00  0.00    -0.166 F 
HETATM   25  F2  UNL     1     -17.756  11.204  41.382  1.00  0.00    -0.166 F 
HETATM   26  F3  UNL     1     -18.250  12.590  39.662  1.00  0.00    -0.166 F 
ENDBRANCH  13  23
ENDBRANCH   1   9
BRANCH   7  27
HETATM   27  C13 UNL     1      -9.275  14.307  39.647  1.00  0.00     0.137 C 
HETATM   28  C14 UNL     1      -8.552  13.878  38.431  1.00  0.00     0.063 C 
HETATM   29  C15 UNL     1      -7.575  15.025  38.210  1.00  0.00     0.226 C 
HETATM   30  C16 UNL     1      -7.468  15.309  36.728  1.00  0.00     0.037 C 
HETATM   31  N4  UNL     1      -8.142  16.193  38.825  1.00  0.00     0.102 N 
HETATM   32  C17 UNL     1      -8.663  16.210  36.520  1.00  0.00     0.032 C 
HETATM   33  C18 UNL     1      -8.780  16.972  37.803  1.00  0.00     0.273 C 
HETATM   34  C19 UNL     1      -9.028  15.782  39.877  1.00  0.00     0.270 C 
BRANCH  34  35
HETATM   35  C20 UNL     1      -8.313  16.033  41.205  1.00  0.00     0.202 C 
BRANCH  35  36
HETATM   36  O1  UNL     1      -8.545  14.979  42.088  1.00  0.00    -0.399 OA
ATOM     37  H1  UNL     1      -8.671  15.308  42.970  1.00  0.00     0.209 HD
ENDBRANCH  35  36
ENDBRANCH  34  35
ENDBRANCH   7  27
TORSDOF 8
ENDMDL
MODEL 4
REMARK VINA RESULT: -8.549118857      0.977      2.336
REMARK  8 active torsions:
REMARK  status: ('A' for Active; 'I' for Inactive)
REMARK    1  A    between atoms: C2_2  and  C5_5 
REMARK    2  A    between atoms: C5_5  and  C6_6 
REMARK    3  A    between atoms: C6_6  and  C9_9 
REMARK    4  A    between atoms: C11_11  and  N1_12 
REMARK       I    between atoms: N1_12  and  C12_14 
REMARK       I    between atoms: C12_14  and  N3_18 
REMARK    5  A    between atoms: N3_18  and  C13_20 
REMARK    6  A    between atoms: C19_27  and  C20_28 
REMARK    7  A    between atoms: C20_28  and  O1_29 
REMARK    8  A    between atoms: C22_32  and  C23_33 
ROOT
HETATM    1  N1  UNL     1     -11.248  12.253  40.109  1.00  0.00    -0.192 N 
ATOM      2  H1  UNL     1     -10.893  11.305  39.982  1.00  0.00     0.184 HD
HETATM    3  C12 UNL     1     -10.335  13.358  40.333  1.00  0.00     0.672 C 
HETATM    4  N2  UNL     1      -9.911  13.427  41.514  1.00  0.00    -0.235 N 
ATOM      5  H21 UNL     1      -9.269  14.204  41.671  1.00  0.00     0.174 HD
ATOM      6  H22 UNL     1     -10.145  12.788  42.274  1.00  0.00     0.174 HD
HETATM    7  N3  UNL     1     -10.012  14.239  39.286  1.00  0.00    -0.220 N 
ATOM      8  H3  UNL     1     -10.800  14.497  38.692  1.00  0.00     0.178 HD
ENDROOT
BRANCH   1   9
HETATM    9  C11 UNL     1     -12.635  12.510  40.070  1.00  0.00     0.050 A 
HETATM   10  C10 UNL     1     -13.233  13.399  40.932  1.00  0.00     0.038 A 
HETATM   11  C9  UNL     1     -14.576  13.649  40.887  1.00  0.00    -0.047 A 
HETATM   12  C24 UNL     1     -15.315  12.970  39.938  1.00  0.00     0.024 A 
HETATM   13  C22 UNL     1     -14.786  12.069  39.050  1.00  0.00     0.050 A 
HETATM   14  C21 UNL     1     -13.424  11.846  39.127  1.00  0.00     0.046 A 
BRANCH  11  15
HETATM   15  C6  UNL     1     -15.315  14.602  41.788  1.00  0.00    -0.020 C 
HETATM   16  C7  UNL     1     -14.190  15.044  42.768  1.00  0.00     0.020 C 
HETATM   17  C8  UNL     1     -15.771  15.846  41.148  1.00  0.00     0.020 C 
BRANCH  15  18
HETATM   18  C5  UNL     1     -16.264  13.882  42.670  1.00  0.00     0.022 C 
BRANCH  18  19
HETATM   19  C2  UNL     1     -17.651  13.641  42.286  1.00  0.00    -0.050 C 
HETATM   20  C1  UNL     1     -17.916  12.143  42.558  1.00  0.00     0.014 C 
HETATM   21  C3  UNL     1     -18.162  13.952  40.947  1.00  0.00     0.014 C 
HETATM   22  C4  UNL     1     -18.610  14.328  43.319  1.00  0.00     0.014 C 
ENDBRANCH  18  19
ENDBRANCH  15  18
ENDBRANCH  11  15
BRANCH  13  23
HETATM   23  C23 UNL     1     -15.611  11.321  38.048  1.00  0.00     0.417 C 
HETATM   24  F1  UNL     1     -16.925  11.695  38.250  1.00  0.00    -0.166 F 
HETATM   25  F2  UNL     1     -15.201  11.518  36.770  1.00  0.00    -0.166 F 
HETATM   26  F3  UNL     1     -15.563   9.950  38.362  1.00  0.00    -0.166 F 
ENDBRANCH  13  23
ENDBRANCH   1   9
BRANCH   7  27
HETATM   27  C13 UNL     1      -8.784  14.826  38.917  1.00  0.00     0.137 C 
HETATM   28  C14 UNL     1      -8.154  14.473  37.626  1.00  0.00     0.063 C 
HETATM   29  C15 UNL     1      -7.422  15.757  37.258  1.00  0.00     0.226 C 
HETATM   30  C16 UNL     1      -7.550  15.992  35.769  1.00  0.00     0.037 C 
HETATM   31  N4  UNL     1      -8.102  16.839  37.917  1.00  0.00     0.102 N 
HETATM   32  C17 UNL     1      -8.898  16.670  35.698  1.00  0.00     0.032 C 
HETATM   33  C18 UNL     1      -8.984  17.455  36.969  1.00  0.00     0.273 C 
HETATM   34  C19 UNL     1      -8.767  16.329  39.082  1.00  0.00     0.270 C 
BRANCH  34  35
HETATM   35  C20 UNL     1      -7.948  16.753  40.302  1.00  0.00     0.202 C 
BRANCH  35  36
HETATM   36  O1  UNL     1      -7.727  15.661  41.141  1.00  0.00    -0.399 OA
ATOM     37  H1  UNL     1      -6.830  15.360  41.062  1.00  0.00     0.209 HD
ENDBRANCH  35  36
ENDBRANCH  34  35
ENDBRANCH   7  27
TORSDOF 8
ENDMDL
MODEL 5
REMARK VINA RESULT: -8.530934119      0.854      1.352
REMARK  8 active torsions:
REMARK  status: ('A' for Active; 'I' for Inactive)
REMARK    1  A    between atoms: C2_2  and  C5_5 
REMARK    2  A    between atoms: C5_5  and  C6_6 
REMARK    3  A    between atoms: C6_6  and  C9_9 
REMARK    4  A    between atoms: C11_11  and  N1_12 
REMARK       I    between atoms: N1_12  and  C12_14 
REMARK       I    between atoms: C12_14  and  N3_18 
REMARK    5  A    between atoms: N3_18  and  C13_20 
REMARK    6  A    between atoms: C19_27  and  C20_28 
REMARK    7  A    between atoms: C20_28  and  O1_29 
REMARK    8  A    between atoms: C22_32  and  C23_33 
ROOT
HETATM    1  N1  UNL     1     -11.402  12.561  40.303  1.00  0.00    -0.192 N 
ATOM      2  H1  UNL     1     -11.160  11.587  40.118  1.00  0.00     0.184 HD
HETATM    3  C12 UNL     1     -10.362  13.557  40.480  1.00  0.00     0.672 C 
HETATM    4  N2  UNL     1      -9.838  13.537  41.622  1.00  0.00    -0.235 N 
ATOM      5  H21 UNL     1      -9.106  14.238  41.747  1.00  0.00     0.174 HD
ATOM      6  H22 UNL     1     -10.075  12.897  42.380  1.00  0.00     0.174 HD
HETATM    7  N3  UNL     1     -10.035  14.439  39.436  1.00  0.00    -0.220 N 
ATOM      8  H3  UNL     1     -10.837  14.799  38.919  1.00  0.00     0.178 HD
ENDROOT
BRANCH   1   9
HETATM    9  C11 UNL     1     -12.753  12.960  40.390  1.00  0.00     0.050 A 
HETATM   10  C10 UNL     1     -13.124  14.132  41.006  1.00  0.00     0.038 A 
HETATM   11  C9  UNL     1     -14.433  14.518  41.083  1.00  0.00    -0.047 A 
HETATM   12  C24 UNL     1     -15.374  13.679  40.517  1.00  0.00     0.024 A 
HETATM   13  C22 UNL     1     -15.076  12.497  39.892  1.00  0.00     0.050 A 
HETATM   14  C21 UNL     1     -13.740  12.144  39.833  1.00  0.00     0.046 A 
BRANCH  11  15
HETATM   15  C6  UNL     1     -14.933  15.779  41.735  1.00  0.00    -0.020 C 
HETATM   16  C7  UNL     1     -15.868  16.354  40.632  1.00  0.00     0.020 C 
HETATM   17  C8  UNL     1     -15.803  15.579  42.904  1.00  0.00     0.020 C 
BRANCH  15  18
HETATM   18  C5  UNL     1     -13.860  16.798  41.829  1.00  0.00     0.022 C 
BRANCH  18  19
HETATM   19  C2  UNL     1     -13.221  17.139  43.096  1.00  0.00    -0.050 C 
HETATM   20  C1  UNL     1     -11.907  17.865  42.729  1.00  0.00     0.014 C 
HETATM   21  C3  UNL     1     -12.909  16.132  44.114  1.00  0.00     0.014 C 
HETATM   22  C4  UNL     1     -14.032  18.279  43.804  1.00  0.00     0.014 C 
ENDBRANCH  18  19
ENDBRANCH  15  18
ENDBRANCH  11  15
BRANCH  13  23
HETATM   23  C23 UNL     1     -16.116  11.588  39.311  1.00  0.00     0.417 C 
HETATM   24  F1  UNL     1     -15.907  11.559  37.947  1.00  0.00    -0.166 F 
HETATM   25  F2  UNL     1     -16.111  10.351  39.868  1.00  0.00    -0.166 F 
HETATM   26  F3  UNL     1     -17.378  12.187  39.481  1.00  0.00    -0.166 F 
ENDBRANCH  13  23
ENDBRANCH   1   9
BRANCH   7  27
HETATM   27  C13 UNL     1      -8.786  14.910  38.980  1.00  0.00     0.137 C 
HETATM   28  C14 UNL     1      -8.269  14.481  37.663  1.00  0.00     0.063 C 
HETATM   29  C15 UNL     1      -7.455  15.691  37.222  1.00  0.00     0.226 C 
HETATM   30  C16 UNL     1      -7.653  15.910  35.738  1.00  0.00     0.037 C 
HETATM   31  N4  UNL     1      -7.997  16.838  37.895  1.00  0.00     0.102 N 
HETATM   32  C17 UNL     1      -8.940  16.701  35.733  1.00  0.00     0.032 C 
HETATM   33  C18 UNL     1      -8.880  17.513  36.988  1.00  0.00     0.273 C 
HETATM   34  C19 UNL     1      -8.630  16.409  39.110  1.00  0.00     0.270 C 
BRANCH  34  35
HETATM   35  C20 UNL     1      -7.704  16.782  40.268  1.00  0.00     0.202 C 
BRANCH  35  36
HETATM   36  O1  UNL     1      -7.687  15.765  41.222  1.00  0.00    -0.399 OA
ATOM     37  H1  UNL     1      -7.333  16.087  42.042  1.00  0.00     0.209 HD
ENDBRANCH  35  36
ENDBRANCH  34  35
ENDBRANCH   7  27
TORSDOF 8
ENDMDL
