MODEL 1
REMARK VINA RESULT: -6.861184277      0.000      0.000
REMARK  7 active torsions:
REMARK  status: ('A' for Active; 'I' for Inactive)
REMARK    1  A    between atoms: C3_3  and  C4_4 
REMARK    2  A    between atoms: C5_5  and  C6_6 
REMARK    3  A    between atoms: C7_7  and  C8_8 
REMARK       I    between atoms: C8_8  and  N1_10 
REMARK    4  A    between atoms: C12_14  and  C13_15 
REMARK       I    between atoms: C13_15  and  N2_17 
REMARK    5  A    between atoms: N2_17  and  C14_19 
REMARK    6  A    between atoms: C14_19  and  C15_20 
REMARK    7  A    between atoms: C14_19  and  C18_23 
ROOT
HETATM    1  C8  UNL     1      -5.222   5.617  -4.669  1.00  0.00     0.245 C 
HETATM    2  O1  UNL     1      -4.918   6.701  -5.277  1.00  0.00    -0.268 OA
HETATM    3  N1  UNL     1      -5.722   4.546  -5.444  1.00  0.00    -0.330 N 
HETATM    4  C9  UNL     1      -6.196   3.201  -5.283  1.00  0.00     0.095 A 
HETATM    5  C10 UNL     1      -5.636   2.097  -6.082  1.00  0.00     0.035 A 
HETATM    6  C11 UNL     1      -6.417   3.119  -6.797  1.00  0.00     0.043 A 
HETATM    7  C12 UNL     1      -5.924   4.516  -6.916  1.00  0.00     0.186 A 
ENDROOT
BRANCH   7   8
HETATM    8  C13 UNL     1      -4.647   4.693  -7.637  1.00  0.00     0.241 C 
HETATM    9  O2  UNL     1      -3.771   3.783  -7.623  1.00  0.00    -0.271 OA
HETATM   10  N2  UNL     1      -4.389   5.881  -8.349  1.00  0.00    -0.348 N 
ATOM     11  H2  UNL     1      -5.109   6.603  -8.347  1.00  0.00     0.163 HD
BRANCH  10  12
HETATM   12  C14 UNL     1      -3.158   6.147  -9.090  1.00  0.00     0.171 C 
BRANCH  12  13
HETATM   13  C15 UNL     1      -3.342   5.904 -10.552  1.00  0.00     0.007 C 
HETATM   14  C16 UNL     1      -4.746   6.075 -11.031  1.00  0.00     0.012 C 
HETATM   15  C17 UNL     1      -2.855   4.551 -11.007  1.00  0.00     0.012 C 
ENDBRANCH  12  13
BRANCH  12  16
HETATM   16  C18 UNL     1      -2.747   7.544  -8.723  1.00  0.00     0.320 C 
HETATM   17  F1  UNL     1      -3.657   8.191  -7.916  1.00  0.00    -0.191 F 
HETATM   18  F2  UNL     1      -1.607   7.382  -7.905  1.00  0.00    -0.191 F 
HETATM   19 BR1  UNL     1      -2.166   8.618 -10.202  1.00  0.00    -0.009 Br
ENDBRANCH  12  16
ENDBRANCH  10  12
ENDBRANCH   7   8
BRANCH   1  20
HETATM   20  C7  UNL     1      -5.050   5.518  -3.236  1.00  0.00     0.083 C 
HETATM   21  C6  UNL     1      -3.936   5.620  -2.566  1.00  0.00     0.070 C 
BRANCH  21  22
HETATM   22  C5  UNL     1      -4.009   5.484  -1.110  1.00  0.00    -0.074 C 
HETATM   23  C4  UNL     1      -4.058   5.371   0.088  1.00  0.00    -0.074 C 
BRANCH  23  24
HETATM   24  C3  UNL     1      -4.099   5.218   1.525  1.00  0.00     0.060 C 
HETATM   25  C2  UNL     1      -4.840   6.004   2.266  1.00  0.00    -0.022 C 
HETATM   26  C1  UNL     1      -5.647   7.063   1.638  1.00  0.00     0.036 C 
ENDBRANCH  23  24
ENDBRANCH  21  22
ENDBRANCH   1  20
TORSDOF 7
ENDMDL
MODEL 2
REMARK VINA RESULT: -6.778780406      2.898      4.299
REMARK  7 active torsions:
REMARK  status: ('A' for Active; 'I' for Inactive)
REMARK    1  A    between atoms: C3_3  and  C4_4 
REMARK    2  A    between atoms: C5_5  and  C6_6 
REMARK    3  A    between atoms: C7_7  and  C8_8 
REMARK       I    between atoms: C8_8  and  N1_10 
REMARK    4  A    between atoms: C12_14  and  C13_15 
REMARK       I    between atoms: C13_15  and  N2_17 
REMARK    5  A    between atoms: N2_17  and  C14_19 
REMARK    6  A    between atoms: C14_19  and  C15_20 
REMARK    7  A    between atoms: C14_19  and  C18_23 
ROOT
HETATM    1  C8  UNL     1      -3.214   4.290  -4.061  1.00  0.00     0.245 C 
HETATM    2  O1  UNL     1      -2.883   3.055  -4.131  1.00  0.00    -0.268 OA
HETATM    3  N1  UNL     1      -2.941   5.108  -5.180  1.00  0.00    -0.330 N 
HETATM    4  C9  UNL     1      -3.082   6.471  -5.605  1.00  0.00     0.095 A 
HETATM    5  C10 UNL     1      -3.740   6.806  -6.880  1.00  0.00     0.035 A 
HETATM    6  C11 UNL     1      -2.453   6.097  -6.951  1.00  0.00     0.043 A 
HETATM    7  C12 UNL     1      -2.322   4.697  -6.467  1.00  0.00     0.186 A 
ENDROOT
BRANCH   7   8
HETATM    8  C13 UNL     1      -3.148   3.691  -7.164  1.00  0.00     0.241 C 
HETATM    9  O2  UNL     1      -2.672   3.025  -8.126  1.00  0.00    -0.271 OA
HETATM   10  N2  UNL     1      -4.479   3.460  -6.764  1.00  0.00    -0.348 N 
ATOM     11  H2  UNL     1      -4.844   4.008  -5.985  1.00  0.00     0.163 HD
BRANCH  10  12
HETATM   12  C14 UNL     1      -5.371   2.487  -7.391  1.00  0.00     0.171 C 
BRANCH  12  13
HETATM   13  C15 UNL     1      -5.802   1.439  -6.418  1.00  0.00     0.007 C 
HETATM   14  C16 UNL     1      -6.131   1.964  -5.058  1.00  0.00     0.012 C 
HETATM   15  C17 UNL     1      -4.809   0.317  -6.258  1.00  0.00     0.012 C 
ENDBRANCH  12  13
BRANCH  12  16
HETATM   16  C18 UNL     1      -6.486   3.284  -8.006  1.00  0.00     0.320 C 
HETATM   17  F1  UNL     1      -7.705   2.643  -7.971  1.00  0.00    -0.191 F 
HETATM   18  F2  UNL     1      -6.651   4.395  -7.149  1.00  0.00    -0.191 F 
HETATM   19 BR1  UNL     1      -6.080   4.024  -9.728  1.00  0.00    -0.009 Br
ENDBRANCH  12  16
ENDBRANCH  10  12
ENDBRANCH   7   8
BRANCH   1  20
HETATM   20  C7  UNL     1      -3.843   4.805  -2.864  1.00  0.00     0.083 C 
HETATM   21  C6  UNL     1      -3.335   5.642  -2.004  1.00  0.00     0.070 C 
BRANCH  21  22
HETATM   22  C5  UNL     1      -4.166   6.023  -0.860  1.00  0.00    -0.074 C 
HETATM   23  C4  UNL     1      -4.858   6.333   0.075  1.00  0.00    -0.074 C 
BRANCH  23  24
HETATM   24  C3  UNL     1      -5.706   6.715   1.183  1.00  0.00     0.060 C 
HETATM   25  C2  UNL     1      -5.514   6.220   2.380  1.00  0.00    -0.022 C 
HETATM   26  C1  UNL     1      -4.422   5.261   2.616  1.00  0.00     0.036 C 
ENDBRANCH  23  24
ENDBRANCH  21  22
ENDBRANCH   1  20
TORSDOF 7
ENDMDL
MODEL 3
REMARK VINA RESULT: -6.765066242      2.392      3.831
REMARK  7 active torsions:
REMARK  status: ('A' for Active; 'I' for Inactive)
REMARK    1  A    between atoms: C3_3  and  C4_4 
REMARK    2  A    between atoms: C5_5  and  C6_6 
REMARK    3  A    between atoms: C7_7  and  C8_8 
REMARK       I    between atoms: C8_8  and  N1_10 
REMARK    4  A    between atoms: C12_14  and  C13_15 
REMARK       I    between atoms: C13_15  and  N2_17 
REMARK    5  A    between atoms: N2_17  and  C14_19 
REMARK    6  A    between atoms: C14_19  and  C15_20 
REMARK    7  A    between atoms: C14_19  and  C18_23 
ROOT
HETATM    1  C8  UNL     1      -2.897   4.962  -4.660  1.00  0.00     0.245 C 
HETATM    2  O1  UNL     1      -2.400   3.809  -4.906  1.00  0.00    -0.268 OA
HETATM    3  N1  UNL     1      -2.696   5.984  -5.616  1.00  0.00    -0.330 N 
HETATM    4  C9  UNL     1      -3.005   7.369  -5.825  1.00  0.00     0.095 A 
HETATM    5  C10 UNL     1      -3.654   7.824  -7.068  1.00  0.00     0.035 A 
HETATM    6  C11 UNL     1      -2.281   7.306  -7.174  1.00  0.00     0.043 A 
HETATM    7  C12 UNL     1      -1.979   5.875  -6.913  1.00  0.00     0.186 A 
ENDROOT
BRANCH   7   8
HETATM    8  C13 UNL     1      -2.634   4.901  -7.809  1.00  0.00     0.241 C 
HETATM    9  O2  UNL     1      -2.027   4.452  -8.822  1.00  0.00    -0.271 OA
HETATM   10  N2  UNL     1      -3.946   4.460  -7.547  1.00  0.00    -0.348 N 
ATOM     11  H2  UNL     1      -4.419   4.835  -6.725  1.00  0.00     0.163 HD
BRANCH  10  12
HETATM   12  C14 UNL     1      -4.675   3.501  -8.375  1.00  0.00     0.171 C 
BRANCH  12  13
HETATM   13  C15 UNL     1      -5.330   2.451  -7.539  1.00  0.00     0.007 C 
HETATM   14  C16 UNL     1      -5.669   2.893  -6.153  1.00  0.00     0.012 C 
HETATM   15  C17 UNL     1      -4.537   1.173  -7.441  1.00  0.00     0.012 C 
ENDBRANCH  12  13
BRANCH  12  16
HETATM   16  C18 UNL     1      -5.609   4.314  -9.225  1.00  0.00     0.320 C 
HETATM   17  F1  UNL     1      -6.930   3.945  -9.100  1.00  0.00    -0.191 F 
HETATM   18  F2  UNL     1      -5.555   5.615  -8.679  1.00  0.00    -0.191 F 
HETATM   19 BR1  UNL     1      -5.057   4.505 -11.052  1.00  0.00    -0.009 Br
ENDBRANCH  12  16
ENDBRANCH  10  12
ENDBRANCH   7   8
BRANCH   1  20
HETATM   20  C7  UNL     1      -3.635   5.186  -3.436  1.00  0.00     0.083 C 
HETATM   21  C6  UNL     1      -3.237   5.845  -2.384  1.00  0.00     0.070 C 
BRANCH  21  22
HETATM   22  C5  UNL     1      -4.164   5.941  -1.255  1.00  0.00    -0.074 C 
HETATM   23  C4  UNL     1      -4.935   6.016  -0.332  1.00  0.00    -0.074 C 
BRANCH  23  24
HETATM   24  C3  UNL     1      -5.878   6.113   0.760  1.00  0.00     0.060 C 
HETATM   25  C2  UNL     1      -5.507   5.878   1.993  1.00  0.00    -0.022 C 
HETATM   26  C1  UNL     1      -4.112   5.509   2.287  1.00  0.00     0.036 C 
ENDBRANCH  23  24
ENDBRANCH  21  22
ENDBRANCH   1  20
TORSDOF 7
ENDMDL
MODEL 4
REMARK VINA RESULT: -6.739398907      2.924      4.246
REMARK  7 active torsions:
REMARK  status: ('A' for Active; 'I' for Inactive)
REMARK    1  A    between atoms: C3_3  and  C4_4 
REMARK    2  A    between atoms: C5_5  and  C6_6 
REMARK    3  A    between atoms: C7_7  and  C8_8 
REMARK       I    between atoms: C8_8  and  N1_10 
REMARK    4  A    between atoms: C12_14  and  C13_15 
REMARK       I    between atoms: C13_15  and  N2_17 
REMARK    5  A    between atoms: N2_17  and  C14_19 
REMARK    6  A    between atoms: C14_19  and  C15_20 
REMARK    7  A    between atoms: C14_19  and  C18_23 
ROOT
HETATM    1  C8  UNL     1      -3.228   4.325  -4.101  1.00  0.00     0.245 C 
HETATM    2  O1  UNL     1      -2.945   3.080  -4.186  1.00  0.00    -0.268 OA
HETATM    3  N1  UNL     1      -2.924   5.146  -5.210  1.00  0.00    -0.330 N 
HETATM    4  C9  UNL     1      -3.013   6.518  -5.618  1.00  0.00     0.095 A 
HETATM    5  C10 UNL     1      -3.656   6.893  -6.890  1.00  0.00     0.035 A 
HETATM    6  C11 UNL     1      -2.397   6.137  -6.968  1.00  0.00     0.043 A 
HETATM    7  C12 UNL     1      -2.320   4.728  -6.502  1.00  0.00     0.186 A 
ENDROOT
BRANCH   7   8
HETATM    8  C13 UNL     1      -3.183   3.762  -7.211  1.00  0.00     0.241 C 
HETATM    9  O2  UNL     1      -2.704   3.011  -8.107  1.00  0.00    -0.271 OA
HETATM   10  N2  UNL     1      -4.553   3.665  -6.898  1.00  0.00    -0.348 N 
ATOM     11  H2  UNL     1      -4.919   4.281  -6.172  1.00  0.00     0.163 HD
BRANCH  10  12
HETATM   12  C14 UNL     1      -5.484   2.743  -7.544  1.00  0.00     0.171 C 
BRANCH  12  13
HETATM   13  C15 UNL     1      -6.376   2.083  -6.545  1.00  0.00     0.007 C 
HETATM   14  C16 UNL     1      -6.489   2.815  -5.247  1.00  0.00     0.012 C 
HETATM   15  C17 UNL     1      -5.998   0.656  -6.244  1.00  0.00     0.012 C 
ENDBRANCH  12  13
BRANCH  12  16
HETATM   16  C18 UNL     1      -6.190   3.541  -8.602  1.00  0.00     0.320 C 
HETATM   17  F1  UNL     1      -5.906   4.888  -8.557  1.00  0.00    -0.191 F 
HETATM   18  F2  UNL     1      -5.626   3.104  -9.821  1.00  0.00    -0.191 F 
HETATM   19 BR1  UNL     1      -8.068   3.179  -8.751  1.00  0.00    -0.009 Br
ENDBRANCH  12  16
ENDBRANCH  10  12
ENDBRANCH   7   8
BRANCH   1  20
HETATM   20  C7  UNL     1      -3.839   4.848  -2.898  1.00  0.00     0.083 C 
HETATM   21  C6  UNL     1      -3.281   5.606  -1.995  1.00  0.00     0.070 C 
BRANCH  21  22
HETATM   22  C5  UNL     1      -4.102   6.015  -0.855  1.00  0.00    -0.074 C 
HETATM   23  C4  UNL     1      -4.787   6.351   0.077  1.00  0.00    -0.074 C 
BRANCH  23  24
HETATM   24  C3  UNL     1      -5.625   6.763   1.181  1.00  0.00     0.060 C 
HETATM   25  C2  UNL     1      -5.456   6.262   2.379  1.00  0.00    -0.022 C 
HETATM   26  C1  UNL     1      -4.401   5.263   2.619  1.00  0.00     0.036 C 
ENDBRANCH  23  24
ENDBRANCH  21  22
ENDBRANCH   1  20
TORSDOF 7
ENDMDL
MODEL 5
REMARK VINA RESULT: -6.597135546      3.788      8.470
REMARK  7 active torsions:
REMARK  status: ('A' for Active; 'I' for Inactive)
REMARK    1  A    between atoms: C3_3  and  C4_4 
REMARK    2  A    between atoms: C5_5  and  C6_6 
REMARK    3  A    between atoms: C7_7  and  C8_8 
REMARK       I    between atoms: C8_8  and  N1_10 
REMARK    4  A    between atoms: C12_14  and  C13_15 
REMARK       I    between atoms: C13_15  and  N2_17 
REMARK    5  A    between atoms: N2_17  and  C14_19 
REMARK    6  A    between atoms: C14_19  and  C15_20 
REMARK    7  A    between atoms: C14_19  and  C18_23 
ROOT
HETATM    1  C8  UNL     1      -3.539   6.288  -7.045  1.00  0.00     0.245 C 
HETATM    2  O1  UNL     1      -4.004   7.044  -6.124  1.00  0.00    -0.268 OA
HETATM    3  N1  UNL     1      -2.610   5.290  -6.672  1.00  0.00    -0.330 N 
HETATM    4  C9  UNL     1      -1.821   4.247  -7.262  1.00  0.00     0.095 A 
HETATM    5  C10 UNL     1      -1.872   2.869  -6.744  1.00  0.00     0.035 A 
HETATM    6  C11 UNL     1      -1.281   3.896  -5.873  1.00  0.00     0.043 A 
HETATM    7  C12 UNL     1      -2.111   4.990  -5.305  1.00  0.00     0.186 A 
ENDROOT
BRANCH   7   8
HETATM    8  C13 UNL     1      -3.210   4.572  -4.411  1.00  0.00     0.241 C 
HETATM    9  O2  UNL     1      -4.290   4.124  -4.889  1.00  0.00    -0.271 OA
HETATM   10  N2  UNL     1      -3.069   4.669  -3.013  1.00  0.00    -0.348 N 
ATOM     11  H2  UNL     1      -2.189   5.034  -2.648  1.00  0.00     0.163 HD
BRANCH  10  12
HETATM   12  C14 UNL     1      -4.098   4.281  -2.051  1.00  0.00     0.171 C 
BRANCH  12  13
HETATM   13  C15 UNL     1      -3.551   3.357  -1.013  1.00  0.00     0.007 C 
HETATM   14  C16 UNL     1      -2.230   3.774  -0.456  1.00  0.00     0.012 C 
HETATM   15  C17 UNL     1      -3.431   1.928  -1.478  1.00  0.00     0.012 C 
ENDBRANCH  12  13
BRANCH  12  16
HETATM   16  C18 UNL     1      -4.675   5.564  -1.523  1.00  0.00     0.320 C 
HETATM   17  F1  UNL     1      -3.786   6.616  -1.541  1.00  0.00    -0.191 F 
HETATM   18  F2  UNL     1      -5.667   5.927  -2.460  1.00  0.00    -0.191 F 
HETATM   19 BR1  UNL     1      -5.594   5.393   0.152  1.00  0.00    -0.009 Br
ENDBRANCH  12  16
ENDBRANCH  10  12
ENDBRANCH   7   8
BRANCH   1  20
HETATM   20  C7  UNL     1      -3.966   6.470  -8.416  1.00  0.00     0.083 C 
HETATM   21  C6  UNL     1      -4.517   5.582  -9.196  1.00  0.00     0.070 C 
BRANCH  21  22
HETATM   22  C5  UNL     1      -4.866   5.999 -10.554  1.00  0.00    -0.074 C 
HETATM   23  C4  UNL     1      -5.154   6.353 -11.669  1.00  0.00    -0.074 C 
BRANCH  23  24
HETATM   24  C3  UNL     1      -5.512   6.796 -12.998  1.00  0.00     0.060 C 
HETATM   25  C2  UNL     1      -5.027   7.907 -13.492  1.00  0.00    -0.022 C 
HETATM   26  C1  UNL     1      -4.101   8.727 -12.693  1.00  0.00     0.036 C 
ENDBRANCH  23  24
ENDBRANCH  21  22
ENDBRANCH   1  20
TORSDOF 7
ENDMDL
