MODEL 1
REMARK VINA RESULT: -7.644909610      0.000      0.000
REMARK  3 active torsions:
REMARK  status: ('A' for Active; 'I' for Inactive)
REMARK       I    between atoms: C2_5  and  N4_7 
REMARK    1  A    between atoms: N4_7  and  N5_9 
REMARK       I    between atoms: N5_9  and  C3_11 
REMARK       I    between atoms: C3_11  and  N6_12 
REMARK    2  A    between atoms: N7_14  and  N8_16 
REMARK       I    between atoms: N11_21  and  C5_23 
REMARK    3  A    between atoms: C5_23  and  C6_25 
ROOT
HETATM    1  N1  UNL     1      14.393  10.886  55.515  1.00  0.00    -0.172 NA
HETATM    2  C1  UNL     1      15.002  11.468  56.338  1.00  0.00     0.184 C 
HETATM    3  N2  UNL     1      15.716  12.145  57.329  1.00  0.00    -0.266 N 
ATOM      4  H2  UNL     1      16.561  12.665  57.091  1.00  0.00     0.180 HD
HETATM    5  C2  UNL     1      15.304  12.107  58.533  1.00  0.00     0.216 C 
HETATM    6  N3  UNL     1      14.140  11.391  58.869  1.00  0.00    -0.061 NA
HETATM    7  N4  UNL     1      16.023  12.789  59.537  1.00  0.00    -0.259 N 
ATOM      8  H4  UNL     1      17.002  13.036  59.391  1.00  0.00     0.190 HD
ENDROOT
BRANCH   7   9
HETATM    9  N5  UNL     1      15.385  13.123  60.731  1.00  0.00    -0.128 N 
HETATM   10  C3  UNL     1      15.292  14.464  61.191  1.00  0.00     0.715 C 
HETATM   11  N6  UNL     1      14.420  15.369  60.530  1.00  0.00    -0.116 N 
HETATM   12  N11 UNL     1      16.016  14.798  62.205  1.00  0.00    -0.157 N 
HETATM   13  N7  UNL     1      13.171  15.411  60.767  1.00  0.00    -0.226 N 
ATOM     14  H6  UNL     1      14.811  16.011  59.839  1.00  0.00     0.207 HD
ATOM     15  H7  UNL     1      12.568  16.071  60.277  1.00  0.00     0.209 HD
HETATM   16  C5  UNL     1      16.007  16.094  62.746  1.00  0.00     0.240 C 
ATOM     17  H11 UNL     1      16.619  14.093  62.630  1.00  0.00     0.187 HD
HETATM   18  O1  UNL     1      15.356  16.284  63.828  1.00  0.00    -0.272 OA
ATOM     19  H5  UNL     1      14.971  12.380  61.294  1.00  0.00     0.205 HD
BRANCH  13  20
HETATM   20  N8  UNL     1      12.651  14.539  61.703  1.00  0.00    -0.261 N 
HETATM   21  C4  UNL     1      11.780  13.650  61.432  1.00  0.00     0.216 C 
HETATM   22  N9  UNL     1      11.328  12.814  62.486  1.00  0.00    -0.065 NA
HETATM   23  N10 UNL     1      11.298  13.523  60.108  1.00  0.00    -0.065 NA
ATOM     24  H8  UNL     1      12.983  14.612  62.665  1.00  0.00     0.190 HD
ENDBRANCH  13  20
BRANCH  16  25
HETATM   25  C6  UNL     1      16.688  17.257  62.162  1.00  0.00     0.079 A 
HETATM   26  C7  UNL     1      18.052  17.604  62.794  1.00  0.00     0.015 A 
HETATM   27  C8  UNL     1      17.943  17.111  61.391  1.00  0.00     0.015 A 
ENDBRANCH  16  25
ENDBRANCH   7   9
TORSDOF 3
ENDMDL
MODEL 2
REMARK VINA RESULT: -7.514089658      2.905      6.443
REMARK  3 active torsions:
REMARK  status: ('A' for Active; 'I' for Inactive)
REMARK       I    between atoms: C2_5  and  N4_7 
REMARK    1  A    between atoms: N4_7  and  N5_9 
REMARK       I    between atoms: N5_9  and  C3_11 
REMARK       I    between atoms: C3_11  and  N6_12 
REMARK    2  A    between atoms: N7_14  and  N8_16 
REMARK       I    between atoms: N11_21  and  C5_23 
REMARK    3  A    between atoms: C5_23  and  C6_25 
ROOT
HETATM    1  N1  UNL     1      18.755  19.897  65.740  1.00  0.00    -0.172 NA
HETATM    2  C1  UNL     1      18.709  19.035  64.938  1.00  0.00     0.184 C 
HETATM    3  N2  UNL     1      18.642  18.026  63.974  1.00  0.00    -0.266 N 
ATOM      4  H2  UNL     1      19.369  17.312  63.926  1.00  0.00     0.180 HD
HETATM    5  C2  UNL     1      17.667  18.005  63.157  1.00  0.00     0.216 C 
HETATM    6  N3  UNL     1      16.661  18.988  63.218  1.00  0.00    -0.061 NA
HETATM    7  N4  UNL     1      17.596  16.989  62.182  1.00  0.00    -0.259 N 
ATOM      8  H4  UNL     1      18.436  16.475  61.913  1.00  0.00     0.190 HD
ENDROOT
BRANCH   7   9
HETATM    9  N5  UNL     1      16.370  16.691  61.588  1.00  0.00    -0.128 N 
HETATM   10  C3  UNL     1      15.829  15.378  61.585  1.00  0.00     0.715 C 
HETATM   11  N6  UNL     1      15.321  14.830  62.792  1.00  0.00    -0.116 N 
HETATM   12  N11 UNL     1      15.825  14.737  60.466  1.00  0.00    -0.157 N 
HETATM   13  N7  UNL     1      14.154  15.096  63.226  1.00  0.00    -0.226 N 
ATOM     14  H6  UNL     1      15.913  14.199  63.333  1.00  0.00     0.207 HD
ATOM     15  H7  UNL     1      13.815  14.688  64.097  1.00  0.00     0.209 HD
HETATM   16  C5  UNL     1      15.316  13.434  60.342  1.00  0.00     0.240 C 
ATOM     17  H11 UNL     1      16.207  15.195  59.637  1.00  0.00     0.187 HD
HETATM   18  O1  UNL     1      14.164  13.291  59.812  1.00  0.00    -0.272 OA
ATOM     19  H5  UNL     1      15.844  17.441  61.140  1.00  0.00     0.205 HD
BRANCH  13  20
HETATM   20  N8  UNL     1      13.360  15.950  62.488  1.00  0.00    -0.261 N 
HETATM   21  C4  UNL     1      12.247  15.608  61.969  1.00  0.00     0.216 C 
HETATM   22  N9  UNL     1      11.525  16.583  61.234  1.00  0.00    -0.065 NA
HETATM   23  N10 UNL     1      11.772  14.286  62.140  1.00  0.00    -0.065 NA
ATOM     24  H8  UNL     1      13.681  16.908  62.350  1.00  0.00     0.190 HD
ENDBRANCH  13  20
BRANCH  16  25
HETATM   25  C6  UNL     1      16.007  12.214  60.779  1.00  0.00     0.079 A 
HETATM   26  C7  UNL     1      15.564  10.918  60.069  1.00  0.00     0.015 A 
HETATM   27  C8  UNL     1      16.931  11.484  59.881  1.00  0.00     0.015 A 
ENDBRANCH  16  25
ENDBRANCH   7   9
TORSDOF 3
ENDMDL
MODEL 3
REMARK VINA RESULT: -7.476296104      2.742      6.062
REMARK  3 active torsions:
REMARK  status: ('A' for Active; 'I' for Inactive)
REMARK       I    between atoms: C2_5  and  N4_7 
REMARK    1  A    between atoms: N4_7  and  N5_9 
REMARK       I    between atoms: N5_9  and  C3_11 
REMARK       I    between atoms: C3_11  and  N6_12 
REMARK    2  A    between atoms: N7_14  and  N8_16 
REMARK       I    between atoms: N11_21  and  C5_23 
REMARK    3  A    between atoms: C5_23  and  C6_25 
ROOT
HETATM    1  N1  UNL     1      17.111  19.965  64.602  1.00  0.00    -0.172 NA
HETATM    2  C1  UNL     1      16.288  19.123  64.600  1.00  0.00     0.184 C 
HETATM    3  N2  UNL     1      15.322  18.114  64.583  1.00  0.00    -0.266 N 
ATOM      4  H2  UNL     1      14.773  17.912  65.418  1.00  0.00     0.180 HD
HETATM    5  C2  UNL     1      15.133  17.448  63.514  1.00  0.00     0.216 C 
HETATM    6  N3  UNL     1      15.888  17.720  62.358  1.00  0.00    -0.061 NA
HETATM    7  N4  UNL     1      14.159  16.428  63.492  1.00  0.00    -0.259 N 
ATOM      8  H4  UNL     1      13.837  16.006  64.364  1.00  0.00     0.190 HD
ENDROOT
BRANCH   7   9
HETATM    9  N5  UNL     1      13.640  16.000  62.271  1.00  0.00    -0.128 N 
HETATM   10  C3  UNL     1      14.053  14.789  61.654  1.00  0.00     0.715 C 
HETATM   11  N6  UNL     1      13.640  13.548  62.208  1.00  0.00    -0.116 N 
HETATM   12  N11 UNL     1      14.796  14.879  60.604  1.00  0.00    -0.157 N 
HETATM   13  N7  UNL     1      12.495  13.044  61.976  1.00  0.00    -0.226 N 
ATOM     14  H6  UNL     1      14.286  13.042  62.814  1.00  0.00     0.207 HD
ATOM     15  H7  UNL     1      12.224  12.151  62.387  1.00  0.00     0.209 HD
HETATM   16  C5  UNL     1      15.264  13.749  59.911  1.00  0.00     0.240 C 
ATOM     17  H11 UNL     1      15.052  15.805  60.262  1.00  0.00     0.187 HD
HETATM   18  O1  UNL     1      14.683  13.436  58.818  1.00  0.00    -0.272 OA
ATOM     19  H5  UNL     1      12.940  16.577  61.804  1.00  0.00     0.205 HD
BRANCH  13  20
HETATM   20  N8  UNL     1      11.628  13.736  61.154  1.00  0.00    -0.261 N 
HETATM   21  C4  UNL     1      11.440  13.450  59.926  1.00  0.00     0.216 C 
HETATM   22  N9  UNL     1      10.519  14.240  59.190  1.00  0.00    -0.065 NA
HETATM   23  N10 UNL     1      12.144  12.370  59.343  1.00  0.00    -0.065 NA
ATOM     24  H8  UNL     1      11.110  14.519  61.551  1.00  0.00     0.190 HD
ENDBRANCH  13  20
BRANCH  16  25
HETATM   25  C6  UNL     1      16.375  12.893  60.347  1.00  0.00     0.079 A 
HETATM   26  C7  UNL     1      16.007  11.415  60.592  1.00  0.00     0.015 A 
HETATM   27  C8  UNL     1      16.912  11.821  59.479  1.00  0.00     0.015 A 
ENDBRANCH  16  25
ENDBRANCH   7   9
TORSDOF 3
ENDMDL
MODEL 4
REMARK VINA RESULT: -7.385792589      1.105      1.277
REMARK  3 active torsions:
REMARK  status: ('A' for Active; 'I' for Inactive)
REMARK       I    between atoms: C2_5  and  N4_7 
REMARK    1  A    between atoms: N4_7  and  N5_9 
REMARK       I    between atoms: N5_9  and  C3_11 
REMARK       I    between atoms: C3_11  and  N6_12 
REMARK    2  A    between atoms: N7_14  and  N8_16 
REMARK       I    between atoms: N11_21  and  C5_23 
REMARK    3  A    between atoms: C5_23  and  C6_25 
ROOT
HETATM    1  N1  UNL     1      14.762   9.962  54.588  1.00  0.00    -0.172 NA
HETATM    2  C1  UNL     1      15.176  10.733  55.376  1.00  0.00     0.184 C 
HETATM    3  N2  UNL     1      15.665  11.632  56.327  1.00  0.00    -0.266 N 
ATOM      4  H2  UNL     1      16.322  12.363  56.054  1.00  0.00     0.180 HD
HETATM    5  C2  UNL     1      15.282  11.533  57.537  1.00  0.00     0.216 C 
HETATM    6  N3  UNL     1      14.375  10.527  57.921  1.00  0.00    -0.061 NA
HETATM    7  N4  UNL     1      15.773  12.439  58.500  1.00  0.00    -0.259 N 
ATOM      8  H4  UNL     1      16.639  12.951  58.330  1.00  0.00     0.190 HD
ENDROOT
BRANCH   7   9
HETATM    9  N5  UNL     1      15.067  12.629  59.687  1.00  0.00    -0.128 N 
HETATM   10  C3  UNL     1      14.846  13.919  60.239  1.00  0.00     0.715 C 
HETATM   11  N6  UNL     1      13.926  14.798  59.609  1.00  0.00    -0.116 N 
HETATM   12  N11 UNL     1      15.502  14.232  61.304  1.00  0.00    -0.157 N 
HETATM   13  N7  UNL     1      12.669  14.721  59.795  1.00  0.00    -0.226 N 
ATOM     14  H6  UNL     1      14.286  15.520  58.984  1.00  0.00     0.207 HD
ATOM     15  H7  UNL     1      12.031  15.366  59.329  1.00  0.00     0.209 HD
HETATM   16  C5  UNL     1      15.364  15.478  61.937  1.00  0.00     0.240 C 
ATOM     17  H11 UNL     1      16.145  13.548  61.702  1.00  0.00     0.187 HD
HETATM   18  O1  UNL     1      14.661  15.533  63.001  1.00  0.00    -0.272 OA
ATOM     19  H5  UNL     1      14.696  11.814  60.176  1.00  0.00     0.205 HD
BRANCH  13  20
HETATM   20  N8  UNL     1      12.191  13.742  60.642  1.00  0.00    -0.261 N 
HETATM   21  C4  UNL     1      11.697  13.983  61.792  1.00  0.00     0.216 C 
HETATM   22  N9  UNL     1      11.238  12.886  62.566  1.00  0.00    -0.065 NA
HETATM   23  N10 UNL     1      11.621  15.318  62.255  1.00  0.00    -0.065 NA
ATOM     24  H8  UNL     1      12.235  12.772  60.331  1.00  0.00     0.190 HD
ENDBRANCH  13  20
BRANCH  16  25
HETATM   25  C6  UNL     1      15.967  16.733  61.469  1.00  0.00     0.079 A 
HETATM   26  C7  UNL     1      17.021  17.348  62.413  1.00  0.00     0.015 A 
HETATM   27  C8  UNL     1      17.392  16.807  61.073  1.00  0.00     0.015 A 
ENDBRANCH  16  25
ENDBRANCH   7   9
TORSDOF 3
ENDMDL
MODEL 5
REMARK VINA RESULT: -7.231866125      3.260      6.707
REMARK  3 active torsions:
REMARK  status: ('A' for Active; 'I' for Inactive)
REMARK       I    between atoms: C2_5  and  N4_7 
REMARK    1  A    between atoms: N4_7  and  N5_9 
REMARK       I    between atoms: N5_9  and  C3_11 
REMARK       I    between atoms: C3_11  and  N6_12 
REMARK    2  A    between atoms: N7_14  and  N8_16 
REMARK       I    between atoms: N11_21  and  C5_23 
REMARK    3  A    between atoms: C5_23  and  C6_25 
ROOT
HETATM    1  N1  UNL     1      17.188  16.364  69.226  1.00  0.00    -0.172 NA
HETATM    2  C1  UNL     1      16.729  15.606  68.450  1.00  0.00     0.184 C 
HETATM    3  N2  UNL     1      16.196  14.718  67.513  1.00  0.00    -0.266 N 
ATOM      4  H2  UNL     1      15.877  13.794  67.804  1.00  0.00     0.180 HD
HETATM    5  C2  UNL     1      16.112  15.071  66.293  1.00  0.00     0.216 C 
HETATM    6  N3  UNL     1      16.551  16.344  65.884  1.00  0.00    -0.061 NA
HETATM    7  N4  UNL     1      15.574  14.176  65.345  1.00  0.00    -0.259 N 
ATOM      8  H4  UNL     1      15.548  13.175  65.539  1.00  0.00     0.190 HD
ENDROOT
BRANCH   7   9
HETATM    9  N5  UNL     1      15.079  14.670  64.138  1.00  0.00    -0.128 N 
HETATM   10  C3  UNL     1      14.997  13.869  62.968  1.00  0.00     0.715 C 
HETATM   11  N6  UNL     1      14.019  12.843  62.892  1.00  0.00    -0.116 N 
HETATM   12  N11 UNL     1      15.829  14.119  62.016  1.00  0.00    -0.157 N 
HETATM   13  N7  UNL     1      12.807  13.075  62.578  1.00  0.00    -0.226 N 
ATOM     14  H6  UNL     1      14.297  11.883  63.097  1.00  0.00     0.207 HD
ATOM     15  H7  UNL     1      12.125  12.318  62.532  1.00  0.00     0.209 HD
HETATM   16  C5  UNL     1      15.842  13.393  60.813  1.00  0.00     0.240 C 
ATOM     17  H11 UNL     1      16.505  14.874  62.140  1.00  0.00     0.187 HD
HETATM   18  O1  UNL     1      15.325  13.938  59.781  1.00  0.00    -0.272 OA
ATOM     19  H5  UNL     1      14.765  15.639  64.095  1.00  0.00     0.205 HD
BRANCH  13  20
HETATM   20  N8  UNL     1      12.439  14.376  62.303  1.00  0.00    -0.261 N 
HETATM   21  C4  UNL     1      11.849  14.731  61.230  1.00  0.00     0.216 C 
HETATM   22  N9  UNL     1      11.523  16.102  61.069  1.00  0.00    -0.065 NA
HETATM   23  N10 UNL     1      11.541  13.761  60.248  1.00  0.00    -0.065 NA
ATOM     24  H8  UNL     1      12.652  15.094  62.995  1.00  0.00     0.190 HD
ENDBRANCH  13  20
BRANCH  16  25
HETATM   25  C6  UNL     1      16.404  12.046  60.647  1.00  0.00     0.079 A 
HETATM   26  C7  UNL     1      15.477  11.029  59.948  1.00  0.00     0.015 A 
HETATM   27  C8  UNL     1      16.737  11.507  59.309  1.00  0.00     0.015 A 
ENDBRANCH  16  25
ENDBRANCH   7   9
TORSDOF 3
ENDMDL
