MODEL 1
REMARK VINA RESULT: -7.847661726      0.000      0.000
REMARK  4 active torsions:
REMARK  status: ('A' for Active; 'I' for Inactive)
REMARK    1  A    between atoms: N1_6  and  N2_8 
REMARK    2  A    between atoms: C6_13  and  C7_14 
REMARK       I    between atoms: C7_14  and  N5_16 
REMARK    3  A    between atoms: N5_16  and  N6_18 
REMARK    4  A    between atoms: N6_18  and  C8_20 
ROOT
HETATM    1  C1  UNL     1      16.792  11.572  59.814  1.00  0.00     0.047 C 
HETATM    2  C2  UNL     1      15.538  12.207  60.284  1.00  0.00     0.081 C 
HETATM    3  C3  UNL     1      15.667  12.726  61.697  1.00  0.00     0.047 C 
HETATM    4  O1  UNL     1      14.327  11.497  60.138  1.00  0.00    -0.325 OA
HETATM    5  C4  UNL     1      13.712  12.776  60.189  1.00  0.00     0.149 C 
HETATM    6  N1  UNL     1      12.674  13.210  60.688  1.00  0.00    -0.281 N 
ATOM      7  H1  UNL     1      12.129  12.499  61.174  1.00  0.00     0.189 HD
HETATM    8  C6  UNL     1      14.877  13.238  59.398  1.00  0.00     0.190 C 
ENDROOT
BRANCH   8   9
HETATM    9  C7  UNL     1      14.675  12.784  57.988  1.00  0.00     0.251 C 
HETATM   10  O2  UNL     1      15.432  13.121  57.042  1.00  0.00    -0.271 OA
HETATM   11  N5  UNL     1      13.584  11.932  57.680  1.00  0.00    -0.267 N 
ATOM     12  H5  UNL     1      12.939  11.628  58.409  1.00  0.00     0.190 HD
BRANCH  11  13
HETATM   13  N6  UNL     1      13.412  11.518  56.358  1.00  0.00    -0.276 N 
ATOM     14  H6  UNL     1      12.951  12.157  55.710  1.00  0.00     0.189 HD
BRANCH  13  15
HETATM   15  C8  UNL     1      13.840  10.270  55.867  1.00  0.00     0.199 C 
HETATM   16  N7  UNL     1      14.881  10.191  54.933  1.00  0.00    -0.068 NA
HETATM   17  S1  UNL     1      13.119   8.919  56.394  1.00  0.00    -0.043 SA
ENDBRANCH  13  15
ENDBRANCH  11  13
ENDBRANCH   8   9
BRANCH   6  18
HETATM   18  N2  UNL     1      12.112  14.429  60.722  1.00  0.00    -0.274 N 
HETATM   19  C5  UNL     1      12.212  15.397  61.547  1.00  0.00     0.215 C 
HETATM   20  N3  UNL     1      11.440  16.567  61.249  1.00  0.00    -0.065 NA
HETATM   21  N4  UNL     1      13.045  15.354  62.710  1.00  0.00    -0.065 NA
ATOM     22  H2  UNL     1      11.485  14.618  59.939  1.00  0.00     0.189 HD
ENDBRANCH   6  18
TORSDOF 4
ENDMDL
MODEL 2
REMARK VINA RESULT: -7.656459410      2.503      5.929
REMARK  4 active torsions:
REMARK  status: ('A' for Active; 'I' for Inactive)
REMARK    1  A    between atoms: N1_6  and  N2_8 
REMARK    2  A    between atoms: C6_13  and  C7_14 
REMARK       I    between atoms: C7_14  and  N5_16 
REMARK    3  A    between atoms: N5_16  and  N6_18 
REMARK    4  A    between atoms: N6_18  and  C8_20 
ROOT
HETATM    1  C1  UNL     1      16.047  13.045  61.581  1.00  0.00     0.047 C 
HETATM    2  C2  UNL     1      15.697  12.484  60.255  1.00  0.00     0.081 C 
HETATM    3  C3  UNL     1      16.711  11.464  59.792  1.00  0.00     0.047 C 
HETATM    4  O1  UNL     1      15.396  13.377  59.204  1.00  0.00    -0.325 OA
HETATM    5  C4  UNL     1      14.684  12.283  58.642  1.00  0.00     0.149 C 
HETATM    6  N1  UNL     1      14.523  11.862  57.497  1.00  0.00    -0.281 N 
ATOM      7  H1  UNL     1      15.003  12.417  56.789  1.00  0.00     0.189 HD
HETATM    8  C6  UNL     1      14.292  11.974  60.037  1.00  0.00     0.190 C 
ENDROOT
BRANCH   8   9
HETATM    9  C7  UNL     1      13.226  12.945  60.434  1.00  0.00     0.251 C 
HETATM   10  O2  UNL     1      12.449  12.754  61.403  1.00  0.00    -0.271 OA
HETATM   11  N5  UNL     1      13.069  14.146  59.696  1.00  0.00    -0.267 N 
ATOM     12  H5  UNL     1      13.674  14.351  58.901  1.00  0.00     0.190 HD
BRANCH  11  13
HETATM   13  N6  UNL     1      12.070  15.041  60.082  1.00  0.00    -0.276 N 
ATOM     14  H6  UNL     1      11.169  14.990  59.607  1.00  0.00     0.189 HD
BRANCH  13  15
HETATM   15  C8  UNL     1      12.235  16.010  61.090  1.00  0.00     0.199 C 
HETATM   16  N7  UNL     1      11.316  16.105  62.143  1.00  0.00    -0.068 NA
HETATM   17  S1  UNL     1      13.501  17.018  61.025  1.00  0.00    -0.043 SA
ENDBRANCH  13  15
ENDBRANCH  11  13
ENDBRANCH   8   9
BRANCH   6  18
HETATM   18  N2  UNL     1      13.843  10.821  56.989  1.00  0.00    -0.274 N 
HETATM   19  C5  UNL     1      14.003  10.125  55.932  1.00  0.00     0.215 C 
HETATM   20  N3  UNL     1      13.055   9.073  55.716  1.00  0.00    -0.065 NA
HETATM   21  N4  UNL     1      15.065  10.350  54.999  1.00  0.00    -0.065 NA
ATOM     22  H2  UNL     1      13.046  10.532  57.557  1.00  0.00     0.189 HD
ENDBRANCH   6  18
TORSDOF 4
ENDMDL
MODEL 3
REMARK VINA RESULT: -7.131275688      1.127      1.127
REMARK  4 active torsions:
REMARK  status: ('A' for Active; 'I' for Inactive)
REMARK    1  A    between atoms: N1_6  and  N2_8 
REMARK    2  A    between atoms: C6_13  and  C7_14 
REMARK       I    between atoms: C7_14  and  N5_16 
REMARK    3  A    between atoms: N5_16  and  N6_18 
REMARK    4  A    between atoms: N6_18  and  C8_20 
ROOT
HETATM    1  C1  UNL     1      16.308  11.350  59.841  1.00  0.00     0.047 C 
HETATM    2  C2  UNL     1      15.376  12.307  60.481  1.00  0.00     0.081 C 
HETATM    3  C3  UNL     1      16.071  13.160  61.516  1.00  0.00     0.047 C 
HETATM    4  O1  UNL     1      14.156  11.818  60.996  1.00  0.00    -0.325 OA
HETATM    5  C4  UNL     1      13.696  13.152  60.839  1.00  0.00     0.149 C 
HETATM    6  N1  UNL     1      12.959  13.889  61.496  1.00  0.00    -0.281 N 
ATOM      7  H1  UNL     1      12.596  13.450  62.341  1.00  0.00     0.189 HD
HETATM    8  C6  UNL     1      14.498  13.159  59.594  1.00  0.00     0.190 C 
ENDROOT
BRANCH   8   9
HETATM    9  C7  UNL     1      13.742  12.382  58.564  1.00  0.00     0.251 C 
HETATM   10  O2  UNL     1      12.635  11.831  58.794  1.00  0.00    -0.271 OA
HETATM   11  N5  UNL     1      14.280  12.249  57.258  1.00  0.00    -0.267 N 
ATOM     12  H5  UNL     1      15.174  12.676  57.018  1.00  0.00     0.190 HD
BRANCH  11  13
HETATM   13  N6  UNL     1      13.559  11.521  56.310  1.00  0.00    -0.276 N 
ATOM     14  H6  UNL     1      12.698  11.928  55.944  1.00  0.00     0.189 HD
BRANCH  13  15
HETATM   15  C8  UNL     1      13.952  10.257  55.830  1.00  0.00     0.199 C 
HETATM   16  N7  UNL     1      14.971  10.144  54.875  1.00  0.00    -0.068 NA
HETATM   17  S1  UNL     1      13.218   8.928  56.394  1.00  0.00    -0.043 SA
ENDBRANCH  13  15
ENDBRANCH  11  13
ENDBRANCH   8   9
BRANCH   6  18
HETATM   18  N2  UNL     1      12.537  15.153  61.326  1.00  0.00    -0.274 N 
HETATM   19  C5  UNL     1      12.682  16.207  62.029  1.00  0.00     0.215 C 
HETATM   20  N3  UNL     1      12.073  17.399  61.518  1.00  0.00    -0.065 NA
HETATM   21  N4  UNL     1      13.413  16.236  63.259  1.00  0.00    -0.065 NA
ATOM     22  H2  UNL     1      11.999  15.297  60.472  1.00  0.00     0.189 HD
ENDBRANCH   6  18
TORSDOF 4
ENDMDL
MODEL 4
REMARK VINA RESULT: -6.774418474      3.476      5.107
REMARK  4 active torsions:
REMARK  status: ('A' for Active; 'I' for Inactive)
REMARK    1  A    between atoms: N1_6  and  N2_8 
REMARK    2  A    between atoms: C6_13  and  C7_14 
REMARK       I    between atoms: C7_14  and  N5_16 
REMARK    3  A    between atoms: N5_16  and  N6_18 
REMARK    4  A    between atoms: N6_18  and  C8_20 
ROOT
HETATM    1  C1  UNL     1      16.935  11.053  60.317  1.00  0.00     0.047 C 
HETATM    2  C2  UNL     1      15.702  11.558  59.669  1.00  0.00     0.081 C 
HETATM    3  C3  UNL     1      14.954  10.459  58.953  1.00  0.00     0.047 C 
HETATM    4  O1  UNL     1      15.794  12.699  58.843  1.00  0.00    -0.325 OA
HETATM    5  C4  UNL     1      14.411  12.862  59.123  1.00  0.00     0.149 C 
HETATM    6  N1  UNL     1      13.439  13.230  58.462  1.00  0.00    -0.281 N 
ATOM      7  H1  UNL     1      13.672  13.473  57.500  1.00  0.00     0.189 HD
HETATM    8  C6  UNL     1      14.752  12.400  60.488  1.00  0.00     0.190 C 
ENDROOT
BRANCH   8   9
HETATM    9  C7  UNL     1      15.411  13.539  61.200  1.00  0.00     0.251 C 
HETATM   10  O2  UNL     1      15.838  13.458  62.379  1.00  0.00    -0.271 OA
HETATM   11  N5  UNL     1      15.574  14.778  60.529  1.00  0.00    -0.267 N 
ATOM     12  H5  UNL     1      15.247  14.898  59.570  1.00  0.00     0.190 HD
BRANCH  11  13
HETATM   13  N6  UNL     1      16.193  15.829  61.208  1.00  0.00    -0.276 N 
ATOM     14  H6  UNL     1      17.202  15.783  61.349  1.00  0.00     0.189 HD
BRANCH  13  15
HETATM   15  C8  UNL     1      15.503  16.949  61.710  1.00  0.00     0.199 C 
HETATM   16  N7  UNL     1      14.449  17.520  60.983  1.00  0.00    -0.068 NA
HETATM   17  S1  UNL     1      15.935  17.575  63.139  1.00  0.00    -0.043 SA
ENDBRANCH  13  15
ENDBRANCH  11  13
ENDBRANCH   8   9
BRANCH   6  18
HETATM   18  N2  UNL     1      12.136  13.376  58.750  1.00  0.00    -0.274 N 
HETATM   19  C5  UNL     1      11.502  14.239  59.443  1.00  0.00     0.215 C 
HETATM   20  N3  UNL     1      10.082  14.065  59.529  1.00  0.00    -0.065 NA
HETATM   21  N4  UNL     1      12.140  15.338  60.103  1.00  0.00    -0.065 NA
ATOM     22  H2  UNL     1      11.538  12.660  58.336  1.00  0.00     0.189 HD
ENDBRANCH   6  18
TORSDOF 4
ENDMDL
MODEL 5
REMARK VINA RESULT: -6.564653290      2.981      4.082
REMARK  4 active torsions:
REMARK  status: ('A' for Active; 'I' for Inactive)
REMARK    1  A    between atoms: N1_6  and  N2_8 
REMARK    2  A    between atoms: C6_13  and  C7_14 
REMARK       I    between atoms: C7_14  and  N5_16 
REMARK    3  A    between atoms: N5_16  and  N6_18 
REMARK    4  A    between atoms: N6_18  and  C8_20 
ROOT
HETATM    1  C1  UNL     1      11.813  13.706  61.480  1.00  0.00     0.047 C 
HETATM    2  C2  UNL     1      12.844  14.771  61.465  1.00  0.00     0.081 C 
HETATM    3  C3  UNL     1      12.530  15.868  62.455  1.00  0.00     0.047 C 
HETATM    4  O1  UNL     1      13.218  15.330  60.225  1.00  0.00    -0.325 OA
HETATM    5  C4  UNL     1      14.427  15.677  60.885  1.00  0.00     0.149 C 
HETATM    6  N1  UNL     1      15.177  16.653  60.844  1.00  0.00    -0.281 N 
ATOM      7  H1  UNL     1      14.868  17.376  60.195  1.00  0.00     0.189 HD
HETATM    8  C6  UNL     1      14.296  14.367  61.563  1.00  0.00     0.190 C 
ENDROOT
BRANCH   8   9
HETATM    9  C7  UNL     1      14.699  13.309  60.586  1.00  0.00     0.251 C 
HETATM   10  O2  UNL     1      14.517  12.082  60.787  1.00  0.00    -0.271 OA
HETATM   11  N5  UNL     1      15.315  13.687  59.365  1.00  0.00    -0.267 N 
ATOM     12  H5  UNL     1      15.486  14.669  59.151  1.00  0.00     0.190 HD
BRANCH  11  13
HETATM   13  N6  UNL     1      15.682  12.686  58.465  1.00  0.00    -0.276 N 
ATOM     14  H6  UNL     1      16.399  12.019  58.753  1.00  0.00     0.189 HD
BRANCH  13  15
HETATM   15  C8  UNL     1      15.120  12.543  57.182  1.00  0.00     0.199 C 
HETATM   16  N7  UNL     1      15.664  13.228  56.087  1.00  0.00    -0.068 NA
HETATM   17  S1  UNL     1      13.837  11.577  56.978  1.00  0.00    -0.043 SA
ENDBRANCH  13  15
ENDBRANCH  11  13
ENDBRANCH   8   9
BRANCH   6  18
HETATM   18  N2  UNL     1      16.319  16.960  61.481  1.00  0.00    -0.274 N 
HETATM   19  C5  UNL     1      16.566  17.696  62.493  1.00  0.00     0.215 C 
HETATM   20  N3  UNL     1      17.939  17.788  62.890  1.00  0.00    -0.065 NA
HETATM   21  N4  UNL     1      15.551  18.398  63.219  1.00  0.00    -0.065 NA
ATOM     22  H2  UNL     1      17.147  16.520  61.079  1.00  0.00     0.189 HD
ENDBRANCH   6  18
TORSDOF 4
ENDMDL
