MODEL 1
REMARK VINA RESULT: -6.956585078      0.000      0.000
REMARK  4 active torsions:
REMARK  status: ('A' for Active; 'I' for Inactive)
REMARK       I    between atoms: C1_4  and  N3_6 
REMARK    1  A    between atoms: N3_6  and  C2_8 
REMARK    2  A    between atoms: N4_11  and  S1_12 
REMARK    3  A    between atoms: S1_12  and  C5_15 
REMARK    4  A    between atoms: C7_21  and  N7_22 
ROOT
HETATM    1  C2  UNL     1      14.854  10.988  57.531  1.00  0.00     0.116 C 
HETATM    2  C3  UNL     1      14.348  10.582  58.882  1.00  0.00     0.043 C 
HETATM    3  C4  UNL     1      13.589  11.698  59.571  1.00  0.00     0.110 C 
HETATM    4  N4  UNL     1      14.498  12.821  59.684  1.00  0.00    -0.202 NA
HETATM    5  C6  UNL     1      14.895  13.345  58.392  1.00  0.00     0.142 C 
HETATM    6  C7  UNL     1      15.528  12.313  57.508  1.00  0.00     0.220 C 
ENDROOT
BRANCH   4   7
HETATM    7  S1  UNL     1      13.758  14.143  60.532  1.00  0.00     0.272 S 
HETATM    8  O1  UNL     1      14.876  15.093  60.894  1.00  0.00    -0.203 OA
HETATM    9  O2  UNL     1      12.870  14.849  59.536  1.00  0.00    -0.203 OA
BRANCH   7  10
HETATM   10  C5  UNL     1      12.911  13.627  61.940  1.00  0.00     0.221 C 
HETATM   11  N5  UNL     1      13.533  13.083  62.929  1.00  0.00    -0.377 N 
ATOM     12  H52 UNL     1      14.544  12.964  62.860  1.00  0.00     0.158 HD
ATOM     13  H51 UNL     1      13.031  12.778  63.763  1.00  0.00     0.158 HD
HETATM   14  N6  UNL     1      11.502  13.794  62.037  1.00  0.00    -0.069 NA
ENDBRANCH   7  10
ENDBRANCH   4   7
BRANCH   6  15
HETATM   15  N7  UNL     1      15.501  12.817  56.146  1.00  0.00    -0.072 N 
ATOM     16  H73 UNL     1      16.371  12.637  55.645  1.00  0.00     0.274 HD
ATOM     17  H72 UNL     1      14.878  12.281  55.542  1.00  0.00     0.274 HD
ATOM     18  H71 UNL     1      15.263  13.808  56.175  1.00  0.00     0.274 HD
ENDBRANCH   6  15
BRANCH   1  19
HETATM   19  N3  UNL     1      13.750  10.898  56.589  1.00  0.00    -0.358 N 
HETATM   20  C1  UNL     1      13.285   9.626  56.152  1.00  0.00     0.182 C 
HETATM   21  N1  UNL     1      13.915   9.059  55.191  1.00  0.00    -0.374 N 
HETATM   22  N2  UNL     1      12.169   8.961  56.722  1.00  0.00    -0.064 NA
ATOM     23  H12 UNL     1      13.581   8.147  54.877  1.00  0.00     0.158 HD
ATOM     24  H11 UNL     1      14.717   9.538  54.782  1.00  0.00     0.158 HD
ATOM     25  H3  UNL     1      13.308  11.748  56.240  1.00  0.00     0.162 HD
ENDBRANCH   1  19
TORSDOF 4
ENDMDL
MODEL 2
REMARK VINA RESULT: -6.952370891      2.274      3.217
REMARK  4 active torsions:
REMARK  status: ('A' for Active; 'I' for Inactive)
REMARK       I    between atoms: C1_4  and  N3_6 
REMARK    1  A    between atoms: N3_6  and  C2_8 
REMARK    2  A    between atoms: N4_11  and  S1_12 
REMARK    3  A    between atoms: S1_12  and  C5_15 
REMARK    4  A    between atoms: C7_21  and  N7_22 
ROOT
HETATM    1  C2  UNL     1      14.879  11.513  58.881  1.00  0.00     0.116 C 
HETATM    2  C3  UNL     1      13.733  12.448  58.637  1.00  0.00     0.043 C 
HETATM    3  C4  UNL     1      13.902  13.767  59.363  1.00  0.00     0.110 C 
HETATM    4  N4  UNL     1      14.018  13.459  60.775  1.00  0.00    -0.202 NA
HETATM    5  C6  UNL     1      15.203  12.682  61.078  1.00  0.00     0.142 C 
HETATM    6  C7  UNL     1      15.274  11.397  60.309  1.00  0.00     0.220 C 
ENDROOT
BRANCH   4   7
HETATM    7  S1  UNL     1      14.141  14.910  61.723  1.00  0.00     0.272 S 
HETATM    8  O1  UNL     1      13.713  14.537  63.124  1.00  0.00    -0.203 OA
HETATM    9  O2  UNL     1      15.607  15.264  61.778  1.00  0.00    -0.203 OA
BRANCH   7  10
HETATM   10  C5  UNL     1      13.164  16.184  61.102  1.00  0.00     0.221 C 
HETATM   11  N5  UNL     1      11.879  16.087  61.077  1.00  0.00    -0.377 N 
ATOM     12  H52 UNL     1      11.450  15.233  61.436  1.00  0.00     0.158 HD
ATOM     13  H51 UNL     1      11.300  16.842  60.709  1.00  0.00     0.158 HD
HETATM   14  N6  UNL     1      13.761  17.374  60.601  1.00  0.00    -0.069 NA
ENDBRANCH   7  10
ENDBRANCH   4   7
BRANCH   6  15
HETATM   15  N7  UNL     1      16.645  10.919  60.367  1.00  0.00    -0.072 N 
ATOM     16  H73 UNL     1      16.891  10.337  59.566  1.00  0.00     0.274 HD
ATOM     17  H72 UNL     1      17.326  11.663  60.214  1.00  0.00     0.274 HD
ATOM     18  H71 UNL     1      16.781  10.440  61.257  1.00  0.00     0.274 HD
ENDBRANCH   6  15
BRANCH   1  19
HETATM   19  N3  UNL     1      15.979  11.914  58.019  1.00  0.00    -0.358 N 
HETATM   20  C1  UNL     1      15.755  12.142  56.633  1.00  0.00     0.182 C 
HETATM   21  N1  UNL     1      15.753  11.124  55.854  1.00  0.00    -0.374 N 
HETATM   22  N2  UNL     1      15.537  13.427  56.074  1.00  0.00    -0.064 NA
ATOM     23  H12 UNL     1      15.593  11.287  54.859  1.00  0.00     0.158 HD
ATOM     24  H11 UNL     1      15.910  10.200  56.255  1.00  0.00     0.158 HD
ATOM     25  H3  UNL     1      16.915  12.032  58.409  1.00  0.00     0.162 HD
ENDBRANCH   1  19
TORSDOF 4
ENDMDL
MODEL 3
REMARK VINA RESULT: -6.790009215      2.377      3.232
REMARK  4 active torsions:
REMARK  status: ('A' for Active; 'I' for Inactive)
REMARK       I    between atoms: C1_4  and  N3_6 
REMARK    1  A    between atoms: N3_6  and  C2_8 
REMARK    2  A    between atoms: N4_11  and  S1_12 
REMARK    3  A    between atoms: S1_12  and  C5_15 
REMARK    4  A    between atoms: C7_21  and  N7_22 
ROOT
HETATM    1  C2  UNL     1      14.811  11.477  58.860  1.00  0.00     0.116 C 
HETATM    2  C3  UNL     1      13.537  12.213  58.572  1.00  0.00     0.043 C 
HETATM    3  C4  UNL     1      13.403  13.475  59.398  1.00  0.00     0.110 C 
HETATM    4  N4  UNL     1      13.459  13.077  60.791  1.00  0.00    -0.202 NA
HETATM    5  C6  UNL     1      14.737  12.498  61.151  1.00  0.00     0.142 C 
HETATM    6  C7  UNL     1      15.104  11.314  60.308  1.00  0.00     0.220 C 
ENDROOT
BRANCH   4   7
HETATM    7  S1  UNL     1      13.237  14.443  61.841  1.00  0.00     0.272 S 
HETATM    8  O1  UNL     1      11.745  14.597  62.026  1.00  0.00    -0.203 OA
HETATM    9  O2  UNL     1      13.819  14.055  63.179  1.00  0.00    -0.203 OA
BRANCH   7  10
HETATM   10  C5  UNL     1      13.928  15.883  61.200  1.00  0.00     0.221 C 
HETATM   11  N5  UNL     1      15.205  16.063  61.193  1.00  0.00    -0.377 N 
ATOM     12  H52 UNL     1      15.800  15.329  61.577  1.00  0.00     0.158 HD
ATOM     13  H51 UNL     1      15.614  16.917  60.813  1.00  0.00     0.158 HD
HETATM   14  N6  UNL     1      13.098  16.906  60.663  1.00  0.00    -0.069 NA
ENDBRANCH   7  10
ENDBRANCH   4   7
BRANCH   6  15
HETATM   15  N7  UNL     1      16.529  11.082  60.463  1.00  0.00    -0.072 N 
ATOM     16  H73 UNL     1      16.735  10.187  60.907  1.00  0.00     0.274 HD
ATOM     17  H72 UNL     1      16.998  10.907  59.573  1.00  0.00     0.274 HD
ATOM     18  H71 UNL     1      16.931  11.872  60.968  1.00  0.00     0.274 HD
ENDBRANCH   6  15
BRANCH   1  19
HETATM   19  N3  UNL     1      15.886  12.136  58.134  1.00  0.00    -0.358 N 
HETATM   20  C1  UNL     1      15.853  12.204  56.714  1.00  0.00     0.182 C 
HETATM   21  N1  UNL     1      16.275  11.188  56.058  1.00  0.00    -0.374 N 
HETATM   22  N2  UNL     1      15.380  13.331  55.994  1.00  0.00    -0.064 NA
ATOM     23  H12 UNL     1      16.252  11.238  55.039  1.00  0.00     0.158 HD
ATOM     24  H11 UNL     1      16.615  10.378  56.575  1.00  0.00     0.158 HD
ATOM     25  H3  UNL     1      16.666  12.549  58.646  1.00  0.00     0.162 HD
ENDBRANCH   1  19
TORSDOF 4
ENDMDL
MODEL 4
REMARK VINA RESULT: -6.750500708      2.477      3.198
REMARK  4 active torsions:
REMARK  status: ('A' for Active; 'I' for Inactive)
REMARK       I    between atoms: C1_4  and  N3_6 
REMARK    1  A    between atoms: N3_6  and  C2_8 
REMARK    2  A    between atoms: N4_11  and  S1_12 
REMARK    3  A    between atoms: S1_12  and  C5_15 
REMARK    4  A    between atoms: C7_21  and  N7_22 
ROOT
HETATM    1  C2  UNL     1      14.887  11.220  58.815  1.00  0.00     0.116 C 
HETATM    2  C3  UNL     1      13.474  11.639  58.540  1.00  0.00     0.043 C 
HETATM    3  C4  UNL     1      13.054  12.830  59.377  1.00  0.00     0.110 C 
HETATM    4  N4  UNL     1      13.211  12.446  60.766  1.00  0.00    -0.202 NA
HETATM    5  C6  UNL     1      14.592  12.179  61.116  1.00  0.00     0.142 C 
HETATM    6  C7  UNL     1      15.219  11.120  60.260  1.00  0.00     0.220 C 
ENDROOT
BRANCH   4   7
HETATM    7  S1  UNL     1      12.684  13.715  61.829  1.00  0.00     0.272 S 
HETATM    8  O1  UNL     1      11.215  13.470  62.084  1.00  0.00    -0.203 OA
HETATM    9  O2  UNL     1      13.409  13.509  63.137  1.00  0.00    -0.203 OA
BRANCH   7  10
HETATM   10  C5  UNL     1      12.938  15.281  61.159  1.00  0.00     0.221 C 
HETATM   11  N5  UNL     1      11.945  16.024  60.810  1.00  0.00    -0.377 N 
ATOM     12  H52 UNL     1      10.999  15.664  60.940  1.00  0.00     0.158 HD
ATOM     13  H51 UNL     1      12.096  16.952  60.413  1.00  0.00     0.158 HD
HETATM   14  N6  UNL     1      14.256  15.784  60.978  1.00  0.00    -0.069 NA
ENDBRANCH   7  10
ENDBRANCH   4   7
BRANCH   6  15
HETATM   15  N7  UNL     1      16.661  11.226  60.407  1.00  0.00    -0.072 N 
ATOM     16  H73 UNL     1      17.017  12.138  60.122  1.00  0.00     0.274 HD
ATOM     17  H72 UNL     1      16.955  11.259  61.383  1.00  0.00     0.274 HD
ATOM     18  H71 UNL     1      17.093  10.458  59.893  1.00  0.00     0.274 HD
ENDBRANCH   6  15
BRANCH   1  19
HETATM   19  N3  UNL     1      15.773  12.116  58.090  1.00  0.00    -0.358 N 
HETATM   20  C1  UNL     1      15.810  12.090  56.668  1.00  0.00     0.182 C 
HETATM   21  N1  UNL     1      16.544  11.201  56.107  1.00  0.00    -0.374 N 
HETATM   22  N2  UNL     1      15.082  12.989  55.848  1.00  0.00    -0.064 NA
ATOM     23  H12 UNL     1      16.571  11.183  55.087  1.00  0.00     0.158 HD
ATOM     24  H11 UNL     1      17.067  10.555  56.697  1.00  0.00     0.158 HD
ATOM     25  H3  UNL     1      16.370  12.765  58.603  1.00  0.00     0.162 HD
ENDBRANCH   1  19
TORSDOF 4
ENDMDL
MODEL 5
REMARK VINA RESULT: -6.580498903      2.429      3.231
REMARK  4 active torsions:
REMARK  status: ('A' for Active; 'I' for Inactive)
REMARK       I    between atoms: C1_4  and  N3_6 
REMARK    1  A    between atoms: N3_6  and  C2_8 
REMARK    2  A    between atoms: N4_11  and  S1_12 
REMARK    3  A    between atoms: S1_12  and  C5_15 
REMARK    4  A    between atoms: C7_21  and  N7_22 
ROOT
HETATM    1  C2  UNL     1      14.037  12.516  59.438  1.00  0.00     0.116 C 
HETATM    2  C3  UNL     1      12.588  12.739  59.755  1.00  0.00     0.043 C 
HETATM    3  C4  UNL     1      12.296  14.178  60.129  1.00  0.00     0.110 C 
HETATM    4  N4  UNL     1      13.124  14.493  61.276  1.00  0.00    -0.202 NA
HETATM    5  C6  UNL     1      14.539  14.439  60.970  1.00  0.00     0.142 C 
HETATM    6  C7  UNL     1      14.973  13.111  60.427  1.00  0.00     0.220 C 
ENDROOT
BRANCH   4   7
HETATM    7  S1  UNL     1      12.817  16.104  61.846  1.00  0.00     0.272 S 
HETATM    8  O1  UNL     1      12.681  16.970  60.614  1.00  0.00    -0.203 OA
HETATM    9  O2  UNL     1      11.468  16.071  62.524  1.00  0.00    -0.203 OA
BRANCH   7  10
HETATM   10  C5  UNL     1      14.070  16.688  62.872  1.00  0.00     0.221 C 
HETATM   11  N5  UNL     1      14.276  16.168  64.034  1.00  0.00    -0.377 N 
ATOM     12  H52 UNL     1      13.676  15.399  64.334  1.00  0.00     0.158 HD
ATOM     13  H51 UNL     1      15.018  16.515  64.642  1.00  0.00     0.158 HD
HETATM   14  N6  UNL     1      14.906  17.760  62.454  1.00  0.00    -0.069 NA
ENDBRANCH   7  10
ENDBRANCH   4   7
BRANCH   6  15
HETATM   15  N7  UNL     1      16.263  13.292  59.785  1.00  0.00    -0.072 N 
ATOM     16  H73 UNL     1      17.022  12.841  60.295  1.00  0.00     0.274 HD
ATOM     17  H72 UNL     1      16.346  12.763  58.916  1.00  0.00     0.274 HD
ATOM     18  H71 UNL     1      16.418  14.291  59.652  1.00  0.00     0.274 HD
ENDBRANCH   6  15
BRANCH   1  19
HETATM   19  N3  UNL     1      14.277  12.979  58.080  1.00  0.00    -0.358 N 
HETATM   20  C1  UNL     1      14.602  12.049  57.054  1.00  0.00     0.182 C 
HETATM   21  N1  UNL     1      15.824  11.677  56.952  1.00  0.00    -0.374 N 
HETATM   22  N2  UNL     1      13.650  11.518  56.147  1.00  0.00    -0.064 NA
ATOM     23  H12 UNL     1      16.058  11.010  56.216  1.00  0.00     0.158 HD
ATOM     24  H11 UNL     1      16.509  12.060  57.604  1.00  0.00     0.158 HD
ATOM     25  H3  UNL     1      14.213  13.974  57.863  1.00  0.00     0.162 HD
ENDBRANCH   1  19
TORSDOF 4
ENDMDL
