MODEL 1
REMARK VINA RESULT: -8.096187540      0.000      0.000
REMARK  5 active torsions:
REMARK  status: ('A' for Active; 'I' for Inactive)
REMARK    1  A    between atoms: N1_1  and  N2_4 
REMARK       I    between atoms: C1_6  and  N3_7 
REMARK       I    between atoms: C1_6  and  N7_18 
REMARK    2  A    between atoms: N3_7  and  N4_9 
REMARK       I    between atoms: N4_9  and  C2_11 
REMARK       I    between atoms: C2_11  and  N5_13 
REMARK    3  A    between atoms: N5_13  and  C3_14 
REMARK    4  A    between atoms: C3_14  and  O2_16 
REMARK    5  A    between atoms: C7_22  and  C8_23 
ROOT
HETATM    1  N2  UNL     1      12.289  13.428  59.467  1.00  0.00    -0.137 N 
ATOM      2  H2  UNL     1      12.327  12.423  59.296  1.00  0.00     0.205 HD
HETATM    3  C1  UNL     1      13.420  14.051  59.648  1.00  0.00     0.710 C 
HETATM    4  N3  UNL     1      13.376  15.457  59.890  1.00  0.00    -0.126 N 
ATOM      5  H3  UNL     1      12.989  16.062  59.165  1.00  0.00     0.206 HD
HETATM    6  N7  UNL     1      14.658  13.404  59.629  1.00  0.00    -0.200 N 
HETATM    7  C4  UNL     1      15.497  13.204  60.826  1.00  0.00     0.142 C 
HETATM    8  C5  UNL     1      16.098  11.828  60.655  1.00  0.00     0.023 C 
HETATM    9  C6  UNL     1      15.598  11.382  59.263  1.00  0.00     0.038 C 
HETATM   10  C7  UNL     1      15.447  12.755  58.598  1.00  0.00     0.203 C 
ENDROOT
BRANCH   1  11
HETATM   11  N1  UNL     1      11.048  14.023  59.488  1.00  0.00    -0.331 N 
ATOM     12  H12 UNL     1      10.971  14.930  59.028  1.00  0.00     0.177 HD
ATOM     13  H11 UNL     1      10.216  13.625  59.925  1.00  0.00     0.177 HD
ENDBRANCH   1  11
BRANCH   4  14
HETATM   14  N4  UNL     1      13.826  16.033  61.043  1.00  0.00    -0.225 N 
HETATM   15  C2  UNL     1      12.881  16.574  61.992  1.00  0.00     0.416 C 
HETATM   16  O1  UNL     1      11.658  16.450  61.654  1.00  0.00    -0.228 OA
HETATM   17  N5  UNL     1      13.271  17.176  63.160  1.00  0.00    -0.311 NA
ATOM     18  H4  UNL     1      14.827  16.080  61.235  1.00  0.00     0.193 HD
BRANCH  17  19
HETATM   19  C3  UNL     1      13.649  17.763  64.297  1.00  0.00     0.310 C 
HETATM   20  N6  UNL     1      14.321  17.209  65.439  1.00  0.00    -0.042 NA
BRANCH  19  21
HETATM   21  O2  UNL     1      13.398  19.050  64.472  1.00  0.00    -0.324 OA
ATOM     22  H2  UNL     1      13.189  19.365  65.343  1.00  0.00     0.221 HD
ENDBRANCH  19  21
ENDBRANCH  17  19
ENDBRANCH   4  14
BRANCH  10  23
HETATM   23  C8  UNL     1      14.876  12.715  57.265  1.00  0.00     0.197 C 
HETATM   24  O3  UNL     1      13.795  12.172  56.993  1.00  0.00    -0.646 OA
HETATM   25  O4  UNL     1      15.577  13.326  56.208  1.00  0.00    -0.646 OA
ENDBRANCH  10  23
TORSDOF 5
ENDMDL
MODEL 2
REMARK VINA RESULT: -7.864944325      1.163      1.163
REMARK  5 active torsions:
REMARK  status: ('A' for Active; 'I' for Inactive)
REMARK    1  A    between atoms: N1_1  and  N2_4 
REMARK       I    between atoms: C1_6  and  N3_7 
REMARK       I    between atoms: C1_6  and  N7_18 
REMARK    2  A    between atoms: N3_7  and  N4_9 
REMARK       I    between atoms: N4_9  and  C2_11 
REMARK       I    between atoms: C2_11  and  N5_13 
REMARK    3  A    between atoms: N5_13  and  C3_14 
REMARK    4  A    between atoms: C3_14  and  O2_16 
REMARK    5  A    between atoms: C7_22  and  C8_23 
ROOT
HETATM    1  N2  UNL     1      12.366  13.288  59.440  1.00  0.00    -0.137 N 
ATOM      2  H2  UNL     1      12.378  12.300  59.189  1.00  0.00     0.205 HD
HETATM    3  C1  UNL     1      13.512  13.866  59.668  1.00  0.00     0.710 C 
HETATM    4  N3  UNL     1      13.504  15.249  60.023  1.00  0.00    -0.126 N 
ATOM      5  H3  UNL     1      13.132  15.920  59.351  1.00  0.00     0.206 HD
HETATM    6  N7  UNL     1      14.734  13.192  59.593  1.00  0.00    -0.200 N 
HETATM    7  C4  UNL     1      15.568  12.874  60.768  1.00  0.00     0.142 C 
HETATM    8  C5  UNL     1      16.133  11.501  60.485  1.00  0.00     0.023 C 
HETATM    9  C6  UNL     1      15.621  11.182  59.063  1.00  0.00     0.038 C 
HETATM   10  C7  UNL     1      15.505  12.608  58.511  1.00  0.00     0.203 C 
ENDROOT
BRANCH   1  11
HETATM   11  N1  UNL     1      11.141  13.911  59.513  1.00  0.00    -0.331 N 
ATOM     12  H12 UNL     1      11.150  14.907  59.732  1.00  0.00     0.177 HD
ATOM     13  H11 UNL     1      10.242  13.452  59.365  1.00  0.00     0.177 HD
ENDBRANCH   1  11
BRANCH   4  14
HETATM   14  N4  UNL     1      13.970  15.717  61.218  1.00  0.00    -0.225 N 
HETATM   15  C2  UNL     1      14.269  17.121  61.371  1.00  0.00     0.416 C 
HETATM   16  O1  UNL     1      14.052  17.828  60.332  1.00  0.00    -0.228 OA
HETATM   17  N5  UNL     1      14.751  17.650  62.541  1.00  0.00    -0.311 NA
ATOM     18  H4  UNL     1      14.105  15.077  62.001  1.00  0.00     0.193 HD
BRANCH  17  19
HETATM   19  C3  UNL     1      15.221  18.166  63.678  1.00  0.00     0.310 C 
HETATM   20  N6  UNL     1      15.386  17.554  64.967  1.00  0.00    -0.042 NA
BRANCH  19  21
HETATM   21  O2  UNL     1      15.612  19.429  63.698  1.00  0.00    -0.324 OA
ATOM     22  H2  UNL     1      15.984  19.784  64.497  1.00  0.00     0.221 HD
ENDBRANCH  19  21
ENDBRANCH  17  19
ENDBRANCH   4  14
BRANCH  10  23
HETATM   23  C8  UNL     1      14.933  12.691  57.181  1.00  0.00     0.197 C 
HETATM   24  O3  UNL     1      13.844  12.189  56.865  1.00  0.00    -0.646 OA
HETATM   25  O4  UNL     1      15.642  13.379  56.179  1.00  0.00    -0.646 OA
ENDBRANCH  10  23
TORSDOF 5
ENDMDL
MODEL 3
REMARK VINA RESULT: -7.362281933      2.871      6.996
REMARK  5 active torsions:
REMARK  status: ('A' for Active; 'I' for Inactive)
REMARK    1  A    between atoms: N1_1  and  N2_4 
REMARK       I    between atoms: C1_6  and  N3_7 
REMARK       I    between atoms: C1_6  and  N7_18 
REMARK    2  A    between atoms: N3_7  and  N4_9 
REMARK       I    between atoms: N4_9  and  C2_11 
REMARK       I    between atoms: C2_11  and  N5_13 
REMARK    3  A    between atoms: N5_13  and  C3_14 
REMARK    4  A    between atoms: C3_14  and  O2_16 
REMARK    5  A    between atoms: C7_22  and  C8_23 
ROOT
HETATM    1  N2  UNL     1      11.802  14.683  59.514  1.00  0.00    -0.137 N 
ATOM      2  H2  UNL     1      11.928  15.543  60.048  1.00  0.00     0.205 HD
HETATM    3  C1  UNL     1      12.774  13.816  59.530  1.00  0.00     0.710 C 
HETATM    4  N3  UNL     1      12.607  12.611  58.782  1.00  0.00    -0.126 N 
ATOM      5  H3  UNL     1      11.845  11.983  59.039  1.00  0.00     0.206 HD
HETATM    6  N7  UNL     1      13.967  14.020  60.229  1.00  0.00    -0.200 N 
HETATM    7  C4  UNL     1      15.267  14.267  59.577  1.00  0.00     0.142 C 
HETATM    8  C5  UNL     1      15.952  15.293  60.451  1.00  0.00     0.023 C 
HETATM    9  C6  UNL     1      14.973  15.478  61.631  1.00  0.00     0.038 C 
HETATM   10  C7  UNL     1      14.317  14.092  61.635  1.00  0.00     0.203 C 
ENDROOT
BRANCH   1  11
HETATM   11  N1  UNL     1      10.617  14.528  58.831  1.00  0.00    -0.331 N 
ATOM     12  H12 UNL     1      10.280  15.340  58.314  1.00  0.00     0.177 HD
ATOM     13  H11 UNL     1      10.064  13.670  58.806  1.00  0.00     0.177 HD
ENDBRANCH   1  11
BRANCH   4  14
HETATM   14  N4  UNL     1      13.415  12.259  57.740  1.00  0.00    -0.225 N 
HETATM   15  C2  UNL     1      13.352  10.920  57.203  1.00  0.00     0.416 C 
HETATM   16  O1  UNL     1      12.501  10.159  57.771  1.00  0.00    -0.228 OA
HETATM   17  N5  UNL     1      14.147  10.501  56.167  1.00  0.00    -0.311 NA
ATOM     18  H4  UNL     1      14.062  12.940  57.341  1.00  0.00     0.193 HD
BRANCH  17  19
HETATM   19  C3  UNL     1      14.920  10.092  55.160  1.00  0.00     0.310 C 
HETATM   20  N6  UNL     1      14.596   9.277  54.023  1.00  0.00    -0.042 NA
BRANCH  19  21
HETATM   21  O2  UNL     1      16.193  10.452  55.139  1.00  0.00    -0.324 OA
ATOM     22  H2  UNL     1      16.429  11.329  55.418  1.00  0.00     0.221 HD
ENDBRANCH  19  21
ENDBRANCH  17  19
ENDBRANCH   4  14
BRANCH  10  23
HETATM   23  C8  UNL     1      13.234  13.944  62.588  1.00  0.00     0.197 C 
HETATM   24  O3  UNL     1      13.125  12.984  63.366  1.00  0.00    -0.646 OA
HETATM   25  O4  UNL     1      12.241  14.940  62.648  1.00  0.00    -0.646 OA
ENDBRANCH  10  23
TORSDOF 5
ENDMDL
MODEL 4
REMARK VINA RESULT: -7.305042505      1.649      1.731
REMARK  5 active torsions:
REMARK  status: ('A' for Active; 'I' for Inactive)
REMARK    1  A    between atoms: N1_1  and  N2_4 
REMARK       I    between atoms: C1_6  and  N3_7 
REMARK       I    between atoms: C1_6  and  N7_18 
REMARK    2  A    between atoms: N3_7  and  N4_9 
REMARK       I    between atoms: N4_9  and  C2_11 
REMARK       I    between atoms: C2_11  and  N5_13 
REMARK    3  A    between atoms: N5_13  and  C3_14 
REMARK    4  A    between atoms: C3_14  and  O2_16 
REMARK    5  A    between atoms: C7_22  and  C8_23 
ROOT
HETATM    1  N2  UNL     1      12.373  12.937  60.953  1.00  0.00    -0.137 N 
ATOM      2  H2  UNL     1      12.437  11.921  61.019  1.00  0.00     0.205 HD
HETATM    3  C1  UNL     1      13.379  13.571  60.420  1.00  0.00     0.710 C 
HETATM    4  N3  UNL     1      13.299  14.993  60.327  1.00  0.00    -0.126 N 
ATOM      5  H3  UNL     1      12.553  15.401  59.762  1.00  0.00     0.206 HD
HETATM    6  N7  UNL     1      14.527  12.924  59.953  1.00  0.00    -0.200 N 
HETATM    7  C4  UNL     1      15.845  13.021  60.607  1.00  0.00     0.142 C 
HETATM    8  C5  UNL     1      16.444  11.639  60.486  1.00  0.00     0.023 C 
HETATM    9  C6  UNL     1      15.402  10.863  59.651  1.00  0.00     0.038 C 
HETATM   10  C7  UNL     1      14.805  12.025  58.848  1.00  0.00     0.203 C 
ENDROOT
BRANCH   1  11
HETATM   11  N1  UNL     1      11.230  13.535  61.435  1.00  0.00    -0.331 N 
ATOM     12  H12 UNL     1      11.362  14.338  62.049  1.00  0.00     0.177 HD
ATOM     13  H11 UNL     1      10.279  13.234  61.222  1.00  0.00     0.177 HD
ENDBRANCH   1  11
BRANCH   4  14
HETATM   14  N4  UNL     1      14.172  15.835  60.955  1.00  0.00    -0.225 N 
HETATM   15  C2  UNL     1      13.970  16.172  62.344  1.00  0.00     0.416 C 
HETATM   16  O1  UNL     1      12.955  15.619  62.884  1.00  0.00    -0.228 OA
HETATM   17  N5  UNL     1      14.802  17.022  63.026  1.00  0.00    -0.311 NA
ATOM     18  H4  UNL     1      14.964  16.225  60.444  1.00  0.00     0.193 HD
BRANCH  17  19
HETATM   19  C3  UNL     1      15.611  17.849  63.691  1.00  0.00     0.310 C 
HETATM   20  N6  UNL     1      15.801  19.265  63.544  1.00  0.00    -0.042 NA
BRANCH  19  21
HETATM   21  O2  UNL     1      16.388  17.361  64.643  1.00  0.00    -0.324 OA
ATOM     22  H2  UNL     1      16.148  17.501  65.552  1.00  0.00     0.221 HD
ENDBRANCH  19  21
ENDBRANCH  17  19
ENDBRANCH   4  14
BRANCH  10  23
HETATM   23  C8  UNL     1      13.684  11.658  58.004  1.00  0.00     0.197 C 
HETATM   24  O3  UNL     1      12.656  11.105  58.424  1.00  0.00    -0.646 OA
HETATM   25  O4  UNL     1      13.749  11.941  56.628  1.00  0.00    -0.646 OA
ENDBRANCH  10  23
TORSDOF 5
ENDMDL
MODEL 5
REMARK VINA RESULT: -7.243105264      1.758      1.918
REMARK  5 active torsions:
REMARK  status: ('A' for Active; 'I' for Inactive)
REMARK    1  A    between atoms: N1_1  and  N2_4 
REMARK       I    between atoms: C1_6  and  N3_7 
REMARK       I    between atoms: C1_6  and  N7_18 
REMARK    2  A    between atoms: N3_7  and  N4_9 
REMARK       I    between atoms: N4_9  and  C2_11 
REMARK       I    between atoms: C2_11  and  N5_13 
REMARK    3  A    between atoms: N5_13  and  C3_14 
REMARK    4  A    between atoms: C3_14  and  O2_16 
REMARK    5  A    between atoms: C7_22  and  C8_23 
ROOT
HETATM    1  N2  UNL     1      12.481  12.935  60.637  1.00  0.00    -0.137 N 
ATOM      2  H2  UNL     1      12.464  11.926  60.491  1.00  0.00     0.205 HD
HETATM    3  C1  UNL     1      13.603  13.559  60.408  1.00  0.00     0.710 C 
HETATM    4  N3  UNL     1      13.636  14.971  60.613  1.00  0.00    -0.126 N 
ATOM      5  H3  UNL     1      13.023  15.558  60.047  1.00  0.00     0.206 HD
HETATM    6  N7  UNL     1      14.765  12.907  59.988  1.00  0.00    -0.200 N 
HETATM    7  C4  UNL     1      15.961  12.735  60.835  1.00  0.00     0.142 C 
HETATM    8  C5  UNL     1      16.475  11.352  60.507  1.00  0.00     0.023 C 
HETATM    9  C6  UNL     1      15.536  10.871  59.379  1.00  0.00     0.038 C 
HETATM   10  C7  UNL     1      15.161  12.227  58.768  1.00  0.00     0.203 C 
ENDROOT
BRANCH   1  11
HETATM   11  N1  UNL     1      11.318  13.536  61.062  1.00  0.00    -0.331 N 
ATOM     12  H12 UNL     1      11.053  14.400  60.588  1.00  0.00     0.177 HD
ATOM     13  H11 UNL     1      10.714  13.182  61.805  1.00  0.00     0.177 HD
ENDBRANCH   1  11
BRANCH   4  14
HETATM   14  N4  UNL     1      14.448  15.575  61.531  1.00  0.00    -0.225 N 
HETATM   15  C2  UNL     1      14.655  17.003  61.475  1.00  0.00     0.416 C 
HETATM   16  O1  UNL     1      14.025  17.596  60.538  1.00  0.00    -0.228 OA
HETATM   17  N5  UNL     1      15.468  17.666  62.358  1.00  0.00    -0.311 NA
ATOM     18  H4  UNL     1      14.905  15.019  62.253  1.00  0.00     0.193 HD
BRANCH  17  19
HETATM   19  C3  UNL     1      16.260  18.311  63.217  1.00  0.00     0.310 C 
HETATM   20  N6  UNL     1      17.453  17.867  63.881  1.00  0.00    -0.042 NA
BRANCH  19  21
HETATM   21  O2  UNL     1      15.960  19.554  63.557  1.00  0.00    -0.324 OA
ATOM     22  H2  UNL     1      16.156  20.258  62.952  1.00  0.00     0.221 HD
ENDBRANCH  19  21
ENDBRANCH  17  19
ENDBRANCH   4  14
BRANCH  10  23
HETATM   23  C8  UNL     1      14.173  12.154  57.709  1.00  0.00     0.197 C 
HETATM   24  O3  UNL     1      14.329  12.655  56.584  1.00  0.00    -0.646 OA
HETATM   25  O4  UNL     1      12.963  11.479  57.953  1.00  0.00    -0.646 OA
ENDBRANCH  10  23
TORSDOF 5
ENDMDL
