MODEL 1
REMARK VINA RESULT: -4.979445395      0.000      0.000
REMARK  6 active torsions:
REMARK  status: ('A' for Active; 'I' for Inactive)
REMARK    1  A    between atoms: O1_1  and  C1_3 
REMARK    2  A    between atoms: C1_3  and  C2_4 
REMARK    3  A    between atoms: C2_4  and  C3_5 
REMARK    4  A    between atoms: C3_5  and  C4_6 
REMARK    5  A    between atoms: C4_6  and  N1_7 
REMARK    6  A    between atoms: N1_7  and  C5_10 
ROOT
HETATM    1  C5  UNL     1     -34.245  18.443 -25.721  1.00  0.00     0.216 C 
HETATM    2  C6  UNL     1     -33.272  17.529 -26.282  1.00  0.00     0.004 C 
HETATM    3  C7  UNL     1     -33.246  16.884 -27.427  1.00  0.00    -0.007 C 
HETATM    4  C8  UNL     1     -34.224  16.903 -28.526  1.00  0.00     0.109 C 
HETATM    5  C9  UNL     1     -35.228  15.773 -28.255  1.00  0.00     0.027 C 
HETATM    6  C10 UNL     1     -36.089  16.388 -27.163  1.00  0.00     0.024 C 
HETATM    7  C11 UNL     1     -35.988  17.815 -27.437  1.00  0.00     0.095 C 
HETATM    8  C12 UNL     1     -35.483  18.749 -26.415  1.00  0.00     0.066 C 
HETATM    9  C13 UNL     1     -35.250  19.933 -27.384  1.00  0.00     0.202 C 
HETATM   10  O2  UNL     1     -34.453  19.226 -28.323  1.00  0.00    -0.302 OA
HETATM   11  N2  UNL     1     -35.082  18.074 -28.537  1.00  0.00    -0.184 NA
ENDROOT
BRANCH   1  12
HETATM   12  N1  UNL     1     -33.565  19.684 -25.373  1.00  0.00    -0.067 N 
ATOM     13  H12 UNL     1     -34.228  20.456 -25.305  1.00  0.00     0.277 HD
ATOM     14  H11 UNL     1     -32.998  20.019 -26.152  1.00  0.00     0.277 HD
BRANCH  12  15
HETATM   15  C4  UNL     1     -32.766  19.575 -24.157  1.00  0.00     0.233 C 
BRANCH  15  16
HETATM   16  C3  UNL     1     -33.727  19.981 -23.046  1.00  0.00     0.029 C 
BRANCH  16  17
HETATM   17  C2  UNL     1     -33.196  19.739 -21.674  1.00  0.00     0.028 C 
BRANCH  17  18
HETATM   18  C1  UNL     1     -31.850  19.088 -21.606  1.00  0.00     0.164 C 
BRANCH  18  19
HETATM   19  O1  UNL     1     -30.976  19.999 -21.033  1.00  0.00    -0.401 OA
ATOM     20  H1  UNL     1     -30.108  19.614 -21.054  1.00  0.00     0.209 HD
ENDBRANCH  18  19
ENDBRANCH  17  18
ENDBRANCH  16  17
ENDBRANCH  15  16
ENDBRANCH  12  15
ENDBRANCH   1  12
TORSDOF 6
ENDMDL
MODEL 2
REMARK VINA RESULT: -4.954483797      1.901      2.302
REMARK  6 active torsions:
REMARK  status: ('A' for Active; 'I' for Inactive)
REMARK    1  A    between atoms: O1_1  and  C1_3 
REMARK    2  A    between atoms: C1_3  and  C2_4 
REMARK    3  A    between atoms: C2_4  and  C3_5 
REMARK    4  A    between atoms: C3_5  and  C4_6 
REMARK    5  A    between atoms: C4_6  and  N1_7 
REMARK    6  A    between atoms: N1_7  and  C5_10 
ROOT
HETATM    1  C5  UNL     1     -34.269  18.475 -25.674  1.00  0.00     0.216 C 
HETATM    2  C6  UNL     1     -33.274  17.588 -26.241  1.00  0.00     0.004 C 
HETATM    3  C7  UNL     1     -33.234  16.952 -27.391  1.00  0.00    -0.007 C 
HETATM    4  C8  UNL     1     -34.213  16.955 -28.490  1.00  0.00     0.109 C 
HETATM    5  C9  UNL     1     -35.190  15.800 -28.226  1.00  0.00     0.027 C 
HETATM    6  C10 UNL     1     -36.065  16.387 -27.129  1.00  0.00     0.024 C 
HETATM    7  C11 UNL     1     -35.998  17.817 -27.393  1.00  0.00     0.095 C 
HETATM    8  C12 UNL     1     -35.514  18.756 -26.365  1.00  0.00     0.066 C 
HETATM    9  C13 UNL     1     -35.310  19.952 -27.325  1.00  0.00     0.202 C 
HETATM   10  O2  UNL     1     -34.497  19.271 -28.270  1.00  0.00    -0.302 OA
HETATM   11  N2  UNL     1     -35.099  18.106 -28.492  1.00  0.00    -0.184 NA
ENDROOT
BRANCH   1  12
HETATM   12  N1  UNL     1     -33.618  19.729 -25.318  1.00  0.00    -0.067 N 
ATOM     13  H12 UNL     1     -34.200  20.527 -25.573  1.00  0.00     0.277 HD
ATOM     14  H11 UNL     1     -32.816  19.908 -25.922  1.00  0.00     0.277 HD
BRANCH  12  15
HETATM   15  C4  UNL     1     -33.235  19.794 -23.911  1.00  0.00     0.233 C 
BRANCH  15  16
HETATM   16  C3  UNL     1     -34.355  20.596 -23.259  1.00  0.00     0.029 C 
BRANCH  16  17
HETATM   17  C2  UNL     1     -34.760  21.803 -24.034  1.00  0.00     0.028 C 
BRANCH  17  18
HETATM   18  C1  UNL     1     -35.147  22.996 -23.220  1.00  0.00     0.164 C 
BRANCH  18  19
HETATM   19  O1  UNL     1     -35.892  23.833 -24.036  1.00  0.00    -0.401 OA
ATOM     20  H1  UNL     1     -36.168  24.575 -23.509  1.00  0.00     0.209 HD
ENDBRANCH  18  19
ENDBRANCH  17  18
ENDBRANCH  16  17
ENDBRANCH  15  16
ENDBRANCH  12  15
ENDBRANCH   1  12
TORSDOF 6
ENDMDL
MODEL 3
REMARK VINA RESULT: -3.863037699      1.902      2.922
REMARK  6 active torsions:
REMARK  status: ('A' for Active; 'I' for Inactive)
REMARK    1  A    between atoms: O1_1  and  C1_3 
REMARK    2  A    between atoms: C1_3  and  C2_4 
REMARK    3  A    between atoms: C2_4  and  C3_5 
REMARK    4  A    between atoms: C3_5  and  C4_6 
REMARK    5  A    between atoms: C4_6  and  N1_7 
REMARK    6  A    between atoms: N1_7  and  C5_10 
ROOT
HETATM    1  C5  UNL     1     -34.570  19.617 -23.807  1.00  0.00     0.216 C 
HETATM    2  C6  UNL     1     -35.399  18.467 -24.100  1.00  0.00     0.004 C 
HETATM    3  C7  UNL     1     -35.484  17.709 -25.171  1.00  0.00    -0.007 C 
HETATM    4  C8  UNL     1     -34.733  17.797 -26.433  1.00  0.00     0.109 C 
HETATM    5  C9  UNL     1     -35.539  18.702 -27.376  1.00  0.00     0.027 C 
HETATM    6  C10 UNL     1     -35.221  20.080 -26.818  1.00  0.00     0.024 C 
HETATM    7  C11 UNL     1     -33.904  19.895 -26.227  1.00  0.00     0.095 C 
HETATM    8  C12 UNL     1     -33.666  20.172 -24.799  1.00  0.00     0.066 C 
HETATM    9  C13 UNL     1     -32.304  19.441 -24.719  1.00  0.00     0.202 C 
HETATM   10  O2  UNL     1     -32.747  18.204 -25.258  1.00  0.00    -0.302 OA
HETATM   11  N2  UNL     1     -33.475  18.514 -26.327  1.00  0.00    -0.184 NA
ENDROOT
BRANCH   1  12
HETATM   12  N1  UNL     1     -33.835  19.354 -22.576  1.00  0.00    -0.067 N 
ATOM     13  H12 UNL     1     -32.966  18.858 -22.770  1.00  0.00     0.277 HD
ATOM     14  H11 UNL     1     -34.309  18.648 -22.013  1.00  0.00     0.277 HD
BRANCH  12  15
HETATM   15  C4  UNL     1     -33.583  20.560 -21.793  1.00  0.00     0.233 C 
BRANCH  15  16
HETATM   16  C3  UNL     1     -32.408  20.181 -20.899  1.00  0.00     0.029 C 
BRANCH  16  17
HETATM   17  C2  UNL     1     -31.846  18.830 -21.186  1.00  0.00     0.028 C 
BRANCH  17  18
HETATM   18  C1  UNL     1     -30.439  18.809 -21.695  1.00  0.00     0.164 C 
BRANCH  18  19
HETATM   19  O1  UNL     1     -30.185  17.530 -22.164  1.00  0.00    -0.401 OA
ATOM     20  H1  UNL     1     -29.671  17.614 -22.959  1.00  0.00     0.209 HD
ENDBRANCH  18  19
ENDBRANCH  17  18
ENDBRANCH  16  17
ENDBRANCH  15  16
ENDBRANCH  12  15
ENDBRANCH   1  12
TORSDOF 6
ENDMDL
MODEL 4
REMARK VINA RESULT: -3.776309317      1.956      5.974
REMARK  6 active torsions:
REMARK  status: ('A' for Active; 'I' for Inactive)
REMARK    1  A    between atoms: O1_1  and  C1_3 
REMARK    2  A    between atoms: C1_3  and  C2_4 
REMARK    3  A    between atoms: C2_4  and  C3_5 
REMARK    4  A    between atoms: C3_5  and  C4_6 
REMARK    5  A    between atoms: C4_6  and  N1_7 
REMARK    6  A    between atoms: N1_7  and  C5_10 
ROOT
HETATM    1  C5  UNL     1     -33.250  19.711 -24.860  1.00  0.00     0.216 C 
HETATM    2  C6  UNL     1     -32.145  19.441 -23.965  1.00  0.00     0.004 C 
HETATM    3  C7  UNL     1     -32.092  19.348 -22.655  1.00  0.00    -0.007 C 
HETATM    4  C8  UNL     1     -33.177  19.485 -21.670  1.00  0.00     0.109 C 
HETATM    5  C9  UNL     1     -33.233  20.965 -21.263  1.00  0.00     0.027 C 
HETATM    6  C10 UNL     1     -33.928  21.583 -22.466  1.00  0.00     0.024 C 
HETATM    7  C11 UNL     1     -34.737  20.485 -22.972  1.00  0.00     0.095 C 
HETATM    8  C12 UNL     1     -34.580  20.001 -24.356  1.00  0.00     0.066 C 
HETATM    9  C13 UNL     1     -35.353  18.676 -24.150  1.00  0.00     0.202 C 
HETATM   10  O2  UNL     1     -34.610  18.223 -23.027  1.00  0.00    -0.302 OA
HETATM   11  N2  UNL     1     -34.505  19.271 -22.216  1.00  0.00    -0.184 NA
ENDROOT
BRANCH   1  12
HETATM   12  N1  UNL     1     -33.328  18.630 -25.836  1.00  0.00    -0.067 N 
ATOM     13  H12 UNL     1     -33.958  17.895 -25.516  1.00  0.00     0.277 HD
ATOM     14  H11 UNL     1     -32.456  18.102 -25.864  1.00  0.00     0.277 HD
BRANCH  12  15
HETATM   15  C4  UNL     1     -33.700  19.091 -27.169  1.00  0.00     0.233 C 
BRANCH  15  16
HETATM   16  C3  UNL     1     -34.734  18.073 -27.637  1.00  0.00     0.029 C 
BRANCH  16  17
HETATM   17  C2  UNL     1     -34.245  16.665 -27.612  1.00  0.00     0.028 C 
BRANCH  17  18
HETATM   18  C1  UNL     1     -35.106  15.667 -28.319  1.00  0.00     0.164 C 
BRANCH  18  19
HETATM   19  O1  UNL     1     -35.648  16.297 -29.429  1.00  0.00    -0.401 OA
ATOM     20  H1  UNL     1     -35.171  15.993 -30.192  1.00  0.00     0.209 HD
ENDBRANCH  18  19
ENDBRANCH  17  18
ENDBRANCH  16  17
ENDBRANCH  15  16
ENDBRANCH  12  15
ENDBRANCH   1  12
TORSDOF 6
ENDMDL
MODEL 5
REMARK VINA RESULT: -3.724239580      2.671      3.655
REMARK  6 active torsions:
REMARK  status: ('A' for Active; 'I' for Inactive)
REMARK    1  A    between atoms: O1_1  and  C1_3 
REMARK    2  A    between atoms: C1_3  and  C2_4 
REMARK    3  A    between atoms: C2_4  and  C3_5 
REMARK    4  A    between atoms: C3_5  and  C4_6 
REMARK    5  A    between atoms: C4_6  and  N1_7 
REMARK    6  A    between atoms: N1_7  and  C5_10 
ROOT
HETATM    1  C5  UNL     1     -34.420  20.163 -23.958  1.00  0.00     0.216 C 
HETATM    2  C6  UNL     1     -35.276  18.998 -23.884  1.00  0.00     0.004 C 
HETATM    3  C7  UNL     1     -35.441  17.988 -24.709  1.00  0.00    -0.007 C 
HETATM    4  C8  UNL     1     -34.776  17.721 -25.995  1.00  0.00     0.109 C 
HETATM    5  C9  UNL     1     -35.637  18.368 -27.090  1.00  0.00     0.027 C 
HETATM    6  C10 UNL     1     -35.271  19.836 -26.936  1.00  0.00     0.024 C 
HETATM    7  C11 UNL     1     -33.918  19.778 -26.402  1.00  0.00     0.095 C 
HETATM    8  C12 UNL     1     -33.581  20.414 -25.116  1.00  0.00     0.066 C 
HETATM    9  C13 UNL     1     -32.223  19.695 -24.933  1.00  0.00     0.202 C 
HETATM   10  O2  UNL     1     -32.712  18.371 -25.097  1.00  0.00    -0.302 OA
HETATM   11  N2  UNL     1     -33.508  18.408 -26.161  1.00  0.00    -0.184 NA
ENDROOT
BRANCH   1  12
HETATM   12  N1  UNL     1     -33.605  20.213 -22.750  1.00  0.00    -0.067 N 
ATOM     13  H12 UNL     1     -32.629  20.400 -22.977  1.00  0.00     0.277 HD
ATOM     14  H11 UNL     1     -33.507  19.285 -22.338  1.00  0.00     0.277 HD
BRANCH  12  15
HETATM   15  C4  UNL     1     -34.102  21.169 -21.766  1.00  0.00     0.233 C 
BRANCH  15  16
HETATM   16  C3  UNL     1     -34.698  22.291 -22.609  1.00  0.00     0.029 C 
BRANCH  16  17
HETATM   17  C2  UNL     1     -35.754  23.074 -21.906  1.00  0.00     0.028 C 
BRANCH  17  18
HETATM   18  C1  UNL     1     -35.345  23.692 -20.606  1.00  0.00     0.164 C 
BRANCH  18  19
HETATM   19  O1  UNL     1     -36.027  23.029 -19.597  1.00  0.00    -0.401 OA
ATOM     20  H1  UNL     1     -36.598  22.391 -20.009  1.00  0.00     0.209 HD
ENDBRANCH  18  19
ENDBRANCH  17  18
ENDBRANCH  16  17
ENDBRANCH  15  16
ENDBRANCH  12  15
ENDBRANCH   1  12
TORSDOF 6
ENDMDL
