MODEL 1
REMARK VINA RESULT: -5.730330012      0.000      0.000
REMARK  6 active torsions:
REMARK  status: ('A' for Active; 'I' for Inactive)
REMARK    1  A    between atoms: C2_2  and  C3_3 
REMARK    2  A    between atoms: C3_3  and  C4_4 
REMARK    3  A    between atoms: C4_4  and  O1_5 
REMARK    4  A    between atoms: C4_4  and  C5_7 
REMARK    5  A    between atoms: C7_12  and  C8_13 
REMARK    6  A    between atoms: C11_17  and  O2_18 
ROOT
HETATM    1  C5  UNL     1     -33.264  20.082 -24.156  1.00  0.00     0.179 C 
HETATM    2  C6  UNL     1     -34.369  21.126 -24.006  1.00  0.00     0.267 C 
HETATM    3  N1  UNL     1     -34.882  21.212 -22.680  1.00  0.00    -0.067 N 
ATOM      4  H11 UNL     1     -35.164  20.290 -22.348  1.00  0.00     0.277 HD
ATOM      5  H12 UNL     1     -35.787  21.682 -22.679  1.00  0.00     0.277 HD
HETATM    6  C7  UNL     1     -33.996  21.831 -21.743  1.00  0.00     0.205 C 
HETATM    7  C10 UNL     1     -33.288  20.740 -20.983  1.00  0.00     0.094 C 
HETATM    8  C11 UNL     1     -32.859  19.613 -21.885  1.00  0.00     0.259 C 
HETATM    9  O3  UNL     1     -32.455  19.952 -23.111  1.00  0.00    -0.352 OA
ENDROOT
BRANCH   1  10
HETATM   10  C4  UNL     1     -33.803  18.829 -24.802  1.00  0.00     0.148 C 
BRANCH  10  11
HETATM   11  C3  UNL     1     -34.142  18.987 -26.266  1.00  0.00     0.034 C 
BRANCH  11  12
HETATM   12  C2  UNL     1     -34.858  17.840 -26.878  1.00  0.00    -0.002 C 
HETATM   13  C1  UNL     1     -33.772  16.901 -27.429  1.00  0.00     0.005 C 
ENDBRANCH  11  12
ENDBRANCH  10  11
BRANCH  10  14
HETATM   14  O1  UNL     1     -35.048  18.491 -24.202  1.00  0.00    -0.393 OA
ATOM     15  H1  UNL     1     -34.829  17.777 -23.615  1.00  0.00     0.210 HD
ENDBRANCH  10  14
ENDBRANCH   1  10
BRANCH   8  16
HETATM   16  O2  UNL     1     -33.814  18.613 -21.789  1.00  0.00    -0.371 OA
ATOM     17  H2  UNL     1     -33.691  18.178 -20.954  1.00  0.00     0.212 HD
ENDBRANCH   8  16
BRANCH   6  18
HETATM   18  C8  UNL     1     -34.777  22.705 -20.831  1.00  0.00     0.087 A 
HETATM   19  C9  UNL     1     -34.781  24.199 -20.979  1.00  0.00     0.091 A 
HETATM   20  S1  UNL     1     -36.298  23.395 -21.543  1.00  0.00    -0.160 SA
ENDBRANCH   6  18
TORSDOF 6
ENDMDL
MODEL 2
REMARK VINA RESULT: -5.677781090      0.923      1.029
REMARK  6 active torsions:
REMARK  status: ('A' for Active; 'I' for Inactive)
REMARK    1  A    between atoms: C2_2  and  C3_3 
REMARK    2  A    between atoms: C3_3  and  C4_4 
REMARK    3  A    between atoms: C4_4  and  O1_5 
REMARK    4  A    between atoms: C4_4  and  C5_7 
REMARK    5  A    between atoms: C7_12  and  C8_13 
REMARK    6  A    between atoms: C11_17  and  O2_18 
ROOT
HETATM    1  C5  UNL     1     -33.340  19.923 -24.709  1.00  0.00     0.179 C 
HETATM    2  C6  UNL     1     -34.496  20.919 -24.784  1.00  0.00     0.267 C 
HETATM    3  N1  UNL     1     -35.117  21.152 -23.524  1.00  0.00    -0.067 N 
ATOM      4  H11 UNL     1     -35.386  20.269 -23.091  1.00  0.00     0.277 HD
ATOM      5  H12 UNL     1     -36.037  21.572 -23.653  1.00  0.00     0.277 HD
HETATM    6  C7  UNL     1     -34.334  21.935 -22.616  1.00  0.00     0.205 C 
HETATM    7  C10 UNL     1     -33.645  20.991 -21.665  1.00  0.00     0.094 C 
HETATM    8  C11 UNL     1     -33.099  19.779 -22.372  1.00  0.00     0.259 C 
HETATM    9  O3  UNL     1     -32.613  19.974 -23.599  1.00  0.00    -0.352 OA
ENDROOT
BRANCH   1  10
HETATM   10  C4  UNL     1     -33.774  18.569 -25.217  1.00  0.00     0.148 C 
BRANCH  10  11
HETATM   11  C3  UNL     1     -33.944  18.500 -26.717  1.00  0.00     0.034 C 
BRANCH  11  12
HETATM   12  C2  UNL     1     -33.608  17.192 -27.332  1.00  0.00    -0.002 C 
HETATM   13  C1  UNL     1     -34.943  16.572 -27.778  1.00  0.00     0.005 C 
ENDBRANCH  11  12
ENDBRANCH  10  11
BRANCH  10  14
HETATM   14  O1  UNL     1     -35.072  18.275 -24.716  1.00  0.00    -0.393 OA
ATOM     15  H1  UNL     1     -35.367  19.103 -24.354  1.00  0.00     0.210 HD
ENDBRANCH  10  14
ENDBRANCH   1  10
BRANCH   8  16
HETATM   16  O2  UNL     1     -34.018  18.752 -22.212  1.00  0.00    -0.371 OA
ATOM     17  H2  UNL     1     -34.172  18.370 -23.069  1.00  0.00     0.212 HD
ENDBRANCH   8  16
BRANCH   6  18
HETATM   18  C8  UNL     1     -35.222  22.880 -21.891  1.00  0.00     0.087 A 
HETATM   19  C9  UNL     1     -35.207  22.987 -20.394  1.00  0.00     0.091 A 
HETATM   20  S1  UNL     1     -34.399  24.363 -21.243  1.00  0.00    -0.160 SA
ENDBRANCH   6  18
TORSDOF 6
ENDMDL
MODEL 3
REMARK VINA RESULT: -4.795284189      3.290      4.969
REMARK  6 active torsions:
REMARK  status: ('A' for Active; 'I' for Inactive)
REMARK    1  A    between atoms: C2_2  and  C3_3 
REMARK    2  A    between atoms: C3_3  and  C4_4 
REMARK    3  A    between atoms: C4_4  and  O1_5 
REMARK    4  A    between atoms: C4_4  and  C5_7 
REMARK    5  A    between atoms: C7_12  and  C8_13 
REMARK    6  A    between atoms: C11_17  and  O2_18 
ROOT
HETATM    1  C5  UNL     1     -35.499  17.531 -27.952  1.00  0.00     0.179 C 
HETATM    2  C6  UNL     1     -36.075  17.452 -26.539  1.00  0.00     0.267 C 
HETATM    3  N1  UNL     1     -35.109  17.711 -25.526  1.00  0.00    -0.067 N 
ATOM      4  H11 UNL     1     -34.292  17.114 -25.652  1.00  0.00     0.277 HD
ATOM      5  H12 UNL     1     -35.438  17.368 -24.624  1.00  0.00     0.277 HD
HETATM    6  C7  UNL     1     -34.714  19.083 -25.424  1.00  0.00     0.205 C 
HETATM    7  C10 UNL     1     -33.412  19.247 -26.164  1.00  0.00     0.094 C 
HETATM    8  C11 UNL     1     -33.407  18.495 -27.468  1.00  0.00     0.259 C 
HETATM    9  O3  UNL     1     -34.561  18.453 -28.135  1.00  0.00    -0.352 OA
ENDROOT
BRANCH   1  10
HETATM   10  C4  UNL     1     -35.258  16.148 -28.505  1.00  0.00     0.148 C 
BRANCH  10  11
HETATM   11  C3  UNL     1     -36.321  15.141 -28.130  1.00  0.00     0.034 C 
BRANCH  11  12
HETATM   12  C2  UNL     1     -36.161  13.796 -28.737  1.00  0.00    -0.002 C 
HETATM   13  C1  UNL     1     -37.267  12.917 -28.128  1.00  0.00     0.005 C 
ENDBRANCH  11  12
ENDBRANCH  10  11
BRANCH  10  14
HETATM   14  O1  UNL     1     -34.071  15.614 -27.930  1.00  0.00    -0.393 OA
ATOM     15  H1  UNL     1     -33.531  15.404 -28.683  1.00  0.00     0.210 HD
ENDBRANCH  10  14
ENDBRANCH   1  10
BRANCH   8  16
HETATM   16  O2  UNL     1     -32.758  17.289 -27.253  1.00  0.00    -0.371 OA
ATOM     17  H2  UNL     1     -32.589  16.899 -28.103  1.00  0.00     0.212 HD
ENDBRANCH   8  16
BRANCH   6  18
HETATM   18  C8  UNL     1     -34.571  19.449 -23.991  1.00  0.00     0.087 A 
HETATM   19  C9  UNL     1     -33.285  19.992 -23.438  1.00  0.00     0.091 A 
HETATM   20  S1  UNL     1     -34.583  21.231 -23.647  1.00  0.00    -0.160 SA
ENDBRANCH   6  18
TORSDOF 6
ENDMDL
MODEL 4
REMARK VINA RESULT: -4.626082001      4.456      7.608
REMARK  6 active torsions:
REMARK  status: ('A' for Active; 'I' for Inactive)
REMARK    1  A    between atoms: C2_2  and  C3_3 
REMARK    2  A    between atoms: C3_3  and  C4_4 
REMARK    3  A    between atoms: C4_4  and  O1_5 
REMARK    4  A    between atoms: C4_4  and  C5_7 
REMARK    5  A    between atoms: C7_12  and  C8_13 
REMARK    6  A    between atoms: C11_17  and  O2_18 
ROOT
HETATM    1  C5  UNL     1     -34.454  17.744 -26.615  1.00  0.00     0.179 C 
HETATM    2  C6  UNL     1     -35.829  17.122 -26.376  1.00  0.00     0.267 C 
HETATM    3  N1  UNL     1     -36.415  16.586 -27.558  1.00  0.00    -0.067 N 
ATOM      4  H11 UNL     1     -36.423  17.286 -28.300  1.00  0.00     0.277 HD
ATOM      5  H12 UNL     1     -37.418  16.456 -27.431  1.00  0.00     0.277 HD
HETATM    6  C7  UNL     1     -35.808  15.375 -28.021  1.00  0.00     0.205 C 
HETATM    7  C10 UNL     1     -34.845  15.730 -29.123  1.00  0.00     0.094 C 
HETATM    8  C11 UNL     1     -34.049  16.965 -28.799  1.00  0.00     0.259 C 
HETATM    9  O3  UNL     1     -33.701  17.132 -27.522  1.00  0.00    -0.352 OA
ENDROOT
BRANCH   1  10
HETATM   10  C4  UNL     1     -34.554  19.249 -26.668  1.00  0.00     0.148 C 
BRANCH  10  11
HETATM   11  C3  UNL     1     -34.538  19.915 -25.312  1.00  0.00     0.034 C 
BRANCH  11  12
HETATM   12  C2  UNL     1     -33.271  19.773 -24.552  1.00  0.00    -0.002 C 
HETATM   13  C1  UNL     1     -33.637  19.958 -23.070  1.00  0.00     0.005 C 
ENDBRANCH  11  12
ENDBRANCH  10  11
BRANCH  10  14
HETATM   14  O1  UNL     1     -35.817  19.615 -27.209  1.00  0.00    -0.393 OA
ATOM     15  H1  UNL     1     -36.442  19.201 -26.625  1.00  0.00     0.210 HD
ENDBRANCH  10  14
ENDBRANCH   1  10
BRANCH   8  16
HETATM   16  O2  UNL     1     -34.661  18.037 -29.432  1.00  0.00    -0.371 OA
ATOM     17  H2  UNL     1     -34.344  18.061 -30.327  1.00  0.00     0.212 HD
ENDBRANCH   8  16
BRANCH   6  18
HETATM   18  C8  UNL     1     -36.865  14.448 -28.502  1.00  0.00     0.087 A 
HETATM   19  C9  UNL     1     -36.545  13.054 -28.956  1.00  0.00     0.091 A 
HETATM   20  S1  UNL     1     -37.333  13.142 -27.332  1.00  0.00    -0.160 SA
ENDBRANCH   6  18
TORSDOF 6
ENDMDL
MODEL 5
REMARK VINA RESULT: -4.603601418      3.174      6.618
REMARK  6 active torsions:
REMARK  status: ('A' for Active; 'I' for Inactive)
REMARK    1  A    between atoms: C2_2  and  C3_3 
REMARK    2  A    between atoms: C3_3  and  C4_4 
REMARK    3  A    between atoms: C4_4  and  O1_5 
REMARK    4  A    between atoms: C4_4  and  C5_7 
REMARK    5  A    between atoms: C7_12  and  C8_13 
REMARK    6  A    between atoms: C11_17  and  O2_18 
ROOT
HETATM    1  C5  UNL     1     -34.320  23.841 -21.529  1.00  0.00     0.179 C 
HETATM    2  C6  UNL     1     -34.062  22.369 -21.216  1.00  0.00     0.267 C 
HETATM    3  N1  UNL     1     -34.811  21.481 -22.039  1.00  0.00    -0.067 N 
ATOM      4  H11 UNL     1     -35.802  21.721 -22.011  1.00  0.00     0.277 HD
ATOM      5  H12 UNL     1     -34.845  20.551 -21.622  1.00  0.00     0.277 HD
HETATM    6  C7  UNL     1     -34.354  21.404 -23.393  1.00  0.00     0.205 C 
HETATM    7  C10 UNL     1     -35.229  22.300 -24.230  1.00  0.00     0.094 C 
HETATM    8  C11 UNL     1     -35.516  23.608 -23.543  1.00  0.00     0.259 C 
HETATM    9  O3  UNL     1     -34.529  24.124 -22.810  1.00  0.00    -0.352 OA
ENDROOT
BRANCH   1  10
HETATM   10  C4  UNL     1     -35.248  24.446 -20.504  1.00  0.00     0.148 C 
BRANCH  10  11
HETATM   11  C3  UNL     1     -34.727  25.719 -19.877  1.00  0.00     0.034 C 
BRANCH  11  12
HETATM   12  C2  UNL     1     -33.429  26.202 -20.411  1.00  0.00    -0.002 C 
HETATM   13  C1  UNL     1     -32.991  27.356 -19.494  1.00  0.00     0.005 C 
ENDBRANCH  11  12
ENDBRANCH  10  11
BRANCH  10  14
HETATM   14  O1  UNL     1     -35.375  23.555 -19.403  1.00  0.00    -0.393 OA
ATOM     15  H1  UNL     1     -34.840  22.810 -19.653  1.00  0.00     0.210 HD
ENDBRANCH  10  14
ENDBRANCH   1  10
BRANCH   8  16
HETATM   16  O2  UNL     1     -36.761  23.500 -22.940  1.00  0.00    -0.371 OA
ATOM     17  H2  UNL     1     -36.979  24.351 -22.580  1.00  0.00     0.212 HD
ENDBRANCH   8  16
BRANCH   6  18
HETATM   18  C8  UNL     1     -34.423  19.993 -23.856  1.00  0.00     0.087 A 
HETATM   19  C9  UNL     1     -34.465  19.643 -25.315  1.00  0.00     0.091 A 
HETATM   20  S1  UNL     1     -32.872  19.326 -24.522  1.00  0.00    -0.160 SA
ENDBRANCH   6  18
TORSDOF 6
ENDMDL
