MODEL 1
REMARK VINA RESULT: -5.841536199      0.000      0.000
REMARK  5 active torsions:
REMARK  status: ('A' for Active; 'I' for Inactive)
REMARK    1  A    between atoms: N2_3  and  C2_5 
REMARK    2  A    between atoms: C2_5  and  C3_6 
REMARK    3  A    between atoms: C3_6  and  N3_7 
REMARK    4  A    between atoms: N3_7  and  C4_9 
REMARK    5  A    between atoms: C12_18  and  O2_19 
ROOT
HETATM    1  N1  UNL     1     -35.185  22.746 -22.076  1.00  0.00    -0.172 NA
HETATM    2  C1  UNL     1     -34.679  22.067 -22.877  1.00  0.00     0.178 C 
HETATM    3  N2  UNL     1     -34.088  21.240 -23.855  1.00  0.00    -0.312 N 
ATOM      4  H2  UNL     1     -33.878  21.574 -24.796  1.00  0.00     0.172 HD
ENDROOT
BRANCH   3   5
HETATM    5  C2  UNL     1     -33.799  19.884 -23.434  1.00  0.00     0.106 C 
HETATM    6  C10 UNL     1     -33.584  19.819 -21.970  1.00  0.00     0.065 C 
HETATM    7  C11 UNL     1     -32.183  19.276 -21.835  1.00  0.00     0.173 C 
HETATM    8  O1  UNL     1     -31.564  19.318 -23.058  1.00  0.00    -0.359 OA
HETATM    9  C12 UNL     1     -32.485  19.443 -24.044  1.00  0.00     0.287 C 
BRANCH   5  10
HETATM   10  C3  UNL     1     -34.877  18.919 -23.904  1.00  0.00     0.151 C 
BRANCH  10  11
HETATM   11  N3  UNL     1     -35.156  19.179 -25.271  1.00  0.00    -0.414 N 
ATOM     12  H3  UNL     1     -35.517  20.078 -25.590  1.00  0.00     0.153 HD
BRANCH  11  13
HETATM   13  C4  UNL     1     -34.898  18.105 -26.165  1.00  0.00     0.076 C 
HETATM   14  C5  UNL     1     -33.972  18.474 -27.318  1.00  0.00     0.024 C 
HETATM   15  C6  UNL     1     -33.499  17.159 -27.918  1.00  0.00     0.002 C 
HETATM   16  C7  UNL     1     -34.504  16.061 -27.718  1.00  0.00     0.000 C 
HETATM   17  C8  UNL     1     -35.936  16.529 -27.736  1.00  0.00     0.002 C 
HETATM   18  C9  UNL     1     -36.204  17.690 -26.831  1.00  0.00     0.024 C 
ENDBRANCH  11  13
ENDBRANCH  10  11
ENDBRANCH   5  10
BRANCH   9  19
HETATM   19  O2  UNL     1     -32.033  20.440 -24.930  1.00  0.00    -0.369 OA
ATOM     20  H2  UNL     1     -31.858  20.045 -25.777  1.00  0.00     0.212 HD
ENDBRANCH   9  19
ENDBRANCH   3   5
TORSDOF 5
ENDMDL
MODEL 2
REMARK VINA RESULT: -5.510289956      0.663      1.360
REMARK  5 active torsions:
REMARK  status: ('A' for Active; 'I' for Inactive)
REMARK    1  A    between atoms: N2_3  and  C2_5 
REMARK    2  A    between atoms: C2_5  and  C3_6 
REMARK    3  A    between atoms: C3_6  and  N3_7 
REMARK    4  A    between atoms: N3_7  and  C4_9 
REMARK    5  A    between atoms: C12_18  and  O2_19 
ROOT
HETATM    1  N1  UNL     1     -35.141  22.754 -22.356  1.00  0.00    -0.172 NA
HETATM    2  C1  UNL     1     -34.724  22.112 -23.235  1.00  0.00     0.178 C 
HETATM    3  N2  UNL     1     -34.241  21.331 -24.306  1.00  0.00    -0.312 N 
ATOM      4  H2  UNL     1     -34.107  21.714 -25.242  1.00  0.00     0.172 HD
ENDROOT
BRANCH   3   5
HETATM    5  C2  UNL     1     -33.950  19.948 -23.988  1.00  0.00     0.106 C 
HETATM    6  C10 UNL     1     -33.931  19.734 -22.523  1.00  0.00     0.065 C 
HETATM    7  C11 UNL     1     -32.537  19.224 -22.252  1.00  0.00     0.173 C 
HETATM    8  O1  UNL     1     -31.763  19.414 -23.367  1.00  0.00    -0.359 OA
HETATM    9  C12 UNL     1     -32.549  19.615 -24.452  1.00  0.00     0.287 C 
BRANCH   5  10
HETATM   10  C3  UNL     1     -34.912  19.005 -24.697  1.00  0.00     0.151 C 
BRANCH  10  11
HETATM   11  N3  UNL     1     -34.916  19.316 -26.081  1.00  0.00    -0.414 N 
ATOM     12  H3  UNL     1     -34.890  20.277 -26.422  1.00  0.00     0.153 HD
BRANCH  11  13
HETATM   13  C4  UNL     1     -34.958  18.201 -26.961  1.00  0.00     0.076 C 
HETATM   14  C5  UNL     1     -35.991  17.150 -26.572  1.00  0.00     0.024 C 
HETATM   15  C6  UNL     1     -36.175  16.264 -27.795  1.00  0.00     0.002 C 
HETATM   16  C7  UNL     1     -34.938  16.224 -28.646  1.00  0.00     0.000 C 
HETATM   17  C8  UNL     1     -33.652  16.328 -27.867  1.00  0.00     0.002 C 
HETATM   18  C9  UNL     1     -33.620  17.473 -26.905  1.00  0.00     0.024 C 
ENDBRANCH  11  13
ENDBRANCH  10  11
ENDBRANCH   5  10
BRANCH   9  19
HETATM   19  O2  UNL     1     -32.028  20.713 -25.163  1.00  0.00    -0.369 OA
ATOM     20  H2  UNL     1     -32.107  20.545 -26.095  1.00  0.00     0.212 HD
ENDBRANCH   9  19
ENDBRANCH   3   5
TORSDOF 5
ENDMDL
MODEL 3
REMARK VINA RESULT: -4.791909575      1.548      2.582
REMARK  5 active torsions:
REMARK  status: ('A' for Active; 'I' for Inactive)
REMARK    1  A    between atoms: N2_3  and  C2_5 
REMARK    2  A    between atoms: C2_5  and  C3_6 
REMARK    3  A    between atoms: C3_6  and  N3_7 
REMARK    4  A    between atoms: N3_7  and  C4_9 
REMARK    5  A    between atoms: C12_18  and  O2_19 
ROOT
HETATM    1  N1  UNL     1     -30.895  18.266 -23.580  1.00  0.00    -0.172 NA
HETATM    2  C1  UNL     1     -31.610  19.157 -23.815  1.00  0.00     0.178 C 
HETATM    3  N2  UNL     1     -32.465  20.246 -24.084  1.00  0.00    -0.312 N 
ATOM      4  H2  UNL     1     -32.200  21.004 -24.713  1.00  0.00     0.172 HD
ENDROOT
BRANCH   3   5
HETATM    5  C2  UNL     1     -33.745  20.217 -23.406  1.00  0.00     0.106 C 
HETATM    6  C10 UNL     1     -34.488  21.479 -23.624  1.00  0.00     0.065 C 
HETATM    7  C11 UNL     1     -34.699  22.019 -22.231  1.00  0.00     0.173 C 
HETATM    8  O1  UNL     1     -33.911  21.319 -21.354  1.00  0.00    -0.359 OA
HETATM    9  C12 UNL     1     -33.516  20.149 -21.912  1.00  0.00     0.287 C 
BRANCH   5  10
HETATM   10  C3  UNL     1     -34.555  18.992 -23.809  1.00  0.00     0.151 C 
BRANCH  10  11
HETATM   11  N3  UNL     1     -35.066  19.196 -25.116  1.00  0.00    -0.414 N 
ATOM     12  H3  UNL     1     -35.586  20.035 -25.372  1.00  0.00     0.153 HD
BRANCH  11  13
HETATM   13  C4  UNL     1     -34.807  18.154 -26.046  1.00  0.00     0.076 C 
HETATM   14  C5  UNL     1     -33.869  18.558 -27.178  1.00  0.00     0.024 C 
HETATM   15  C6  UNL     1     -33.398  17.263 -27.821  1.00  0.00     0.002 C 
HETATM   16  C7  UNL     1     -34.410  16.164 -27.669  1.00  0.00     0.000 C 
HETATM   17  C8  UNL     1     -35.840  16.640 -27.682  1.00  0.00     0.002 C 
HETATM   18  C9  UNL     1     -36.109  17.770 -26.738  1.00  0.00     0.024 C 
ENDBRANCH  11  13
ENDBRANCH  10  11
ENDBRANCH   5  10
BRANCH   9  19
HETATM   19  O2  UNL     1     -32.137  20.000 -21.665  1.00  0.00    -0.369 OA
ATOM     20  H2  UNL     1     -31.672  20.013 -22.494  1.00  0.00     0.212 HD
ENDBRANCH   9  19
ENDBRANCH   3   5
TORSDOF 5
ENDMDL
MODEL 4
REMARK VINA RESULT: -4.737745546      1.624      2.896
REMARK  5 active torsions:
REMARK  status: ('A' for Active; 'I' for Inactive)
REMARK    1  A    between atoms: N2_3  and  C2_5 
REMARK    2  A    between atoms: C2_5  and  C3_6 
REMARK    3  A    between atoms: C3_6  and  N3_7 
REMARK    4  A    between atoms: N3_7  and  C4_9 
REMARK    5  A    between atoms: C12_18  and  O2_19 
ROOT
HETATM    1  N1  UNL     1     -31.005  18.333 -23.633  1.00  0.00    -0.172 NA
HETATM    2  C1  UNL     1     -31.650  19.250 -23.954  1.00  0.00     0.178 C 
HETATM    3  N2  UNL     1     -32.424  20.369 -24.324  1.00  0.00    -0.312 N 
ATOM      4  H2  UNL     1     -32.043  21.132 -24.886  1.00  0.00     0.172 HD
ENDROOT
BRANCH   3   5
HETATM    5  C2  UNL     1     -33.794  20.365 -23.854  1.00  0.00     0.106 C 
HETATM    6  C10 UNL     1     -34.451  21.665 -24.127  1.00  0.00     0.065 C 
HETATM    7  C11 UNL     1     -34.857  22.157 -22.760  1.00  0.00     0.173 C 
HETATM    8  O1  UNL     1     -34.240  21.392 -21.804  1.00  0.00    -0.359 OA
HETATM    9  C12 UNL     1     -33.802  20.230 -22.347  1.00  0.00     0.287 C 
BRANCH   5  10
HETATM   10  C3  UNL     1     -34.572  19.191 -24.431  1.00  0.00     0.151 C 
BRANCH  10  11
HETATM   11  N3  UNL     1     -34.966  19.515 -25.755  1.00  0.00    -0.414 N 
ATOM     12  H3  UNL     1     -35.267  20.453 -26.018  1.00  0.00     0.153 HD
BRANCH  11  13
HETATM   13  C4  UNL     1     -34.915  18.446 -26.689  1.00  0.00     0.076 C 
HETATM   14  C5  UNL     1     -35.946  17.353 -26.430  1.00  0.00     0.024 C 
HETATM   15  C6  UNL     1     -36.018  16.527 -27.705  1.00  0.00     0.002 C 
HETATM   16  C7  UNL     1     -34.722  16.558 -28.464  1.00  0.00     0.000 C 
HETATM   17  C8  UNL     1     -33.499  16.651 -27.588  1.00  0.00     0.002 C 
HETATM   18  C9  UNL     1     -33.567  17.746 -26.571  1.00  0.00     0.024 C 
ENDBRANCH  11  13
ENDBRANCH  10  11
ENDBRANCH   5  10
BRANCH   9  19
HETATM   19  O2  UNL     1     -32.485  20.016 -21.898  1.00  0.00    -0.369 OA
ATOM     20  H2  UNL     1     -32.459  20.118 -20.953  1.00  0.00     0.212 HD
ENDBRANCH   9  19
ENDBRANCH   3   5
TORSDOF 5
ENDMDL
MODEL 5
REMARK VINA RESULT: -4.590689713      3.081      4.606
REMARK  5 active torsions:
REMARK  status: ('A' for Active; 'I' for Inactive)
REMARK    1  A    between atoms: N2_3  and  C2_5 
REMARK    2  A    between atoms: C2_5  and  C3_6 
REMARK    3  A    between atoms: C3_6  and  N3_7 
REMARK    4  A    between atoms: N3_7  and  C4_9 
REMARK    5  A    between atoms: C12_18  and  O2_19 
ROOT
HETATM    1  N1  UNL     1     -32.259  20.135 -20.975  1.00  0.00    -0.172 NA
HETATM    2  C1  UNL     1     -33.093  20.859 -20.602  1.00  0.00     0.178 C 
HETATM    3  N2  UNL     1     -34.117  21.720 -20.156  1.00  0.00    -0.312 N 
ATOM      4  H2  UNL     1     -34.480  21.686 -19.203  1.00  0.00     0.172 HD
ENDROOT
BRANCH   3   5
HETATM    5  C2  UNL     1     -34.620  22.655 -21.141  1.00  0.00     0.106 C 
HETATM    6  C10 UNL     1     -33.582  23.646 -21.510  1.00  0.00     0.065 C 
HETATM    7  C11 UNL     1     -34.205  24.971 -21.149  1.00  0.00     0.173 C 
HETATM    8  O1  UNL     1     -35.324  24.752 -20.388  1.00  0.00    -0.359 OA
HETATM    9  C12 UNL     1     -35.740  23.469 -20.528  1.00  0.00     0.287 C 
BRANCH   5  10
HETATM   10  C3  UNL     1     -35.183  21.929 -22.354  1.00  0.00     0.151 C 
BRANCH  10  11
HETATM   11  N3  UNL     1     -34.119  21.645 -23.248  1.00  0.00    -0.414 N 
ATOM     12  H3  UNL     1     -33.225  22.133 -23.200  1.00  0.00     0.153 HD
BRANCH  11  13
HETATM   13  C4  UNL     1     -34.381  20.636 -24.214  1.00  0.00     0.076 C 
HETATM   14  C5  UNL     1     -34.615  19.255 -23.613  1.00  0.00     0.024 C 
HETATM   15  C6  UNL     1     -35.256  18.419 -24.709  1.00  0.00     0.002 C 
HETATM   16  C7  UNL     1     -34.853  18.889 -26.077  1.00  0.00     0.000 C 
HETATM   17  C8  UNL     1     -33.453  19.442 -26.149  1.00  0.00     0.002 C 
HETATM   18  C9  UNL     1     -33.156  20.471 -25.105  1.00  0.00     0.024 C 
ENDBRANCH  11  13
ENDBRANCH  10  11
ENDBRANCH   5  10
BRANCH   9  19
HETATM   19  O2  UNL     1     -36.023  22.967 -19.244  1.00  0.00    -0.369 OA
ATOM     20  H2  UNL     1     -36.664  22.269 -19.319  1.00  0.00     0.212 HD
ENDBRANCH   9  19
ENDBRANCH   3   5
TORSDOF 5
ENDMDL
