MODEL 1
REMARK VINA RESULT: -7.911881779      0.000      0.000
REMARK  4 active torsions:
REMARK  status: ('A' for Active; 'I' for Inactive)
REMARK    1  A    between atoms: C2_2  and  C4_10 
REMARK    2  A    between atoms: N1_3  and  N2_5 
REMARK    3  A    between atoms: C7_13  and  N5_14 
REMARK    4  A    between atoms: N5_14  and  C9_16 
ROOT
HETATM    1  C9  UNL     1     -34.487  17.378 -26.650  1.00  0.00     0.189 C 
HETATM    2  C10 UNL     1     -33.274  17.128 -27.529  1.00  0.00     0.048 C 
HETATM    3  C11 UNL     1     -35.618  16.739 -27.299  1.00  0.00     0.084 C 
HETATM    4  N6  UNL     1     -36.516  16.202 -27.821  1.00  0.00    -0.195 NA
ENDROOT
BRANCH   1   5
HETATM    5  N5  UNL     1     -34.671  18.762 -26.354  1.00  0.00    -0.349 N 
HETATM    6  C8  UNL     1     -35.318  19.618 -27.344  1.00  0.00     0.153 C 
BRANCH   5   7
HETATM    7  C7  UNL     1     -34.258  19.373 -25.135  1.00  0.00     0.147 A 
HETATM    8  C6  UNL     1     -34.713  20.588 -24.675  1.00  0.00     0.059 A 
HETATM    9  C5  UNL     1     -34.089  20.845 -23.466  1.00  0.00     0.043 A 
HETATM   10  C4  UNL     1     -33.272  19.769 -23.235  1.00  0.00     0.101 A 
HETATM   11  O1  UNL     1     -33.414  18.932 -24.251  1.00  0.00    -0.292 OA
BRANCH  10  12
HETATM   12  C2  UNL     1     -32.410  19.591 -22.074  1.00  0.00     0.056 C 
HETATM   13  C1  UNL     1     -32.972  20.152 -20.775  1.00  0.00     0.072 C 
HETATM   14  N1  UNL     1     -31.275  19.031 -22.051  1.00  0.00    -0.300 N 
ATOM     15  H1  UNL     1     -30.840  19.016 -21.128  1.00  0.00     0.186 HD
BRANCH  14  16
HETATM   16  N2  UNL     1     -30.526  18.449 -23.018  1.00  0.00    -0.276 N 
HETATM   17  C3  UNL     1     -29.363  17.941 -22.903  1.00  0.00     0.215 C 
HETATM   18  N3  UNL     1     -28.724  17.961 -21.623  1.00  0.00    -0.065 NA
HETATM   19  N4  UNL     1     -28.698  17.363 -24.010  1.00  0.00    -0.065 NA
ATOM     20  H2  UNL     1     -30.943  18.411 -23.948  1.00  0.00     0.189 HD
ENDBRANCH  14  16
ENDBRANCH  10  12
ENDBRANCH   5   7
ENDBRANCH   1   5
TORSDOF 4
ENDMDL
MODEL 2
REMARK VINA RESULT: -7.008094730      0.885      1.083
REMARK  4 active torsions:
REMARK  status: ('A' for Active; 'I' for Inactive)
REMARK    1  A    between atoms: C2_2  and  C4_10 
REMARK    2  A    between atoms: N1_3  and  N2_5 
REMARK    3  A    between atoms: C7_13  and  N5_14 
REMARK    4  A    between atoms: N5_14  and  C9_16 
ROOT
HETATM    1  C9  UNL     1     -34.095  18.214 -27.549  1.00  0.00     0.189 C 
HETATM    2  C10 UNL     1     -34.152  19.411 -28.483  1.00  0.00     0.048 C 
HETATM    3  C11 UNL     1     -34.480  17.051 -28.329  1.00  0.00     0.084 C 
HETATM    4  N6  UNL     1     -34.770  16.120 -28.973  1.00  0.00    -0.195 NA
ENDROOT
BRANCH   1   5
HETATM    5  N5  UNL     1     -34.855  18.414 -26.358  1.00  0.00    -0.349 N 
HETATM    6  C8  UNL     1     -36.197  17.847 -26.271  1.00  0.00     0.153 C 
BRANCH   5   7
HETATM    7  C7  UNL     1     -34.382  19.143 -25.229  1.00  0.00     0.147 A 
HETATM    8  C6  UNL     1     -34.737  20.438 -24.928  1.00  0.00     0.059 A 
HETATM    9  C5  UNL     1     -34.080  20.799 -23.765  1.00  0.00     0.043 A 
HETATM   10  C4  UNL     1     -33.343  19.703 -23.399  1.00  0.00     0.101 A 
HETATM   11  O1  UNL     1     -33.561  18.756 -24.298  1.00  0.00    -0.292 OA
BRANCH  10  12
HETATM   12  C2  UNL     1     -32.482  19.610 -22.228  1.00  0.00     0.056 C 
HETATM   13  C1  UNL     1     -33.048  20.259 -20.972  1.00  0.00     0.072 C 
HETATM   14  N1  UNL     1     -31.345  19.057 -22.165  1.00  0.00    -0.300 N 
ATOM     15  H1  UNL     1     -30.912  19.108 -21.243  1.00  0.00     0.186 HD
BRANCH  14  16
HETATM   16  N2  UNL     1     -30.594  18.411 -23.088  1.00  0.00    -0.276 N 
HETATM   17  C3  UNL     1     -29.438  17.897 -22.930  1.00  0.00     0.215 C 
HETATM   18  N3  UNL     1     -28.812  17.983 -21.646  1.00  0.00    -0.065 NA
HETATM   19  N4  UNL     1     -28.768  17.248 -23.995  1.00  0.00    -0.065 NA
ATOM     20  H2  UNL     1     -31.001  18.324 -24.019  1.00  0.00     0.189 HD
ENDBRANCH  14  16
ENDBRANCH  10  12
ENDBRANCH   5   7
ENDBRANCH   1   5
TORSDOF 4
ENDMDL
MODEL 3
REMARK VINA RESULT: -6.853577130      1.192      1.452
REMARK  4 active torsions:
REMARK  status: ('A' for Active; 'I' for Inactive)
REMARK    1  A    between atoms: C2_2  and  C4_10 
REMARK    2  A    between atoms: N1_3  and  N2_5 
REMARK    3  A    between atoms: C7_13  and  N5_14 
REMARK    4  A    between atoms: N5_14  and  C9_16 
ROOT
HETATM    1  C9  UNL     1     -33.880  18.262 -26.815  1.00  0.00     0.189 C 
HETATM    2  C10 UNL     1     -34.039  19.344 -27.870  1.00  0.00     0.048 C 
HETATM    3  C11 UNL     1     -34.090  16.989 -27.482  1.00  0.00     0.084 C 
HETATM    4  N6  UNL     1     -34.240  15.970 -28.034  1.00  0.00    -0.195 NA
ENDROOT
BRANCH   1   5
HETATM    5  N5  UNL     1     -34.709  18.484 -25.675  1.00  0.00    -0.349 N 
HETATM    6  C8  UNL     1     -36.015  17.835 -25.612  1.00  0.00     0.153 C 
BRANCH   5   7
HETATM    7  C7  UNL     1     -34.339  19.313 -24.576  1.00  0.00     0.147 A 
HETATM    8  C6  UNL     1     -34.686  20.638 -24.444  1.00  0.00     0.059 A 
HETATM    9  C5  UNL     1     -34.148  21.101 -23.255  1.00  0.00     0.043 A 
HETATM   10  C4  UNL     1     -33.491  20.031 -22.705  1.00  0.00     0.101 A 
HETATM   11  O1  UNL     1     -33.638  19.004 -23.526  1.00  0.00    -0.292 OA
BRANCH  10  12
HETATM   12  C2  UNL     1     -32.766  20.039 -21.441  1.00  0.00     0.056 C 
HETATM   13  C1  UNL     1     -33.146  21.172 -20.498  1.00  0.00     0.072 C 
HETATM   14  N1  UNL     1     -31.879  19.214 -21.071  1.00  0.00    -0.300 N 
ATOM     15  H1  UNL     1     -31.498  19.406 -20.144  1.00  0.00     0.186 HD
BRANCH  14  16
HETATM   16  N2  UNL     1     -31.338  18.127 -21.671  1.00  0.00    -0.276 N 
HETATM   17  C3  UNL     1     -30.418  18.100 -22.552  1.00  0.00     0.215 C 
HETATM   18  N3  UNL     1     -29.850  19.336 -22.997  1.00  0.00    -0.065 NA
HETATM   19  N4  UNL     1     -29.950  16.879 -23.093  1.00  0.00    -0.065 NA
ATOM     20  H2  UNL     1     -31.712  17.222 -21.383  1.00  0.00     0.189 HD
ENDBRANCH  14  16
ENDBRANCH  10  12
ENDBRANCH   5   7
ENDBRANCH   1   5
TORSDOF 4
ENDMDL
MODEL 4
REMARK VINA RESULT: -6.812624022      1.067      1.704
REMARK  4 active torsions:
REMARK  status: ('A' for Active; 'I' for Inactive)
REMARK    1  A    between atoms: C2_2  and  C4_10 
REMARK    2  A    between atoms: N1_3  and  N2_5 
REMARK    3  A    between atoms: C7_13  and  N5_14 
REMARK    4  A    between atoms: N5_14  and  C9_16 
ROOT
HETATM    1  C9  UNL     1     -35.453  17.143 -27.884  1.00  0.00     0.189 C 
HETATM    2  C10 UNL     1     -36.641  17.369 -26.964  1.00  0.00     0.048 C 
HETATM    3  C11 UNL     1     -35.566  15.789 -28.394  1.00  0.00     0.084 C 
HETATM    4  N6  UNL     1     -35.680  14.704 -28.814  1.00  0.00    -0.195 NA
ENDROOT
BRANCH   1   5
HETATM    5  N5  UNL     1     -34.209  17.443 -27.253  1.00  0.00    -0.349 N 
HETATM    6  C8  UNL     1     -33.006  16.743 -27.692  1.00  0.00     0.153 C 
BRANCH   5   7
HETATM    7  C7  UNL     1     -34.061  18.398 -26.206  1.00  0.00     0.147 A 
HETATM    8  C6  UNL     1     -34.686  19.624 -26.170  1.00  0.00     0.059 A 
HETATM    9  C5  UNL     1     -34.300  20.264 -25.005  1.00  0.00     0.043 A 
HETATM   10  C4  UNL     1     -33.449  19.397 -24.371  1.00  0.00     0.101 A 
HETATM   11  O1  UNL     1     -33.346  18.313 -25.124  1.00  0.00    -0.292 OA
BRANCH  10  12
HETATM   12  C2  UNL     1     -32.785  19.638 -23.096  1.00  0.00     0.056 C 
HETATM   13  C1  UNL     1     -33.625  20.395 -22.077  1.00  0.00     0.072 C 
HETATM   14  N1  UNL     1     -31.613  19.285 -22.773  1.00  0.00    -0.300 N 
ATOM     15  H1  UNL     1     -31.345  19.558 -21.827  1.00  0.00     0.186 HD
BRANCH  14  16
HETATM   16  N2  UNL     1     -30.645  18.616 -23.444  1.00  0.00    -0.276 N 
HETATM   17  C3  UNL     1     -29.551  18.156 -22.979  1.00  0.00     0.215 C 
HETATM   18  N3  UNL     1     -29.258  18.341 -21.591  1.00  0.00    -0.065 NA
HETATM   19  N4  UNL     1     -28.628  17.473 -23.806  1.00  0.00    -0.065 NA
ATOM     20  H2  UNL     1     -30.812  18.460 -24.438  1.00  0.00     0.189 HD
ENDBRANCH  14  16
ENDBRANCH  10  12
ENDBRANCH   5   7
ENDBRANCH   1   5
TORSDOF 4
ENDMDL
MODEL 5
REMARK VINA RESULT: -6.475335684      1.367      1.893
REMARK  4 active torsions:
REMARK  status: ('A' for Active; 'I' for Inactive)
REMARK    1  A    between atoms: C2_2  and  C4_10 
REMARK    2  A    between atoms: N1_3  and  N2_5 
REMARK    3  A    between atoms: C7_13  and  N5_14 
REMARK    4  A    between atoms: N5_14  and  C9_16 
ROOT
HETATM    1  C9  UNL     1     -34.756  16.453 -28.266  1.00  0.00     0.189 C 
HETATM    2  C10 UNL     1     -34.622  17.151 -29.608  1.00  0.00     0.048 C 
HETATM    3  C11 UNL     1     -35.488  15.221 -28.502  1.00  0.00     0.084 C 
HETATM    4  N6  UNL     1     -36.060  14.223 -28.709  1.00  0.00    -0.195 NA
ENDROOT
BRANCH   1   5
HETATM    5  N5  UNL     1     -35.317  17.299 -27.263  1.00  0.00    -0.349 N 
HETATM    6  C8  UNL     1     -36.747  17.214 -26.984  1.00  0.00     0.153 C 
BRANCH   5   7
HETATM    7  C7  UNL     1     -34.560  18.238 -26.504  1.00  0.00     0.147 A 
HETATM    8  C6  UNL     1     -33.961  19.363 -27.024  1.00  0.00     0.059 A 
HETATM    9  C5  UNL     1     -33.322  20.021 -25.987  1.00  0.00     0.043 A 
HETATM   10  C4  UNL     1     -33.557  19.266 -24.868  1.00  0.00     0.101 A 
HETATM   11  O1  UNL     1     -34.293  18.227 -25.232  1.00  0.00    -0.292 OA
BRANCH  10  12
HETATM   12  C2  UNL     1     -33.078  19.565 -23.525  1.00  0.00     0.056 C 
HETATM   13  C1  UNL     1     -34.074  20.313 -22.649  1.00  0.00     0.072 C 
HETATM   14  N1  UNL     1     -31.947  19.270 -23.040  1.00  0.00    -0.300 N 
ATOM     15  H1  UNL     1     -31.818  19.577 -22.076  1.00  0.00     0.186 HD
BRANCH  14  16
HETATM   16  N2  UNL     1     -30.874  18.624 -23.557  1.00  0.00    -0.276 N 
HETATM   17  C3  UNL     1     -29.797  18.300 -22.958  1.00  0.00     0.215 C 
HETATM   18  N3  UNL     1     -29.649  18.632 -21.574  1.00  0.00    -0.065 NA
HETATM   19  N4  UNL     1     -28.753  17.623 -23.632  1.00  0.00    -0.065 NA
ATOM     20  H2  UNL     1     -30.936  18.366 -24.542  1.00  0.00     0.189 HD
ENDBRANCH  14  16
ENDBRANCH  10  12
ENDBRANCH   5   7
ENDBRANCH   1   5
TORSDOF 4
ENDMDL
