MODEL 1
REMARK VINA RESULT: -7.149150459      0.000      0.000
REMARK  11 active torsions:
REMARK  status: ('A' for Active; 'I' for Inactive)
REMARK    1  A    between atoms: C2_2  and  C3_3 
REMARK    2  A    between atoms: C3_3  and  O1_4 
REMARK    3  A    between atoms: O1_4  and  C4_5 
REMARK    4  A    between atoms: C9_12  and  C10_13 
REMARK    5  A    between atoms: C10_13  and  O2_14 
REMARK    6  A    between atoms: O2_14  and  C11_15 
REMARK    7  A    between atoms: C12_16  and  O3_17 
REMARK    8  A    between atoms: O3_17  and  C13_18 
REMARK    9  A    between atoms: C20_26  and  N1_27 
REMARK   10  A    between atoms: C22_31  and  O4_32 
REMARK   11  A    between atoms: C22_31  and  O5_34 
ROOT
HETATM    1  C11 UNL     1      51.482  -1.091  77.416  1.00  0.00     0.137 A 
HETATM    2  C12 UNL     1      51.867  -0.937  76.144  1.00  0.00     0.127 A 
HETATM    3  C17 UNL     1      51.006  -0.325  75.265  1.00  0.00     0.071 A 
HETATM    4 CL3  UNL     1      51.620   0.047  73.626  1.00  0.00    -0.081 Cl
HETATM    5  C18 UNL     1      49.799   0.115  75.636  1.00  0.00     0.043 A 
HETATM    6  C19 UNL     1      49.435  -0.083  76.988  1.00  0.00     0.022 A 
HETATM    7  C20 UNL     1      48.102   0.198  77.291  1.00  0.00     0.055 A 
HETATM    8  C21 UNL     1      47.586  -0.130  78.550  1.00  0.00     0.064 A 
HETATM    9  C22 UNL     1      46.150  -0.045  78.538  1.00  0.00     0.192 C 
HETATM   10  C24 UNL     1      48.403  -0.690  79.478  1.00  0.00     0.107 A 
HETATM   11  N2  UNL     1      49.749  -0.967  79.109  1.00  0.00    -0.362 N 
ATOM     12  H2  UNL     1      50.362  -1.411  79.792  1.00  0.00     0.165 HD
HETATM   13  C25 UNL     1      50.237  -0.672  77.918  1.00  0.00     0.082 A 
ENDROOT
BRANCH   1  14
HETATM   14  O2  UNL     1      52.461  -1.772  78.305  1.00  0.00    -0.317 OA
BRANCH  14  15
HETATM   15  C10 UNL     1      52.962  -1.003  79.236  1.00  0.00     0.157 C 
BRANCH  15  16
HETATM   16  C9  UNL     1      53.105   0.130  80.062  1.00  0.00     0.023 A 
HETATM   17  C4  UNL     1      53.795  -0.450  81.256  1.00  0.00     0.102 A 
HETATM   18  C5  UNL     1      53.757   0.125  82.477  1.00  0.00     0.070 A 
HETATM   19 CL1  UNL     1      54.389  -0.768  83.869  1.00  0.00    -0.081 Cl
HETATM   20  C6  UNL     1      53.035   1.300  82.588  1.00  0.00     0.050 A 
HETATM   21  C7  UNL     1      52.432   1.880  81.517  1.00  0.00     0.036 A 
HETATM   22 CL2  UNL     1      51.693   3.456  81.722  1.00  0.00    -0.084 Cl
HETATM   23  C8  UNL     1      52.474   1.294  80.246  1.00  0.00     0.040 A 
BRANCH  17  24
HETATM   24  O1  UNL     1      54.456  -1.583  80.868  1.00  0.00    -0.348 OA
BRANCH  24  25
HETATM   25  C3  UNL     1      55.891  -1.496  80.934  1.00  0.00     0.175 C 
BRANCH  25  26
HETATM   26  C2  UNL     1      56.698  -0.830  79.898  1.00  0.00     0.022 C 
HETATM   27  C1  UNL     1      57.079  -1.559  78.691  1.00  0.00     0.007 C 
ENDBRANCH  25  26
ENDBRANCH  24  25
ENDBRANCH  17  24
ENDBRANCH  15  16
ENDBRANCH  14  15
ENDBRANCH   1  14
BRANCH   2  28
HETATM   28  O3  UNL     1      53.062  -1.389  75.620  1.00  0.00    -0.341 OA
BRANCH  28  29
HETATM   29  C13 UNL     1      53.376  -2.523  74.977  1.00  0.00     0.133 A 
HETATM   30  C14 UNL     1      52.917  -3.912  75.262  1.00  0.00     0.039 A 
HETATM   31  C15 UNL     1      52.681  -3.271  73.892  1.00  0.00     0.013 A 
HETATM   32  C16 UNL     1      53.583  -3.878  72.805  1.00  0.00     0.012 C 
ENDBRANCH  28  29
ENDBRANCH   2  28
BRANCH   7  33
HETATM   33  N1  UNL     1      47.430   0.647  76.313  1.00  0.00    -0.398 N 
ATOM     34  H12 UNL     1      47.511   1.584  75.920  1.00  0.00     0.156 HD
ATOM     35  H11 UNL     1      46.700   0.016  75.984  1.00  0.00     0.156 HD
ENDBRANCH   7  33
BRANCH   9  36
HETATM   36  O4  UNL     1      45.585  -1.131  78.023  1.00  0.00    -0.340 OA
ATOM     37  H4  UNL     1      44.872  -1.455  78.560  1.00  0.00     0.220 HD
ENDBRANCH   9  36
BRANCH   9  38
HETATM   38  O5  UNL     1      45.294   0.923  78.908  1.00  0.00    -0.335 OA
HETATM   39  C23 UNL     1      45.887   2.117  79.549  1.00  0.00     0.212 C 
ENDBRANCH   9  38
TORSDOF 11
ENDMDL
MODEL 2
REMARK VINA RESULT: -7.089902214      3.129      6.648
REMARK  11 active torsions:
REMARK  status: ('A' for Active; 'I' for Inactive)
REMARK    1  A    between atoms: C2_2  and  C3_3 
REMARK    2  A    between atoms: C3_3  and  O1_4 
REMARK    3  A    between atoms: O1_4  and  C4_5 
REMARK    4  A    between atoms: C9_12  and  C10_13 
REMARK    5  A    between atoms: C10_13  and  O2_14 
REMARK    6  A    between atoms: O2_14  and  C11_15 
REMARK    7  A    between atoms: C12_16  and  O3_17 
REMARK    8  A    between atoms: O3_17  and  C13_18 
REMARK    9  A    between atoms: C20_26  and  N1_27 
REMARK   10  A    between atoms: C22_31  and  O4_32 
REMARK   11  A    between atoms: C22_31  and  O5_34 
ROOT
HETATM    1  C11 UNL     1      52.827  -1.340  80.081  1.00  0.00     0.137 A 
HETATM    2  C12 UNL     1      53.763  -1.209  79.133  1.00  0.00     0.127 A 
HETATM    3  C17 UNL     1      55.083  -1.149  79.515  1.00  0.00     0.071 A 
HETATM    4 CL3  UNL     1      56.320  -1.176  78.224  1.00  0.00    -0.081 Cl
HETATM    5  C18 UNL     1      55.459  -1.211  80.797  1.00  0.00     0.043 A 
HETATM    6  C19 UNL     1      54.432  -1.336  81.759  1.00  0.00     0.022 A 
HETATM    7  C20 UNL     1      54.840  -1.193  83.086  1.00  0.00     0.055 A 
HETATM    8  C21 UNL     1      53.888  -1.118  84.108  1.00  0.00     0.064 A 
HETATM    9  C22 UNL     1      54.499  -0.664  85.329  1.00  0.00     0.192 C 
HETATM   10  C24 UNL     1      52.571  -1.223  83.798  1.00  0.00     0.107 A 
HETATM   11  N2  UNL     1      52.212  -1.355  82.427  1.00  0.00    -0.362 N 
ATOM     12  H2  UNL     1      51.222  -1.409  82.184  1.00  0.00     0.165 HD
HETATM   13  C25 UNL     1      53.105  -1.411  81.458  1.00  0.00     0.082 A 
ENDROOT
BRANCH   1  14
HETATM   14  O2  UNL     1      51.423  -1.385  79.594  1.00  0.00    -0.317 OA
BRANCH  14  15
HETATM   15  C10 UNL     1      50.863  -0.211  79.468  1.00  0.00     0.157 C 
BRANCH  15  16
HETATM   16  C9  UNL     1      49.875   0.742  79.146  1.00  0.00     0.023 A 
HETATM   17  C4  UNL     1      49.787   1.528  80.416  1.00  0.00     0.102 A 
HETATM   18  C5  UNL     1      48.700   2.253  80.756  1.00  0.00     0.070 A 
HETATM   19 CL1  UNL     1      48.598   2.936  82.386  1.00  0.00    -0.081 Cl
HETATM   20  C6  UNL     1      47.641   2.239  79.867  1.00  0.00     0.050 A 
HETATM   21  C7  UNL     1      47.701   1.573  78.684  1.00  0.00     0.036 A 
HETATM   22 CL2  UNL     1      46.380   1.759  77.547  1.00  0.00    -0.084 Cl
HETATM   23  C8  UNL     1      48.828   0.826  78.320  1.00  0.00     0.040 A 
BRANCH  17  24
HETATM   24  O1  UNL     1      50.970   1.398  81.090  1.00  0.00    -0.348 OA
BRANCH  24  25
HETATM   25  C3  UNL     1      51.877   2.505  80.934  1.00  0.00     0.175 C 
BRANCH  25  26
HETATM   26  C2  UNL     1      53.309   2.415  81.265  1.00  0.00     0.022 C 
HETATM   27  C1  UNL     1      53.730   2.344  82.663  1.00  0.00     0.007 C 
ENDBRANCH  25  26
ENDBRANCH  24  25
ENDBRANCH  17  24
ENDBRANCH  15  16
ENDBRANCH  14  15
ENDBRANCH   1  14
BRANCH   2  28
HETATM   28  O3  UNL     1      53.508  -1.084  77.783  1.00  0.00    -0.341 OA
BRANCH  28  29
HETATM   29  C13 UNL     1      52.961  -1.933  76.901  1.00  0.00     0.133 A 
HETATM   30  C14 UNL     1      51.927  -1.659  75.863  1.00  0.00     0.039 A 
HETATM   31  C15 UNL     1      53.292  -2.232  75.479  1.00  0.00     0.013 A 
HETATM   32  C16 UNL     1      53.205  -3.709  75.061  1.00  0.00     0.012 C 
ENDBRANCH  28  29
ENDBRANCH   2  28
BRANCH   7  33
HETATM   33  N1  UNL     1      56.090  -1.027  83.230  1.00  0.00    -0.398 N 
ATOM     34  H12 UNL     1      56.655  -0.332  82.742  1.00  0.00     0.156 HD
ATOM     35  H11 UNL     1      56.539  -1.724  83.822  1.00  0.00     0.156 HD
ENDBRANCH   7  33
BRANCH   9  36
HETATM   36  O4  UNL     1      54.638   0.656  85.362  1.00  0.00    -0.340 OA
ATOM     37  H4  UNL     1      55.365   0.955  84.827  1.00  0.00     0.220 HD
ENDBRANCH   9  36
BRANCH   9  38
HETATM   38  O5  UNL     1      54.980  -1.316  86.401  1.00  0.00    -0.335 OA
HETATM   39  C23 UNL     1      56.298  -0.870  86.905  1.00  0.00     0.212 C 
ENDBRANCH   9  38
TORSDOF 11
ENDMDL
MODEL 3
REMARK VINA RESULT: -7.089066068      3.407      7.025
REMARK  11 active torsions:
REMARK  status: ('A' for Active; 'I' for Inactive)
REMARK    1  A    between atoms: C2_2  and  C3_3 
REMARK    2  A    between atoms: C3_3  and  O1_4 
REMARK    3  A    between atoms: O1_4  and  C4_5 
REMARK    4  A    between atoms: C9_12  and  C10_13 
REMARK    5  A    between atoms: C10_13  and  O2_14 
REMARK    6  A    between atoms: O2_14  and  C11_15 
REMARK    7  A    between atoms: C12_16  and  O3_17 
REMARK    8  A    between atoms: O3_17  and  C13_18 
REMARK    9  A    between atoms: C20_26  and  N1_27 
REMARK   10  A    between atoms: C22_31  and  O4_32 
REMARK   11  A    between atoms: C22_31  and  O5_34 
ROOT
HETATM    1  C11 UNL     1      52.186  -0.920  82.132  1.00  0.00     0.137 A 
HETATM    2  C12 UNL     1      53.512  -1.057  82.248  1.00  0.00     0.127 A 
HETATM    3  C17 UNL     1      54.164  -0.344  83.226  1.00  0.00     0.071 A 
HETATM    4 CL3  UNL     1      55.899  -0.694  83.489  1.00  0.00    -0.081 Cl
HETATM    5  C18 UNL     1      53.521   0.483  84.057  1.00  0.00     0.043 A 
HETATM    6  C19 UNL     1      52.122   0.601  83.884  1.00  0.00     0.022 A 
HETATM    7  C20 UNL     1      51.517   1.617  84.625  1.00  0.00     0.055 A 
HETATM    8  C21 UNL     1      50.175   1.944  84.401  1.00  0.00     0.064 A 
HETATM    9  C22 UNL     1      49.853   3.196  85.031  1.00  0.00     0.192 C 
HETATM   10  C24 UNL     1      49.465   1.239  83.484  1.00  0.00     0.107 A 
HETATM   11  N2  UNL     1      50.137   0.223  82.748  1.00  0.00    -0.362 N 
ATOM     12  H2  UNL     1      49.616  -0.293  82.039  1.00  0.00     0.165 HD
HETATM   13  C25 UNL     1      51.407  -0.078  82.946  1.00  0.00     0.082 A 
ENDROOT
BRANCH   1  14
HETATM   14  O2  UNL     1      51.552  -1.713  81.045  1.00  0.00    -0.317 OA
BRANCH  14  15
HETATM   15  C10 UNL     1      51.310  -1.029  79.957  1.00  0.00     0.157 C 
BRANCH  15  16
HETATM   16  C9  UNL     1      51.309  -0.710  78.584  1.00  0.00     0.023 A 
HETATM   17  C4  UNL     1      50.014   0.028  78.446  1.00  0.00     0.102 A 
HETATM   18  C5  UNL     1      49.363   0.151  77.270  1.00  0.00     0.070 A 
HETATM   19 CL1  UNL     1      47.724   0.821  77.262  1.00  0.00    -0.081 Cl
HETATM   20  C6  UNL     1      49.948  -0.447  76.169  1.00  0.00     0.050 A 
HETATM   21  C7  UNL     1      51.144  -1.087  76.247  1.00  0.00     0.036 A 
HETATM   22 CL2  UNL     1      51.889  -1.659  74.767  1.00  0.00    -0.084 Cl
HETATM   23  C8  UNL     1      51.830  -1.213  77.461  1.00  0.00     0.040 A 
BRANCH  17  24
HETATM   24  O1  UNL     1      49.677   0.545  79.666  1.00  0.00    -0.348 OA
BRANCH  24  25
HETATM   25  C3  UNL     1      49.440   1.965  79.674  1.00  0.00     0.175 C 
BRANCH  25  26
HETATM   26  C2  UNL     1      50.308   2.914  80.390  1.00  0.00     0.022 C 
HETATM   27  C1  UNL     1      51.712   2.585  80.621  1.00  0.00     0.007 C 
ENDBRANCH  25  26
ENDBRANCH  24  25
ENDBRANCH  17  24
ENDBRANCH  15  16
ENDBRANCH  14  15
ENDBRANCH   1  14
BRANCH   2  28
HETATM   28  O3  UNL     1      54.300  -1.835  81.426  1.00  0.00    -0.341 OA
BRANCH  28  29
HETATM   29  C13 UNL     1      54.917  -1.560  80.267  1.00  0.00     0.133 A 
HETATM   30  C14 UNL     1      54.972  -0.267  79.527  1.00  0.00     0.039 A 
HETATM   31  C15 UNL     1      56.255  -0.972  79.973  1.00  0.00     0.013 A 
HETATM   32  C16 UNL     1      57.018  -1.591  78.790  1.00  0.00     0.012 C 
ENDBRANCH  28  29
ENDBRANCH   2  28
BRANCH   7  33
HETATM   33  N1  UNL     1      52.311   2.247  85.389  1.00  0.00    -0.398 N 
ATOM     34  H12 UNL     1      52.152   3.181  85.767  1.00  0.00     0.156 HD
ATOM     35  H11 UNL     1      53.205   1.782  85.538  1.00  0.00     0.156 HD
ENDBRANCH   7  33
BRANCH   9  36
HETATM   36  O4  UNL     1      50.230   4.239  84.300  1.00  0.00    -0.340 OA
ATOM     37  H4  UNL     1      49.924   5.063  84.663  1.00  0.00     0.220 HD
ENDBRANCH   9  36
BRANCH   9  38
HETATM   38  O5  UNL     1      49.290   3.501  86.213  1.00  0.00    -0.335 OA
HETATM   39  C23 UNL     1      48.580   2.403  86.905  1.00  0.00     0.212 C 
ENDBRANCH   9  38
TORSDOF 11
ENDMDL
MODEL 4
REMARK VINA RESULT: -7.032974448      3.039      6.802
REMARK  11 active torsions:
REMARK  status: ('A' for Active; 'I' for Inactive)
REMARK    1  A    between atoms: C2_2  and  C3_3 
REMARK    2  A    between atoms: C3_3  and  O1_4 
REMARK    3  A    between atoms: O1_4  and  C4_5 
REMARK    4  A    between atoms: C9_12  and  C10_13 
REMARK    5  A    between atoms: C10_13  and  O2_14 
REMARK    6  A    between atoms: O2_14  and  C11_15 
REMARK    7  A    between atoms: C12_16  and  O3_17 
REMARK    8  A    between atoms: O3_17  and  C13_18 
REMARK    9  A    between atoms: C20_26  and  N1_27 
REMARK   10  A    between atoms: C22_31  and  O4_32 
REMARK   11  A    between atoms: C22_31  and  O5_34 
ROOT
HETATM    1  C11 UNL     1      53.312  -1.324  79.730  1.00  0.00     0.137 A 
HETATM    2  C12 UNL     1      54.362  -1.254  78.903  1.00  0.00     0.127 A 
HETATM    3  C17 UNL     1      55.624  -1.211  79.445  1.00  0.00     0.071 A 
HETATM    4 CL3  UNL     1      57.012  -1.319  78.321  1.00  0.00    -0.081 Cl
HETATM    5  C18 UNL     1      55.837  -1.231  80.765  1.00  0.00     0.043 A 
HETATM    6  C19 UNL     1      54.694  -1.293  81.595  1.00  0.00     0.022 A 
HETATM    7  C20 UNL     1      54.938  -1.106  82.956  1.00  0.00     0.055 A 
HETATM    8  C21 UNL     1      53.868  -0.967  83.847  1.00  0.00     0.064 A 
HETATM    9  C22 UNL     1      54.335  -0.480  85.117  1.00  0.00     0.192 C 
HETATM   10  C24 UNL     1      52.597  -1.053  83.378  1.00  0.00     0.107 A 
HETATM   11  N2  UNL     1      52.408  -1.231  81.979  1.00  0.00    -0.362 N 
ATOM     12  H2  UNL     1      51.456  -1.270  81.615  1.00  0.00     0.165 HD
HETATM   13  C25 UNL     1      53.414  -1.347  81.132  1.00  0.00     0.082 A 
ENDROOT
BRANCH   1  14
HETATM   14  O2  UNL     1      51.978  -1.355  79.072  1.00  0.00    -0.317 OA
BRANCH  14  15
HETATM   15  C10 UNL     1      51.302  -0.242  79.183  1.00  0.00     0.157 C 
BRANCH  15  16
HETATM   16  C9  UNL     1      50.668   0.848  79.814  1.00  0.00     0.023 A 
HETATM   17  C4  UNL     1      49.310   0.813  79.186  1.00  0.00     0.102 A 
HETATM   18  C5  UNL     1      48.499   1.891  79.132  1.00  0.00     0.070 A 
HETATM   19 CL1  UNL     1      47.028   1.812  78.150  1.00  0.00    -0.081 Cl
HETATM   20  C6  UNL     1      48.982   3.061  79.689  1.00  0.00     0.050 A 
HETATM   21  C7  UNL     1      50.191   3.120  80.307  1.00  0.00     0.036 A 
HETATM   22 CL2  UNL     1      50.639   4.597  81.137  1.00  0.00    -0.084 Cl
HETATM   23  C8  UNL     1      51.035   2.004  80.375  1.00  0.00     0.040 A 
BRANCH  17  24
HETATM   24  O1  UNL     1      49.068  -0.459  78.746  1.00  0.00    -0.348 OA
BRANCH  24  25
HETATM   25  C3  UNL     1      47.959  -1.117  79.387  1.00  0.00     0.175 C 
BRANCH  25  26
HETATM   26  C2  UNL     1      47.958  -1.465  80.817  1.00  0.00     0.022 C 
HETATM   27  C1  UNL     1      49.036  -2.280  81.370  1.00  0.00     0.007 C 
ENDBRANCH  25  26
ENDBRANCH  24  25
ENDBRANCH  17  24
ENDBRANCH  15  16
ENDBRANCH  14  15
ENDBRANCH   1  14
BRANCH   2  28
HETATM   28  O3  UNL     1      54.280  -1.177  77.528  1.00  0.00    -0.341 OA
BRANCH  28  29
HETATM   29  C13 UNL     1      53.468  -1.786  76.651  1.00  0.00     0.133 A 
HETATM   30  C14 UNL     1      53.222  -1.448  75.220  1.00  0.00     0.039 A 
HETATM   31  C15 UNL     1      53.728  -2.834  75.624  1.00  0.00     0.013 A 
HETATM   32  C16 UNL     1      52.644  -3.914  75.472  1.00  0.00     0.012 C 
ENDBRANCH  28  29
ENDBRANCH   2  28
BRANCH   7  33
HETATM   33  N1  UNL     1      56.164  -0.965  83.249  1.00  0.00    -0.398 N 
ATOM     34  H12 UNL     1      56.945  -1.391  82.751  1.00  0.00     0.156 HD
ATOM     35  H11 UNL     1      56.330  -0.448  84.113  1.00  0.00     0.156 HD
ENDBRANCH   7  33
BRANCH   9  36
HETATM   36  O4  UNL     1      54.508   0.837  85.119  1.00  0.00    -0.340 OA
ATOM     37  H4  UNL     1      55.426   1.080  85.138  1.00  0.00     0.220 HD
ENDBRANCH   9  36
BRANCH   9  38
HETATM   38  O5  UNL     1      54.660  -1.100  86.265  1.00  0.00    -0.335 OA
HETATM   39  C23 UNL     1      55.977  -0.760  86.847  1.00  0.00     0.212 C 
ENDBRANCH   9  38
TORSDOF 11
ENDMDL
MODEL 5
REMARK VINA RESULT: -7.012298396      2.599      5.936
REMARK  11 active torsions:
REMARK  status: ('A' for Active; 'I' for Inactive)
REMARK    1  A    between atoms: C2_2  and  C3_3 
REMARK    2  A    between atoms: C3_3  and  O1_4 
REMARK    3  A    between atoms: O1_4  and  C4_5 
REMARK    4  A    between atoms: C9_12  and  C10_13 
REMARK    5  A    between atoms: C10_13  and  O2_14 
REMARK    6  A    between atoms: O2_14  and  C11_15 
REMARK    7  A    between atoms: C12_16  and  O3_17 
REMARK    8  A    between atoms: O3_17  and  C13_18 
REMARK    9  A    between atoms: C20_26  and  N1_27 
REMARK   10  A    between atoms: C22_31  and  O4_32 
REMARK   11  A    between atoms: C22_31  and  O5_34 
ROOT
HETATM    1  C11 UNL     1      50.886  -0.935  78.198  1.00  0.00     0.137 A 
HETATM    2  C12 UNL     1      49.801  -0.154  78.263  1.00  0.00     0.127 A 
HETATM    3  C17 UNL     1      49.303   0.378  77.097  1.00  0.00     0.071 A 
HETATM    4 CL3  UNL     1      47.743   1.251  77.184  1.00  0.00    -0.081 Cl
HETATM    5  C18 UNL     1      49.868   0.147  75.907  1.00  0.00     0.043 A 
HETATM    6  C19 UNL     1      51.019  -0.675  75.896  1.00  0.00     0.022 A 
HETATM    7  C20 UNL     1      51.697  -0.728  74.677  1.00  0.00     0.055 A 
HETATM    8  C21 UNL     1      52.943  -1.361  74.596  1.00  0.00     0.064 A 
HETATM    9  C22 UNL     1      53.591  -1.031  73.355  1.00  0.00     0.192 C 
HETATM   10  C24 UNL     1      53.462  -1.950  75.703  1.00  0.00     0.107 A 
HETATM   11  N2  UNL     1      52.732  -1.852  76.921  1.00  0.00    -0.362 N 
ATOM     12  H2  UNL     1      53.129  -2.270  77.763  1.00  0.00     0.165 HD
HETATM   13  C25 UNL     1      51.564  -1.244  77.006  1.00  0.00     0.082 A 
ENDROOT
BRANCH   1  14
HETATM   14  O2  UNL     1      51.373  -1.464  79.500  1.00  0.00    -0.317 OA
BRANCH  14  15
HETATM   15  C10 UNL     1      52.636  -1.220  79.737  1.00  0.00     0.157 C 
BRANCH  15  16
HETATM   16  C9  UNL     1      54.019  -1.467  79.847  1.00  0.00     0.023 A 
HETATM   17  C4  UNL     1      54.244  -1.279  81.315  1.00  0.00     0.102 A 
HETATM   18  C5  UNL     1      55.452  -0.981  81.839  1.00  0.00     0.070 A 
HETATM   19 CL1  UNL     1      55.559  -0.532  83.549  1.00  0.00    -0.081 Cl
HETATM   20  C6  UNL     1      56.501  -0.848  80.948  1.00  0.00     0.050 A 
HETATM   21  C7  UNL     1      56.344  -1.054  79.614  1.00  0.00     0.036 A 
HETATM   22 CL2  UNL     1      57.766  -1.037  78.589  1.00  0.00    -0.084 Cl
HETATM   23  C8  UNL     1      55.097  -1.372  79.063  1.00  0.00     0.040 A 
BRANCH  17  24
HETATM   24  O1  UNL     1      53.061  -1.497  81.967  1.00  0.00    -0.348 OA
BRANCH  24  25
HETATM   25  C3  UNL     1      53.026  -2.692  82.769  1.00  0.00     0.175 C 
BRANCH  25  26
HETATM   26  C2  UNL     1      52.520  -3.978  82.262  1.00  0.00     0.022 C 
HETATM   27  C1  UNL     1      53.435  -4.919  81.621  1.00  0.00     0.007 C 
ENDBRANCH  25  26
ENDBRANCH  24  25
ENDBRANCH  17  24
ENDBRANCH  15  16
ENDBRANCH  14  15
ENDBRANCH   1  14
BRANCH   2  28
HETATM   28  O3  UNL     1      49.153   0.204  79.427  1.00  0.00    -0.341 OA
BRANCH  28  29
HETATM   29  C13 UNL     1      49.337   1.236  80.264  1.00  0.00     0.133 A 
HETATM   30  C14 UNL     1      50.234   1.322  81.451  1.00  0.00     0.039 A 
HETATM   31  C15 UNL     1      50.364   2.315  80.294  1.00  0.00     0.013 A 
HETATM   32  C16 UNL     1      49.860   3.717  80.673  1.00  0.00     0.012 C 
ENDBRANCH  28  29
ENDBRANCH   2  28
BRANCH   7  33
HETATM   33  N1  UNL     1      51.142  -0.072  73.744  1.00  0.00    -0.398 N 
ATOM     34  H12 UNL     1      50.814   0.892  73.811  1.00  0.00     0.156 HD
ATOM     35  H11 UNL     1      50.947  -0.620  72.907  1.00  0.00     0.156 HD
ENDBRANCH   7  33
BRANCH   9  36
HETATM   36  O4  UNL     1      54.194   0.152  73.401  1.00  0.00    -0.340 OA
ATOM     37  H4  UNL     1      54.498   0.367  74.276  1.00  0.00     0.220 HD
ENDBRANCH   9  36
BRANCH   9  38
HETATM   38  O5  UNL     1      53.665  -1.664  72.172  1.00  0.00    -0.335 OA
HETATM   39  C23 UNL     1      53.178  -3.060  72.141  1.00  0.00     0.212 C 
ENDBRANCH   9  38
TORSDOF 11
ENDMDL
