MODEL 1
REMARK VINA RESULT: -8.377631050      0.000      0.000
REMARK  10 active torsions:
REMARK  status: ('A' for Active; 'I' for Inactive)
REMARK    1  A    between atoms: O1_1  and  C1_3 
REMARK    2  A    between atoms: C1_3  and  N1_4 
REMARK    3  A    between atoms: C1_3  and  C15_23 
REMARK    4  A    between atoms: N1_4  and  C2_6 
REMARK    5  A    between atoms: C2_6  and  C3_7 
REMARK    6  A    between atoms: C2_6  and  C9_15 
REMARK    7  A    between atoms: C3_7  and  C4_8 
REMARK    8  A    between atoms: C4_8  and  N2_9 
REMARK    9  A    between atoms: C20_28  and  O2_29 
REMARK   10  A    between atoms: O2_29  and  C21_30 
ROOT
HETATM    1  N1  UNL     1      52.194   0.372  79.669  1.00  0.00    -0.385 N 
ATOM      2  H1  UNL     1      51.867   0.707  78.763  1.00  0.00     0.156 HD
ENDROOT
BRANCH   1   3
HETATM    3  C1  UNL     1      52.631  -0.950  79.760  1.00  0.00     0.251 C 
BRANCH   3   4
HETATM    4  O1  UNL     1      52.438  -1.379  81.114  1.00  0.00    -0.373 OA
ATOM      5  H1  UNL     1      52.959  -2.162  81.244  1.00  0.00     0.212 HD
ENDBRANCH   3   4
BRANCH   3   6
HETATM    6  C15 UNL     1      54.098  -1.099  79.460  1.00  0.00     0.023 A 
HETATM    7  C16 UNL     1      54.999  -1.237  80.474  1.00  0.00     0.014 A 
HETATM    8  C17 UNL     1      56.352  -1.390  80.298  1.00  0.00     0.001 A 
HETATM    9  C18 UNL     1      56.805  -1.397  78.997  1.00  0.00     0.003 A 
HETATM   10  C19 UNL     1      55.923  -1.258  77.956  1.00  0.00     0.038 A 
HETATM   11  C20 UNL     1      54.562  -1.108  78.145  1.00  0.00     0.086 A 
BRANCH  11  12
HETATM   12  O2  UNL     1      53.638  -0.967  77.153  1.00  0.00    -0.308 OA
BRANCH  12  13
HETATM   13  C21 UNL     1      53.415  -1.780  76.070  1.00  0.00     0.097 A 
HETATM   14  C22 UNL     1      53.083  -3.128  76.251  1.00  0.00     0.039 A 
HETATM   15  C23 UNL     1      52.874  -3.888  75.132  1.00  0.00     0.003 A 
HETATM   16  C24 UNL     1      52.977  -3.384  73.860  1.00  0.00     0.002 A 
HETATM   17  C25 UNL     1      53.302  -2.065  73.686  1.00  0.00     0.026 A 
HETATM   18  C26 UNL     1      53.523  -1.257  74.810  1.00  0.00     0.067 A 
HETATM   19 CL3  UNL     1      53.980   0.434  74.506  1.00  0.00    -0.081 Cl
ENDBRANCH  12  13
ENDBRANCH  11  12
ENDBRANCH   3   6
ENDBRANCH   1   3
BRANCH   1  20
HETATM   20  C2  UNL     1      52.175   1.260  80.735  1.00  0.00     0.114 C 
BRANCH  20  21
HETATM   21  C3  UNL     1      53.336   2.071  81.127  1.00  0.00     0.060 C 
BRANCH  21  22
HETATM   22  C4  UNL     1      54.042   1.848  82.391  1.00  0.00     0.275 C 
BRANCH  22  23
HETATM   23  N2  UNL     1      53.242   1.052  83.362  1.00  0.00     0.090 N 
HETATM   24  C5  UNL     1      52.973   2.052  84.432  1.00  0.00     0.282 C 
HETATM   25  C6  UNL     1      51.712   1.532  85.121  1.00  0.00     0.104 C 
HETATM   26  S1  UNL     1      52.161  -0.038  85.879  1.00  0.00    -0.166 SA
HETATM   27  C7  UNL     1      53.441  -0.848  84.920  1.00  0.00     0.104 C 
HETATM   28  C8  UNL     1      54.143   0.060  83.939  1.00  0.00     0.282 C 
ENDBRANCH  22  23
ENDBRANCH  21  22
ENDBRANCH  20  21
BRANCH  20  29
HETATM   29  C9  UNL     1      51.037   2.247  80.505  1.00  0.00    -0.034 A 
HETATM   30  C10 UNL     1      49.918   1.808  79.837  1.00  0.00     0.011 A 
HETATM   31  C11 UNL     1      48.845   2.667  79.592  1.00  0.00     0.026 A 
HETATM   32  C12 UNL     1      48.927   3.957  80.031  1.00  0.00     0.055 A 
HETATM   33 CL1  UNL     1      47.632   5.112  79.774  1.00  0.00    -0.083 Cl
HETATM   34  C13 UNL     1      50.037   4.399  80.697  1.00  0.00     0.056 A 
HETATM   35 CL2  UNL     1      50.168   6.030  81.262  1.00  0.00    -0.083 Cl
HETATM   36  C14 UNL     1      51.103   3.549  80.939  1.00  0.00     0.034 A 
ENDBRANCH  20  29
ENDBRANCH   1  20
TORSDOF 10
ENDMDL
MODEL 2
REMARK VINA RESULT: -8.207822890      2.404      7.305
REMARK  10 active torsions:
REMARK  status: ('A' for Active; 'I' for Inactive)
REMARK    1  A    between atoms: O1_1  and  C1_3 
REMARK    2  A    between atoms: C1_3  and  N1_4 
REMARK    3  A    between atoms: C1_3  and  C15_23 
REMARK    4  A    between atoms: N1_4  and  C2_6 
REMARK    5  A    between atoms: C2_6  and  C3_7 
REMARK    6  A    between atoms: C2_6  and  C9_15 
REMARK    7  A    between atoms: C3_7  and  C4_8 
REMARK    8  A    between atoms: C4_8  and  N2_9 
REMARK    9  A    between atoms: C20_28  and  O2_29 
REMARK   10  A    between atoms: O2_29  and  C21_30 
ROOT
HETATM    1  N1  UNL     1      52.135  -1.391  77.954  1.00  0.00    -0.385 N 
ATOM      2  H1  UNL     1      51.804  -2.336  77.755  1.00  0.00     0.156 HD
ENDROOT
BRANCH   1   3
HETATM    3  C1  UNL     1      51.321  -0.562  78.729  1.00  0.00     0.251 C 
BRANCH   3   4
HETATM    4  O1  UNL     1      50.896  -1.317  79.870  1.00  0.00    -0.373 OA
ATOM      5  H1  UNL     1      50.841  -0.719  80.606  1.00  0.00     0.212 HD
ENDBRANCH   3   4
BRANCH   3   6
HETATM    6  C15 UNL     1      50.077  -0.128  78.003  1.00  0.00     0.023 A 
HETATM    7  C16 UNL     1      49.778  -0.642  76.777  1.00  0.00     0.014 A 
HETATM    8  C17 UNL     1      48.663  -0.316  76.045  1.00  0.00     0.001 A 
HETATM    9  C18 UNL     1      47.802   0.599  76.613  1.00  0.00     0.003 A 
HETATM   10  C19 UNL     1      48.076   1.134  77.845  1.00  0.00     0.038 A 
HETATM   11  C20 UNL     1      49.202   0.796  78.573  1.00  0.00     0.086 A 
BRANCH  11  12
HETATM   12  O2  UNL     1      49.527   1.293  79.800  1.00  0.00    -0.308 OA
BRANCH  12  13
HETATM   13  C21 UNL     1      49.761   2.596  80.161  1.00  0.00     0.097 A 
HETATM   14  C22 UNL     1      48.770   3.570  79.988  1.00  0.00     0.039 A 
HETATM   15  C23 UNL     1      49.064   4.852  80.366  1.00  0.00     0.003 A 
HETATM   16  C24 UNL     1      50.276   5.212  80.899  1.00  0.00     0.002 A 
HETATM   17  C25 UNL     1      51.244   4.257  81.067  1.00  0.00     0.026 A 
HETATM   18  C26 UNL     1      50.978   2.934  80.691  1.00  0.00     0.067 A 
HETATM   19 CL3  UNL     1      52.295   1.759  80.899  1.00  0.00    -0.081 Cl
ENDBRANCH  12  13
ENDBRANCH  11  12
ENDBRANCH   3   6
ENDBRANCH   1   3
BRANCH   1  20
HETATM   20  C2  UNL     1      53.365  -1.011  77.438  1.00  0.00     0.114 C 
BRANCH  20  21
HETATM   21  C3  UNL     1      54.647  -1.477  77.986  1.00  0.00     0.060 C 
BRANCH  21  22
HETATM   22  C4  UNL     1      55.375  -0.714  79.002  1.00  0.00     0.275 C 
BRANCH  22  23
HETATM   23  N2  UNL     1      54.743  -0.800  80.347  1.00  0.00     0.090 N 
HETATM   24  C5  UNL     1      55.882  -0.464  81.245  1.00  0.00     0.282 C 
HETATM   25  C6  UNL     1      55.214   0.051  82.519  1.00  0.00     0.104 C 
HETATM   26  S1  UNL     1      54.306  -1.342  83.211  1.00  0.00    -0.166 SA
HETATM   27  C7  UNL     1      53.746  -2.432  81.903  1.00  0.00     0.104 C 
HETATM   28  C8  UNL     1      54.434  -2.208  80.578  1.00  0.00     0.282 C 
ENDBRANCH  22  23
ENDBRANCH  21  22
ENDBRANCH  20  21
BRANCH  20  29
HETATM   29  C9  UNL     1      53.388  -1.376  75.959  1.00  0.00    -0.034 A 
HETATM   30  C10 UNL     1      53.263  -2.702  75.613  1.00  0.00     0.011 A 
HETATM   31  C11 UNL     1      53.281  -3.099  74.275  1.00  0.00     0.026 A 
HETATM   32  C12 UNL     1      53.426  -2.144  73.311  1.00  0.00     0.055 A 
HETATM   33 CL1  UNL     1      53.459  -2.541  71.603  1.00  0.00    -0.083 Cl
HETATM   34  C13 UNL     1      53.549  -0.824  73.648  1.00  0.00     0.056 A 
HETATM   35 CL2  UNL     1      53.736   0.408  72.447  1.00  0.00    -0.083 Cl
HETATM   36  C14 UNL     1      53.532  -0.428  74.975  1.00  0.00     0.034 A 
ENDBRANCH  20  29
ENDBRANCH   1  20
TORSDOF 10
ENDMDL
MODEL 3
REMARK VINA RESULT: -8.167036883      3.333      5.043
REMARK  10 active torsions:
REMARK  status: ('A' for Active; 'I' for Inactive)
REMARK    1  A    between atoms: O1_1  and  C1_3 
REMARK    2  A    between atoms: C1_3  and  N1_4 
REMARK    3  A    between atoms: C1_3  and  C15_23 
REMARK    4  A    between atoms: N1_4  and  C2_6 
REMARK    5  A    between atoms: C2_6  and  C3_7 
REMARK    6  A    between atoms: C2_6  and  C9_15 
REMARK    7  A    between atoms: C3_7  and  C4_8 
REMARK    8  A    between atoms: C4_8  and  N2_9 
REMARK    9  A    between atoms: C20_28  and  O2_29 
REMARK   10  A    between atoms: O2_29  and  C21_30 
ROOT
HETATM    1  N1  UNL     1      53.360  -1.426  79.815  1.00  0.00    -0.385 N 
ATOM      2  H1  UNL     1      52.752  -0.710  80.213  1.00  0.00     0.156 HD
ENDROOT
BRANCH   1   3
HETATM    3  C1  UNL     1      53.436  -1.522  78.424  1.00  0.00     0.251 C 
BRANCH   3   4
HETATM    4  O1  UNL     1      54.438  -0.599  77.980  1.00  0.00    -0.373 OA
ATOM      5  H1  UNL     1      54.154  -0.246  77.146  1.00  0.00     0.212 HD
ENDBRANCH   3   4
BRANCH   3   6
HETATM    6  C15 UNL     1      52.152  -1.132  77.745  1.00  0.00     0.023 A 
HETATM    7  C16 UNL     1      51.064  -0.768  78.481  1.00  0.00     0.014 A 
HETATM    8  C17 UNL     1      49.856  -0.387  77.952  1.00  0.00     0.001 A 
HETATM    9  C18 UNL     1      49.762  -0.381  76.577  1.00  0.00     0.003 A 
HETATM   10  C19 UNL     1      50.839  -0.743  75.809  1.00  0.00     0.038 A 
HETATM   11  C20 UNL     1      52.052  -1.124  76.354  1.00  0.00     0.086 A 
BRANCH  11  12
HETATM   12  O2  UNL     1      53.156  -1.492  75.644  1.00  0.00    -0.308 OA
BRANCH  12  13
HETATM   13  C21 UNL     1      53.249  -1.816  74.314  1.00  0.00     0.097 A 
HETATM   14  C22 UNL     1      52.879  -3.090  73.866  1.00  0.00     0.039 A 
HETATM   15  C23 UNL     1      52.995  -3.354  72.528  1.00  0.00     0.003 A 
HETATM   16  C24 UNL     1      53.455  -2.430  71.625  1.00  0.00     0.002 A 
HETATM   17  C25 UNL     1      53.818  -1.184  72.065  1.00  0.00     0.026 A 
HETATM   18  C26 UNL     1      53.711  -0.879  73.429  1.00  0.00     0.067 A 
HETATM   19 CL3  UNL     1      54.238   0.742  73.933  1.00  0.00    -0.081 Cl
ENDBRANCH  12  13
ENDBRANCH  11  12
ENDBRANCH   3   6
ENDBRANCH   1   3
BRANCH   1  20
HETATM   20  C2  UNL     1      54.061  -2.243  80.690  1.00  0.00     0.114 C 
BRANCH  20  21
HETATM   21  C3  UNL     1      55.104  -1.743  81.597  1.00  0.00     0.060 C 
BRANCH  21  22
HETATM   22  C4  UNL     1      55.511  -0.336  81.604  1.00  0.00     0.275 C 
BRANCH  22  23
HETATM   23  N2  UNL     1      55.226   0.336  82.902  1.00  0.00     0.090 N 
HETATM   24  C5  UNL     1      55.061  -0.824  83.820  1.00  0.00     0.282 C 
HETATM   25  C6  UNL     1      55.368  -0.252  85.203  1.00  0.00     0.104 C 
HETATM   26  S1  UNL     1      54.081   0.960  85.546  1.00  0.00    -0.166 SA
HETATM   27  C7  UNL     1      53.512   1.710  84.020  1.00  0.00     0.104 C 
HETATM   28  C8  UNL     1      53.910   0.954  82.776  1.00  0.00     0.282 C 
ENDBRANCH  22  23
ENDBRANCH  21  22
ENDBRANCH  20  21
BRANCH  20  29
HETATM   29  C9  UNL     1      53.050  -2.960  81.575  1.00  0.00    -0.034 A 
HETATM   30  C10 UNL     1      53.227  -4.304  81.811  1.00  0.00     0.011 A 
HETATM   31  C11 UNL     1      52.331  -5.017  82.610  1.00  0.00     0.026 A 
HETATM   32  C12 UNL     1      51.271  -4.353  83.156  1.00  0.00     0.055 A 
HETATM   33 CL1  UNL     1      50.092  -5.159  84.174  1.00  0.00    -0.083 Cl
HETATM   34  C13 UNL     1      51.090  -3.017  82.926  1.00  0.00     0.056 A 
HETATM   35 CL2  UNL     1      49.753  -2.150  83.605  1.00  0.00    -0.083 Cl
HETATM   36  C14 UNL     1      51.976  -2.308  82.133  1.00  0.00     0.034 A 
ENDBRANCH  20  29
ENDBRANCH   1  20
TORSDOF 10
ENDMDL
MODEL 4
REMARK VINA RESULT: -8.153174100      3.412      5.032
REMARK  10 active torsions:
REMARK  status: ('A' for Active; 'I' for Inactive)
REMARK    1  A    between atoms: O1_1  and  C1_3 
REMARK    2  A    between atoms: C1_3  and  N1_4 
REMARK    3  A    between atoms: C1_3  and  C15_23 
REMARK    4  A    between atoms: N1_4  and  C2_6 
REMARK    5  A    between atoms: C2_6  and  C3_7 
REMARK    6  A    between atoms: C2_6  and  C9_15 
REMARK    7  A    between atoms: C3_7  and  C4_8 
REMARK    8  A    between atoms: C4_8  and  N2_9 
REMARK    9  A    between atoms: C20_28  and  O2_29 
REMARK   10  A    between atoms: O2_29  and  C21_30 
ROOT
HETATM    1  N1  UNL     1      53.384  -1.258  79.698  1.00  0.00    -0.385 N 
ATOM      2  H1  UNL     1      52.961  -0.387  80.020  1.00  0.00     0.156 HD
ENDROOT
BRANCH   1   3
HETATM    3  C1  UNL     1      53.428  -1.494  78.322  1.00  0.00     0.251 C 
BRANCH   3   4
HETATM    4  O1  UNL     1      54.467  -0.672  77.776  1.00  0.00    -0.373 OA
ATOM      5  H1  UNL     1      54.737  -1.061  76.952  1.00  0.00     0.212 HD
ENDBRANCH   3   4
BRANCH   3   6
HETATM    6  C15 UNL     1      52.153  -1.107  77.625  1.00  0.00     0.023 A 
HETATM    7  C16 UNL     1      51.056  -0.741  78.346  1.00  0.00     0.014 A 
HETATM    8  C17 UNL     1      49.855  -0.363  77.800  1.00  0.00     0.001 A 
HETATM    9  C18 UNL     1      49.778  -0.363  76.424  1.00  0.00     0.003 A 
HETATM   10  C19 UNL     1      50.865  -0.728  75.671  1.00  0.00     0.038 A 
HETATM   11  C20 UNL     1      52.071  -1.106  76.233  1.00  0.00     0.086 A 
BRANCH  11  12
HETATM   12  O2  UNL     1      53.184  -1.476  75.539  1.00  0.00    -0.308 OA
BRANCH  12  13
HETATM   13  C21 UNL     1      53.295  -1.798  74.209  1.00  0.00     0.097 A 
HETATM   14  C22 UNL     1      52.954  -3.079  73.758  1.00  0.00     0.039 A 
HETATM   15  C23 UNL     1      53.088  -3.340  72.421  1.00  0.00     0.003 A 
HETATM   16  C24 UNL     1      53.539  -2.407  71.522  1.00  0.00     0.002 A 
HETATM   17  C25 UNL     1      53.873  -1.154  71.967  1.00  0.00     0.026 A 
HETATM   18  C26 UNL     1      53.748  -0.853  73.329  1.00  0.00     0.067 A 
HETATM   19 CL3  UNL     1      54.239   0.778  73.839  1.00  0.00    -0.081 Cl
ENDBRANCH  12  13
ENDBRANCH  11  12
ENDBRANCH   3   6
ENDBRANCH   1   3
BRANCH   1  20
HETATM   20  C2  UNL     1      53.876  -2.134  80.653  1.00  0.00     0.114 C 
BRANCH  20  21
HETATM   21  C3  UNL     1      54.911  -1.761  81.629  1.00  0.00     0.060 C 
BRANCH  21  22
HETATM   22  C4  UNL     1      55.493  -0.417  81.662  1.00  0.00     0.275 C 
BRANCH  22  23
HETATM   23  N2  UNL     1      55.195   0.306  82.929  1.00  0.00     0.090 N 
HETATM   24  C5  UNL     1      54.873  -0.815  83.855  1.00  0.00     0.282 C 
HETATM   25  C6  UNL     1      55.150  -0.243  85.244  1.00  0.00     0.104 C 
HETATM   26  S1  UNL     1      53.959   1.085  85.490  1.00  0.00    -0.166 SA
HETATM   27  C7  UNL     1      53.550   1.851  83.921  1.00  0.00     0.104 C 
HETATM   28  C8  UNL     1      53.949   1.036  82.715  1.00  0.00     0.282 C 
ENDBRANCH  22  23
ENDBRANCH  21  22
ENDBRANCH  20  21
BRANCH  20  29
HETATM   29  C9  UNL     1      52.699  -2.648  81.472  1.00  0.00    -0.034 A 
HETATM   30  C10 UNL     1      51.587  -1.847  81.590  1.00  0.00     0.011 A 
HETATM   31  C11 UNL     1      50.479  -2.262  82.331  1.00  0.00     0.026 A 
HETATM   32  C12 UNL     1      50.518  -3.483  82.939  1.00  0.00     0.055 A 
HETATM   33 CL1  UNL     1      49.178  -4.094  83.889  1.00  0.00    -0.083 Cl
HETATM   34  C13 UNL     1      51.621  -4.285  82.824  1.00  0.00     0.056 A 
HETATM   35 CL2  UNL     1      51.699  -5.837  83.587  1.00  0.00    -0.083 Cl
HETATM   36  C14 UNL     1      52.722  -3.875  82.091  1.00  0.00     0.034 A 
ENDBRANCH  20  29
ENDBRANCH   1  20
TORSDOF 10
ENDMDL
MODEL 5
REMARK VINA RESULT: -8.057978406      0.950      1.340
REMARK  10 active torsions:
REMARK  status: ('A' for Active; 'I' for Inactive)
REMARK    1  A    between atoms: O1_1  and  C1_3 
REMARK    2  A    between atoms: C1_3  and  N1_4 
REMARK    3  A    between atoms: C1_3  and  C15_23 
REMARK    4  A    between atoms: N1_4  and  C2_6 
REMARK    5  A    between atoms: C2_6  and  C3_7 
REMARK    6  A    between atoms: C2_6  and  C9_15 
REMARK    7  A    between atoms: C3_7  and  C4_8 
REMARK    8  A    between atoms: C4_8  and  N2_9 
REMARK    9  A    between atoms: C20_28  and  O2_29 
REMARK   10  A    between atoms: O2_29  and  C21_30 
ROOT
HETATM    1  N1  UNL     1      51.956   0.288  79.579  1.00  0.00    -0.385 N 
ATOM      2  H1  UNL     1      51.546   0.605  78.701  1.00  0.00     0.156 HD
ENDROOT
BRANCH   1   3
HETATM    3  C1  UNL     1      52.423  -1.026  79.647  1.00  0.00     0.251 C 
BRANCH   3   4
HETATM    4  O1  UNL     1      52.290  -1.464  81.004  1.00  0.00    -0.373 OA
ATOM      5  H1  UNL     1      52.881  -2.197  81.129  1.00  0.00     0.212 HD
ENDBRANCH   3   4
BRANCH   3   6
HETATM    6  C15 UNL     1      53.880  -1.142  79.292  1.00  0.00     0.023 A 
HETATM    7  C16 UNL     1      54.823  -1.253  80.270  1.00  0.00     0.014 A 
HETATM    8  C17 UNL     1      56.171  -1.375  80.044  1.00  0.00     0.001 A 
HETATM    9  C18 UNL     1      56.574  -1.382  78.726  1.00  0.00     0.003 A 
HETATM   10  C19 UNL     1      55.650  -1.271  77.720  1.00  0.00     0.038 A 
HETATM   11  C20 UNL     1      54.293  -1.151  77.960  1.00  0.00     0.086 A 
BRANCH  11  12
HETATM   12  O2  UNL     1      53.329  -1.039  77.003  1.00  0.00    -0.308 OA
BRANCH  12  13
HETATM   13  C21 UNL     1      53.467  -1.092  75.639  1.00  0.00     0.097 A 
HETATM   14  C22 UNL     1      53.756   0.067  74.909  1.00  0.00     0.039 A 
HETATM   15  C23 UNL     1      53.880  -0.050  73.550  1.00  0.00     0.003 A 
HETATM   16  C24 UNL     1      53.732  -1.242  72.890  1.00  0.00     0.002 A 
HETATM   17  C25 UNL     1      53.448  -2.375  73.606  1.00  0.00     0.026 A 
HETATM   18  C26 UNL     1      53.315  -2.292  74.999  1.00  0.00     0.067 A 
HETATM   19 CL3  UNL     1      52.906  -3.795  75.857  1.00  0.00    -0.081 Cl
ENDBRANCH  12  13
ENDBRANCH  11  12
ENDBRANCH   3   6
ENDBRANCH   1   3
BRANCH   1  20
HETATM   20  C2  UNL     1      52.013   1.189  80.632  1.00  0.00     0.114 C 
BRANCH  20  21
HETATM   21  C3  UNL     1      53.221   1.958  80.968  1.00  0.00     0.060 C 
BRANCH  21  22
HETATM   22  C4  UNL     1      53.926   1.770  82.238  1.00  0.00     0.275 C 
BRANCH  22  23
HETATM   23  N2  UNL     1      53.151   0.949  83.209  1.00  0.00     0.090 N 
HETATM   24  C5  UNL     1      52.820   1.948  84.262  1.00  0.00     0.282 C 
HETATM   25  C6  UNL     1      51.575   1.376  84.940  1.00  0.00     0.104 C 
HETATM   26  S1  UNL     1      52.089  -0.161  85.725  1.00  0.00    -0.166 SA
HETATM   27  C7  UNL     1      53.420  -0.920  84.794  1.00  0.00     0.104 C 
HETATM   28  C8  UNL     1      54.091   0.008  83.811  1.00  0.00     0.282 C 
ENDBRANCH  22  23
ENDBRANCH  21  22
ENDBRANCH  20  21
BRANCH  20  29
HETATM   29  C9  UNL     1      50.908   2.218  80.432  1.00  0.00    -0.034 A 
HETATM   30  C10 UNL     1      49.759   1.824  79.787  1.00  0.00     0.011 A 
HETATM   31  C11 UNL     1      48.713   2.723  79.570  1.00  0.00     0.026 A 
HETATM   32  C12 UNL     1      48.852   4.007  80.012  1.00  0.00     0.055 A 
HETATM   33 CL1  UNL     1      47.596   5.210  79.789  1.00  0.00    -0.083 Cl
HETATM   34  C13 UNL     1      49.992   4.405  80.654  1.00  0.00     0.056 A 
HETATM   35 CL2  UNL     1      50.197   6.027  81.223  1.00  0.00    -0.083 Cl
HETATM   36  C14 UNL     1      51.032   3.515  80.870  1.00  0.00     0.034 A 
ENDBRANCH  20  29
ENDBRANCH   1  20
TORSDOF 10
ENDMDL
