MODEL 1
REMARK VINA RESULT: -9.627142645      0.000      0.000
REMARK  10 active torsions:
REMARK  status: ('A' for Active; 'I' for Inactive)
REMARK    1  A    between atoms: O1_2  and  C2_3 
REMARK    2  A    between atoms: C5_6  and  C6_7 
REMARK    3  A    between atoms: C6_7  and  O2_8 
REMARK    4  A    between atoms: C6_7  and  C7_10 
REMARK    5  A    between atoms: C13_19  and  C14_20 
REMARK    6  A    between atoms: C16_22  and  C17_23 
REMARK    7  A    between atoms: C22_31  and  C23_32 
REMARK    8  A    between atoms: C24_35  and  O5_36 
REMARK    9  A    between atoms: O5_36  and  C25_37 
REMARK   10  A    between atoms: C25_37  and  C26_38 
ROOT
HETATM    1  C14 UNL     1      53.436  -1.375  78.404  1.00  0.00     0.038 A 
HETATM    2  C15 UNL     1      54.109  -1.662  77.208  1.00  0.00     0.055 A 
HETATM    3  C16 UNL     1      53.249  -1.518  76.167  1.00  0.00     0.093 A 
HETATM    4  O4  UNL     1      52.090  -1.153  76.717  1.00  0.00    -0.286 OA
HETATM    5  C24 UNL     1      52.171  -1.064  78.008  1.00  0.00     0.197 A 
ENDROOT
BRANCH   1   6
HETATM    6  C13 UNL     1      53.937  -1.398  79.763  1.00  0.00     0.013 A 
HETATM    7  C2  UNL     1      55.227  -1.036  80.072  1.00  0.00     0.079 A 
HETATM    8  C3  UNL     1      55.701  -1.054  81.344  1.00  0.00     0.038 A 
HETATM    9  C4  UNL     1      54.872  -1.447  82.370  1.00  0.00     0.012 A 
HETATM   10  C5  UNL     1      53.568  -1.822  82.124  1.00  0.00    -0.028 A 
HETATM   11  C12 UNL     1      53.110  -1.795  80.824  1.00  0.00     0.025 A 
BRANCH   7  12
HETATM   12  O1  UNL     1      56.028  -0.643  78.984  1.00  0.00    -0.355 OA
HETATM   13  C1  UNL     1      57.230  -1.331  78.724  1.00  0.00     0.210 C 
ENDBRANCH   7  12
BRANCH  10  14
HETATM   14  C6  UNL     1      52.739  -2.230  83.274  1.00  0.00     0.155 C 
BRANCH  14  15
HETATM   15  O2  UNL     1      52.866  -1.240  84.252  1.00  0.00    -0.391 OA
ATOM     16  H2  UNL     1      53.780  -1.212  84.510  1.00  0.00     0.210 HD
ENDBRANCH  14  15
BRANCH  14  17
HETATM   17  C7  UNL     1      53.213  -3.520  83.903  1.00  0.00     0.022 C 
HETATM   18  C8  UNL     1      52.219  -3.902  84.973  1.00  0.00     0.035 C 
HETATM   19  C9  UNL     1      50.951  -4.479  84.438  1.00  0.00     0.232 C 
HETATM   20  N1  UNL     1      51.189  -5.539  83.476  1.00  0.00    -0.075 N 
HETATM   21  C10 UNL     1      52.025  -5.086  82.381  1.00  0.00     0.232 C 
ATOM     22  H12 UNL     1      51.577  -6.370  83.923  1.00  0.00     0.277 HD
ATOM     23  H11 UNL     1      50.314  -5.938  83.136  1.00  0.00     0.277 HD
HETATM   24  C11 UNL     1      53.345  -4.650  82.936  1.00  0.00     0.035 C 
ENDBRANCH  14  17
ENDBRANCH  10  14
ENDBRANCH   1   6
BRANCH   5  25
HETATM   25  O5  UNL     1      51.101  -0.701  78.814  1.00  0.00    -0.329 OA
BRANCH  25  26
HETATM   26  C25 UNL     1      50.468   0.556  78.743  1.00  0.00     0.182 C 
BRANCH  26  27
HETATM   27  C26 UNL     1      50.327   1.198  80.105  1.00  0.00     0.010 C 
HETATM   28  C27 UNL     1      49.608   2.514  80.056  1.00  0.00     0.007 C 
HETATM   29  C28 UNL     1      50.459   3.530  80.755  1.00  0.00     0.000 C 
HETATM   30  C29 UNL     1      51.835   2.927  80.898  1.00  0.00     0.000 C 
HETATM   31  C30 UNL     1      51.693   1.446  80.658  1.00  0.00     0.007 C 
ENDBRANCH  26  27
ENDBRANCH  25  26
ENDBRANCH   5  25
BRANCH   3  32
HETATM   32  C17 UNL     1      53.391  -1.674  74.717  1.00  0.00     0.056 A 
HETATM   33  C18 UNL     1      53.516  -0.478  73.974  1.00  0.00     0.169 A 
HETATM   34  F1  UNL     1      53.502   0.715  74.655  1.00  0.00    -0.202 F 
HETATM   35  C19 UNL     1      53.652  -0.495  72.620  1.00  0.00     0.158 A 
HETATM   36  F2  UNL     1      53.771   0.682  71.919  1.00  0.00    -0.203 F 
HETATM   37  C20 UNL     1      53.672  -1.687  71.925  1.00  0.00     0.088 A 
HETATM   38  C21 UNL     1      53.548  -2.835  72.656  1.00  0.00     0.133 A 
HETATM   39  F3  UNL     1      53.564  -4.038  72.009  1.00  0.00    -0.205 F 
HETATM   40  C22 UNL     1      53.405  -2.859  74.050  1.00  0.00     0.056 A 
BRANCH  40  41
HETATM   41  C23 UNL     1      53.146  -4.123  74.698  1.00  0.00     0.274 C 
HETATM   42  O3  UNL     1      52.037  -4.270  75.303  1.00  0.00    -0.301 OA
ENDBRANCH  40  41
ENDBRANCH   3  32
TORSDOF 10
ENDMDL
MODEL 2
REMARK VINA RESULT: -9.611640242      0.958      1.980
REMARK  10 active torsions:
REMARK  status: ('A' for Active; 'I' for Inactive)
REMARK    1  A    between atoms: O1_2  and  C2_3 
REMARK    2  A    between atoms: C5_6  and  C6_7 
REMARK    3  A    between atoms: C6_7  and  O2_8 
REMARK    4  A    between atoms: C6_7  and  C7_10 
REMARK    5  A    between atoms: C13_19  and  C14_20 
REMARK    6  A    between atoms: C16_22  and  C17_23 
REMARK    7  A    between atoms: C22_31  and  C23_32 
REMARK    8  A    between atoms: C24_35  and  O5_36 
REMARK    9  A    between atoms: O5_36  and  C25_37 
REMARK   10  A    between atoms: C25_37  and  C26_38 
ROOT
HETATM    1  C14 UNL     1      53.280  -1.385  78.340  1.00  0.00     0.038 A 
HETATM    2  C15 UNL     1      53.907  -1.694  77.124  1.00  0.00     0.055 A 
HETATM    3  C16 UNL     1      53.022  -1.517  76.109  1.00  0.00     0.093 A 
HETATM    4  O4  UNL     1      51.894  -1.111  76.694  1.00  0.00    -0.286 OA
HETATM    5  C24 UNL     1      52.017  -1.026  77.981  1.00  0.00     0.197 A 
ENDROOT
BRANCH   1   6
HETATM    6  C13 UNL     1      53.821  -1.427  79.683  1.00  0.00     0.013 A 
HETATM    7  C2  UNL     1      55.130  -1.107  79.954  1.00  0.00     0.079 A 
HETATM    8  C3  UNL     1      55.641  -1.144  81.212  1.00  0.00     0.038 A 
HETATM    9  C4  UNL     1      54.830  -1.515  82.261  1.00  0.00     0.012 A 
HETATM   10  C5  UNL     1      53.508  -1.848  82.053  1.00  0.00    -0.028 A 
HETATM   11  C12 UNL     1      53.014  -1.802  80.767  1.00  0.00     0.025 A 
BRANCH   7  12
HETATM   12  O1  UNL     1      55.910  -0.735  78.844  1.00  0.00    -0.355 OA
HETATM   13  C1  UNL     1      57.158  -1.356  78.635  1.00  0.00     0.210 C 
ENDBRANCH   7  12
BRANCH  10  14
HETATM   14  C6  UNL     1      52.702  -2.235  83.226  1.00  0.00     0.155 C 
BRANCH  14  15
HETATM   15  O2  UNL     1      52.831  -1.216  84.174  1.00  0.00    -0.391 OA
ATOM     16  H2  UNL     1      52.093  -1.287  84.768  1.00  0.00     0.210 HD
ENDBRANCH  14  15
BRANCH  14  17
HETATM   17  C7  UNL     1      53.201  -3.500  83.882  1.00  0.00     0.022 C 
HETATM   18  C8  UNL     1      52.233  -3.858  84.986  1.00  0.00     0.035 C 
HETATM   19  C9  UNL     1      50.959  -4.462  84.496  1.00  0.00     0.232 C 
HETATM   20  N1  UNL     1      51.185  -5.548  83.561  1.00  0.00    -0.075 N 
HETATM   21  C10 UNL     1      51.993  -5.121  82.435  1.00  0.00     0.232 C 
ATOM     22  H12 UNL     1      51.590  -6.361  84.025  1.00  0.00     0.277 HD
ATOM     23  H11 UNL     1      50.307  -5.964  83.253  1.00  0.00     0.277 HD
HETATM   24  C11 UNL     1      53.321  -4.658  82.947  1.00  0.00     0.035 C 
ENDBRANCH  14  17
ENDBRANCH  10  14
ENDBRANCH   1   6
BRANCH   5  25
HETATM   25  O5  UNL     1      50.985  -0.626  78.819  1.00  0.00    -0.329 OA
BRANCH  25  26
HETATM   26  C25 UNL     1      50.418   0.663  78.789  1.00  0.00     0.182 C 
BRANCH  26  27
HETATM   27  C26 UNL     1      50.342   1.282  80.167  1.00  0.00     0.010 C 
HETATM   28  C27 UNL     1      49.649   2.613  80.169  1.00  0.00     0.007 C 
HETATM   29  C28 UNL     1      50.547   3.598  80.854  1.00  0.00     0.000 C 
HETATM   30  C29 UNL     1      51.915   2.965  80.933  1.00  0.00     0.000 C 
HETATM   31  C30 UNL     1      51.733   1.492  80.671  1.00  0.00     0.007 C 
ENDBRANCH  26  27
ENDBRANCH  25  26
ENDBRANCH   5  25
BRANCH   3  32
HETATM   32  C17 UNL     1      53.116  -1.675  74.656  1.00  0.00     0.056 A 
HETATM   33  C18 UNL     1      52.712  -2.928  74.140  1.00  0.00     0.169 A 
HETATM   34  F1  UNL     1      52.264  -3.879  75.024  1.00  0.00    -0.202 F 
HETATM   35  C19 UNL     1      52.756  -3.194  72.807  1.00  0.00     0.158 A 
HETATM   36  F2  UNL     1      52.358  -4.421  72.330  1.00  0.00    -0.203 F 
HETATM   37  C20 UNL     1      53.200  -2.244  71.909  1.00  0.00     0.088 A 
HETATM   38  C21 UNL     1      53.589  -1.039  72.421  1.00  0.00     0.133 A 
HETATM   39  F3  UNL     1      54.034  -0.070  71.568  1.00  0.00    -0.205 F 
HETATM   40  C22 UNL     1      53.560  -0.727  73.787  1.00  0.00     0.056 A 
BRANCH  40  41
HETATM   41  C23 UNL     1      54.124   0.529  74.223  1.00  0.00     0.274 C 
HETATM   42  O3  UNL     1      53.584   1.603  73.809  1.00  0.00    -0.301 OA
ENDBRANCH  40  41
ENDBRANCH   3  32
TORSDOF 10
ENDMDL
MODEL 3
REMARK VINA RESULT: -9.497145184      2.396      2.914
REMARK  10 active torsions:
REMARK  status: ('A' for Active; 'I' for Inactive)
REMARK    1  A    between atoms: O1_2  and  C2_3 
REMARK    2  A    between atoms: C5_6  and  C6_7 
REMARK    3  A    between atoms: C6_7  and  O2_8 
REMARK    4  A    between atoms: C6_7  and  C7_10 
REMARK    5  A    between atoms: C13_19  and  C14_20 
REMARK    6  A    between atoms: C16_22  and  C17_23 
REMARK    7  A    between atoms: C22_31  and  C23_32 
REMARK    8  A    between atoms: C24_35  and  O5_36 
REMARK    9  A    between atoms: O5_36  and  C25_37 
REMARK   10  A    between atoms: C25_37  and  C26_38 
ROOT
HETATM    1  C14 UNL     1      53.640  -0.802  78.460  1.00  0.00     0.038 A 
HETATM    2  C15 UNL     1      54.269  -0.926  77.213  1.00  0.00     0.055 A 
HETATM    3  C16 UNL     1      53.346  -1.281  76.283  1.00  0.00     0.093 A 
HETATM    4  O4  UNL     1      52.193  -1.367  76.947  1.00  0.00    -0.286 OA
HETATM    5  C24 UNL     1      52.335  -1.096  78.206  1.00  0.00     0.197 A 
ENDROOT
BRANCH   1   6
HETATM    6  C13 UNL     1      54.214  -0.448  79.743  1.00  0.00     0.013 A 
HETATM    7  C2  UNL     1      55.435  -0.928  80.154  1.00  0.00     0.079 A 
HETATM    8  C3  UNL     1      55.978  -0.598  81.354  1.00  0.00     0.038 A 
HETATM    9  C4  UNL     1      55.292   0.245  82.199  1.00  0.00     0.012 A 
HETATM   10  C5  UNL     1      54.063   0.759  81.842  1.00  0.00    -0.028 A 
HETATM   11  C12 UNL     1      53.533   0.410  80.619  1.00  0.00     0.025 A 
BRANCH   7  12
HETATM   12  O1  UNL     1      56.090  -1.785  79.251  1.00  0.00    -0.355 OA
HETATM   13  C1  UNL     1      57.372  -1.443  78.776  1.00  0.00     0.210 C 
ENDBRANCH   7  12
BRANCH  10  14
HETATM   14  C6  UNL     1      53.388   1.657  82.799  1.00  0.00     0.155 C 
BRANCH  14  15
HETATM   15  O2  UNL     1      53.956   2.926  82.651  1.00  0.00    -0.391 OA
ATOM     16  H2  UNL     1      53.246   3.538  82.496  1.00  0.00     0.210 HD
ENDBRANCH  14  15
BRANCH  14  17
HETATM   17  C7  UNL     1      53.611   1.249  84.236  1.00  0.00     0.022 C 
HETATM   18  C8  UNL     1      53.250   2.426  85.110  1.00  0.00     0.035 C 
HETATM   19  C9  UNL     1      51.780   2.633  85.263  1.00  0.00     0.232 C 
HETATM   20  N1  UNL     1      51.085   1.414  85.633  1.00  0.00    -0.075 N 
HETATM   21  C10 UNL     1      51.337   0.349  84.682  1.00  0.00     0.232 C 
ATOM     22  H12 UNL     1      51.316   1.126  86.584  1.00  0.00     0.277 HD
ATOM     23  H11 UNL     1      50.086   1.575  85.755  1.00  0.00     0.277 HD
HETATM   24  C11 UNL     1      52.807   0.064  84.659  1.00  0.00     0.035 C 
ENDBRANCH  14  17
ENDBRANCH  10  14
ENDBRANCH   1   6
BRANCH   5  25
HETATM   25  O5  UNL     1      51.284  -1.116  79.112  1.00  0.00    -0.329 OA
BRANCH  25  26
HETATM   26  C25 UNL     1      49.970  -0.730  78.784  1.00  0.00     0.182 C 
BRANCH  26  27
HETATM   27  C26 UNL     1      49.858   0.760  78.552  1.00  0.00     0.010 C 
HETATM   28  C27 UNL     1      50.256   1.568  79.753  1.00  0.00     0.007 C 
HETATM   29  C28 UNL     1      49.143   2.527  80.051  1.00  0.00     0.000 C 
HETATM   30  C29 UNL     1      47.936   2.056  79.278  1.00  0.00     0.000 C 
HETATM   31  C30 UNL     1      48.434   1.086  78.236  1.00  0.00     0.007 C 
ENDBRANCH  26  27
ENDBRANCH  25  26
ENDBRANCH   5  25
BRANCH   3  32
HETATM   32  C17 UNL     1      53.420  -1.538  74.842  1.00  0.00     0.056 A 
HETATM   33  C18 UNL     1      53.486  -0.398  74.010  1.00  0.00     0.169 A 
HETATM   34  F1  UNL     1      53.483   0.841  74.605  1.00  0.00    -0.202 F 
HETATM   35  C19 UNL     1      53.555  -0.510  72.656  1.00  0.00     0.158 A 
HETATM   36  F2  UNL     1      53.617   0.616  71.868  1.00  0.00    -0.203 F 
HETATM   37  C20 UNL     1      53.563  -1.749  72.047  1.00  0.00     0.088 A 
HETATM   38  C21 UNL     1      53.497  -2.843  72.864  1.00  0.00     0.133 A 
HETATM   39  F3  UNL     1      53.503  -4.088  72.303  1.00  0.00    -0.205 F 
HETATM   40  C22 UNL     1      53.422  -2.769  74.261  1.00  0.00     0.056 A 
BRANCH  40  41
HETATM   41  C23 UNL     1      53.219  -3.987  75.010  1.00  0.00     0.274 C 
HETATM   42  O3  UNL     1      52.033  -4.284  75.357  1.00  0.00    -0.301 OA
ENDBRANCH  40  41
ENDBRANCH   3  32
TORSDOF 10
ENDMDL
MODEL 4
REMARK VINA RESULT: -9.334350912      2.529      3.519
REMARK  10 active torsions:
REMARK  status: ('A' for Active; 'I' for Inactive)
REMARK    1  A    between atoms: O1_2  and  C2_3 
REMARK    2  A    between atoms: C5_6  and  C6_7 
REMARK    3  A    between atoms: C6_7  and  O2_8 
REMARK    4  A    between atoms: C6_7  and  C7_10 
REMARK    5  A    between atoms: C13_19  and  C14_20 
REMARK    6  A    between atoms: C16_22  and  C17_23 
REMARK    7  A    between atoms: C22_31  and  C23_32 
REMARK    8  A    between atoms: C24_35  and  O5_36 
REMARK    9  A    between atoms: O5_36  and  C25_37 
REMARK   10  A    between atoms: C25_37  and  C26_38 
ROOT
HETATM    1  C14 UNL     1      53.580  -0.818  78.385  1.00  0.00     0.038 A 
HETATM    2  C15 UNL     1      54.178  -0.914  77.120  1.00  0.00     0.055 A 
HETATM    3  C16 UNL     1      53.237  -1.273  76.210  1.00  0.00     0.093 A 
HETATM    4  O4  UNL     1      52.104  -1.389  76.903  1.00  0.00    -0.286 OA
HETATM    5  C24 UNL     1      52.275  -1.132  78.162  1.00  0.00     0.197 A 
ENDROOT
BRANCH   1   6
HETATM    6  C13 UNL     1      54.182  -0.470  79.656  1.00  0.00     0.013 A 
HETATM    7  C2  UNL     1      55.408  -0.958  80.041  1.00  0.00     0.079 A 
HETATM    8  C3  UNL     1      55.978  -0.634  81.231  1.00  0.00     0.038 A 
HETATM    9  C4  UNL     1      55.313   0.211  82.092  1.00  0.00     0.012 A 
HETATM   10  C5  UNL     1      54.080   0.733  81.761  1.00  0.00    -0.028 A 
HETATM   11  C12 UNL     1      53.524   0.389  80.548  1.00  0.00     0.025 A 
BRANCH   7  12
HETATM   12  O1  UNL     1      56.040  -1.816  79.123  1.00  0.00    -0.355 OA
HETATM   13  C1  UNL     1      57.347  -1.522  78.684  1.00  0.00     0.210 C 
ENDBRANCH   7  12
BRANCH  10  14
HETATM   14  C6  UNL     1      53.430   1.632  82.734  1.00  0.00     0.155 C 
BRANCH  14  15
HETATM   15  O2  UNL     1      53.997   2.899  82.573  1.00  0.00    -0.391 OA
ATOM     16  H2  UNL     1      54.437   3.117  83.386  1.00  0.00     0.210 HD
ENDBRANCH  14  15
BRANCH  14  17
HETATM   17  C7  UNL     1      53.686   1.223  84.165  1.00  0.00     0.022 C 
HETATM   18  C8  UNL     1      53.351   2.402  85.047  1.00  0.00     0.035 C 
HETATM   19  C9  UNL     1      51.886   2.616  85.235  1.00  0.00     0.232 C 
HETATM   20  N1  UNL     1      51.195   1.400  85.623  1.00  0.00    -0.075 N 
HETATM   21  C10 UNL     1      51.419   0.334  84.666  1.00  0.00     0.232 C 
ATOM     22  H12 UNL     1      51.447   1.112  86.568  1.00  0.00     0.277 HD
ATOM     23  H11 UNL     1      50.200   1.567  85.769  1.00  0.00     0.277 HD
HETATM   24  C11 UNL     1      52.885   0.042  84.608  1.00  0.00     0.035 C 
ENDBRANCH  14  17
ENDBRANCH  10  14
ENDBRANCH   1   6
BRANCH   5  25
HETATM   25  O5  UNL     1      51.249  -1.183  79.095  1.00  0.00    -0.329 OA
BRANCH  25  26
HETATM   26  C25 UNL     1      49.939  -0.739  78.831  1.00  0.00     0.182 C 
BRANCH  26  27
HETATM   27  C26 UNL     1      49.885   0.750  78.572  1.00  0.00     0.010 C 
HETATM   28  C27 UNL     1      50.206   1.565  79.790  1.00  0.00     0.007 C 
HETATM   29  C28 UNL     1      49.100   2.556  79.985  1.00  0.00     0.000 C 
HETATM   30  C29 UNL     1      47.947   2.105  79.123  1.00  0.00     0.000 C 
HETATM   31  C30 UNL     1      48.500   1.107  78.137  1.00  0.00     0.007 C 
ENDBRANCH  26  27
ENDBRANCH  25  26
ENDBRANCH   5  25
BRANCH   3  32
HETATM   32  C17 UNL     1      53.277  -1.511  74.764  1.00  0.00     0.056 A 
HETATM   33  C18 UNL     1      52.917  -2.810  74.338  1.00  0.00     0.169 A 
HETATM   34  F1  UNL     1      52.558  -3.730  75.293  1.00  0.00    -0.202 F 
HETATM   35  C19 UNL     1      52.919  -3.150  73.021  1.00  0.00     0.158 A 
HETATM   36  F2  UNL     1      52.565  -4.421  72.632  1.00  0.00    -0.203 F 
HETATM   37  C20 UNL     1      53.273  -2.233  72.052  1.00  0.00     0.088 A 
HETATM   38  C21 UNL     1      53.621  -0.982  72.479  1.00  0.00     0.133 A 
HETATM   39  F3  UNL     1      53.978  -0.043  71.554  1.00  0.00    -0.205 F 
HETATM   40  C22 UNL     1      53.634  -0.593  73.825  1.00  0.00     0.056 A 
BRANCH  40  41
HETATM   41  C23 UNL     1      54.149   0.712  74.164  1.00  0.00     0.274 C 
HETATM   42  O3  UNL     1      53.506   1.732  73.763  1.00  0.00    -0.301 OA
ENDBRANCH  40  41
ENDBRANCH   3  32
TORSDOF 10
ENDMDL
MODEL 5
REMARK VINA RESULT: -9.167685357      1.139      1.530
REMARK  10 active torsions:
REMARK  status: ('A' for Active; 'I' for Inactive)
REMARK    1  A    between atoms: O1_2  and  C2_3 
REMARK    2  A    between atoms: C5_6  and  C6_7 
REMARK    3  A    between atoms: C6_7  and  O2_8 
REMARK    4  A    between atoms: C6_7  and  C7_10 
REMARK    5  A    between atoms: C13_19  and  C14_20 
REMARK    6  A    between atoms: C16_22  and  C17_23 
REMARK    7  A    between atoms: C22_31  and  C23_32 
REMARK    8  A    between atoms: C24_35  and  O5_36 
REMARK    9  A    between atoms: O5_36  and  C25_37 
REMARK   10  A    between atoms: C25_37  and  C26_38 
ROOT
HETATM    1  C14 UNL     1      53.179  -1.408  78.722  1.00  0.00     0.038 A 
HETATM    2  C15 UNL     1      53.819  -1.693  77.507  1.00  0.00     0.055 A 
HETATM    3  C16 UNL     1      52.984  -1.384  76.481  1.00  0.00     0.093 A 
HETATM    4  O4  UNL     1      51.873  -0.924  77.058  1.00  0.00    -0.286 OA
HETATM    5  C24 UNL     1      51.960  -0.927  78.352  1.00  0.00     0.197 A 
ENDROOT
BRANCH   1   6
HETATM    6  C13 UNL     1      53.670  -1.575  80.075  1.00  0.00     0.013 A 
HETATM    7  C2  UNL     1      54.891  -1.085  80.474  1.00  0.00     0.079 A 
HETATM    8  C3  UNL     1      55.355  -1.238  81.741  1.00  0.00     0.038 A 
HETATM    9  C4  UNL     1      54.586  -1.906  82.668  1.00  0.00     0.012 A 
HETATM   10  C5  UNL     1      53.352  -2.419  82.327  1.00  0.00    -0.028 A 
HETATM   11  C12 UNL     1      52.904  -2.251  81.035  1.00  0.00     0.025 A 
BRANCH   7  12
HETATM   12  O1  UNL     1      55.632  -0.413  79.485  1.00  0.00    -0.355 OA
HETATM   13  C1  UNL     1      56.924  -0.871  79.155  1.00  0.00     0.210 C 
ENDBRANCH   7  12
BRANCH  10  14
HETATM   14  C6  UNL     1      52.586  -3.121  83.374  1.00  0.00     0.155 C 
BRANCH  14  15
HETATM   15  O2  UNL     1      53.475  -3.963  84.048  1.00  0.00    -0.391 OA
ATOM     16  H2  UNL     1      54.084  -4.306  83.404  1.00  0.00     0.210 HD
ENDBRANCH  14  15
BRANCH  14  17
HETATM   17  C7  UNL     1      51.501  -4.005  82.806  1.00  0.00     0.022 C 
HETATM   18  C8  UNL     1      51.291  -5.152  83.767  1.00  0.00     0.035 C 
HETATM   19  C9  UNL     1      50.523  -4.777  84.991  1.00  0.00     0.232 C 
HETATM   20  N1  UNL     1      49.299  -4.064  84.679  1.00  0.00    -0.075 N 
HETATM   21  C10 UNL     1      49.561  -2.882  83.881  1.00  0.00     0.232 C 
ATOM     22  H12 UNL     1      48.615  -4.673  84.229  1.00  0.00     0.277 HD
ATOM     23  H11 UNL     1      48.775  -3.835  85.523  1.00  0.00     0.277 HD
HETATM   24  C11 UNL     1      50.199  -3.304  82.595  1.00  0.00     0.035 C 
ENDBRANCH  14  17
ENDBRANCH  10  14
ENDBRANCH   1   6
BRANCH   5  25
HETATM   25  O5  UNL     1      50.936  -0.496  79.184  1.00  0.00    -0.329 OA
BRANCH  25  26
HETATM   26  C25 UNL     1      50.374   0.794  79.116  1.00  0.00     0.182 C 
BRANCH  26  27
HETATM   27  C26 UNL     1      50.640   1.596  80.370  1.00  0.00     0.010 C 
HETATM   28  C27 UNL     1      52.104   1.788  80.638  1.00  0.00     0.007 C 
HETATM   29  C28 UNL     1      52.375   1.349  82.045  1.00  0.00     0.000 C 
HETATM   30  C29 UNL     1      51.174   0.557  82.499  1.00  0.00     0.000 C 
HETATM   31  C30 UNL     1      50.056   0.864  81.535  1.00  0.00     0.007 C 
ENDBRANCH  26  27
ENDBRANCH  25  26
ENDBRANCH   5  25
BRANCH   3  32
HETATM   32  C17 UNL     1      53.112  -1.462  75.024  1.00  0.00     0.056 A 
HETATM   33  C18 UNL     1      53.722  -0.353  74.394  1.00  0.00     0.169 A 
HETATM   34  F1  UNL     1      54.147   0.688  75.182  1.00  0.00    -0.202 F 
HETATM   35  C19 UNL     1      53.894  -0.310  73.045  1.00  0.00     0.158 A 
HETATM   36  F2  UNL     1      54.491   0.781  72.456  1.00  0.00    -0.203 F 
HETATM   37  C20 UNL     1      53.476  -1.352  72.243  1.00  0.00     0.088 A 
HETATM   38  C21 UNL     1      52.886  -2.417  72.865  1.00  0.00     0.133 A 
HETATM   39  F3  UNL     1      52.458  -3.471  72.109  1.00  0.00    -0.205 F 
HETATM   40  C22 UNL     1      52.689  -2.498  74.250  1.00  0.00     0.056 A 
BRANCH  40  41
HETATM   41  C23 UNL     1      51.933  -3.609  74.778  1.00  0.00     0.274 C 
HETATM   42  O3  UNL     1      52.569  -4.545  75.357  1.00  0.00    -0.301 OA
ENDBRANCH  40  41
ENDBRANCH   3  32
TORSDOF 10
ENDMDL
