MODEL 1
REMARK VINA RESULT: -9.177659133      0.000      0.000
REMARK  15 active torsions:
REMARK  status: ('A' for Active; 'I' for Inactive)
REMARK    1  A    between atoms: C2_3  and  C3_4 
REMARK       I    between atoms: C3_4  and  N2_6 
REMARK    2  A    between atoms: N2_6  and  C4_8 
REMARK    3  A    between atoms: C4_8  and  C5_9 
REMARK    4  A    between atoms: C5_9  and  S1_10 
REMARK    5  A    between atoms: C6_17  and  O6_18 
REMARK    6  A    between atoms: C6_17  and  C7_20 
REMARK    7  A    between atoms: C7_20  and  N6_27 
REMARK    8  A    between atoms: N4_21  and  O7_23 
REMARK    9  A    between atoms: O7_23  and  C8_24 
REMARK   10  A    between atoms: N6_27  and  C9_29 
REMARK   11  A    between atoms: C11_33  and  C12_34 
REMARK   12  A    between atoms: C13_37  and  S2_38 
REMARK   13  A    between atoms: S2_38  and  C14_39 
REMARK   14  A    between atoms: C14_39  and  C15_40 
REMARK   15  A    between atoms: C17_45  and  O15_46 
ROOT
HETATM    1  C7  UNL     1      -7.238   7.583  24.048  1.00  0.00     0.187 C 
HETATM    2  N4  UNL     1      -6.967   7.238  22.846  1.00  0.00    -0.237 N 
ATOM      3  H4  UNL     1      -6.088   6.746  22.685  1.00  0.00     0.196 HD
ENDROOT
BRANCH   1   4
HETATM    4  C6  UNL     1      -8.538   8.309  24.273  1.00  0.00     0.335 C 
HETATM    5  N1  UNL     1      -9.507   7.300  24.703  1.00  0.00    -0.302 N 
HETATM    6  C1  UNL     1      -9.601   5.974  24.159  1.00  0.00     0.157 C 
HETATM    7  C2  UNL     1     -10.259   7.912  25.714  1.00  0.00     0.197 C 
HETATM    8  N3  UNL     1      -9.595   8.981  26.146  1.00  0.00    -0.240 N 
HETATM    9  O5  UNL     1      -8.441   9.095  25.462  1.00  0.00    -0.209 OA
ATOM     10  H3  UNL     1      -9.910   9.614  26.881  1.00  0.00     0.196 HD
BRANCH   7  11
HETATM   11  C3  UNL     1     -11.550   7.506  26.251  1.00  0.00     0.287 C 
HETATM   12  O1  UNL     1     -11.508   6.641  27.212  1.00  0.00    -0.264 OA
HETATM   13  N2  UNL     1     -12.813   7.951  25.838  1.00  0.00    -0.353 N 
ATOM     14  H2  UNL     1     -12.888   8.642  25.092  1.00  0.00     0.162 HD
BRANCH  13  15
HETATM   15  C4  UNL     1     -14.014   7.435  26.464  1.00  0.00     0.140 C 
BRANCH  15  16
HETATM   16  C5  UNL     1     -15.077   8.478  26.566  1.00  0.00     0.184 C 
BRANCH  16  17
HETATM   17  S1  UNL     1     -14.839   9.336  28.117  1.00  0.00     0.103 S 
HETATM   18  O2  UNL     1     -13.556   8.951  28.759  1.00  0.00    -0.595 OA
HETATM   19  O3  UNL     1     -15.978   8.943  29.016  1.00  0.00    -0.595 OA
HETATM   20  O4  UNL     1     -14.948  10.975  27.840  1.00  0.00    -0.595 OA
ENDBRANCH  16  17
ENDBRANCH  15  16
ENDBRANCH  13  15
ENDBRANCH   7  11
BRANCH   4  21
HETATM   21  O6  UNL     1      -8.949   9.045  23.198  1.00  0.00    -0.341 OA
ATOM     22  H6  UNL     1      -8.812   8.613  22.363  1.00  0.00     0.215 HD
ENDBRANCH   4  21
ENDBRANCH   1   4
BRANCH   1  23
HETATM   23  N6  UNL     1      -6.422   7.338  25.157  1.00  0.00    -0.356 N 
ATOM     24  H6  UNL     1      -5.925   8.157  25.509  1.00  0.00     0.162 HD
BRANCH  23  25
HETATM   25  C9  UNL     1      -6.172   6.147  25.867  1.00  0.00     0.209 C 
HETATM   26  C10 UNL     1      -4.811   5.952  26.466  1.00  0.00     0.251 C 
HETATM   27  O9  UNL     1      -3.637   6.313  26.381  1.00  0.00    -0.271 OA
HETATM   28  N7  UNL     1      -5.480   5.022  27.334  1.00  0.00    -0.292 N 
HETATM   29  C11 UNL     1      -5.535   3.805  28.057  1.00  0.00     0.129 C 
HETATM   30  C19 UNL     1      -6.554   6.009  27.301  1.00  0.00     0.187 C 
HETATM   31  C13 UNL     1      -6.597   2.993  28.095  1.00  0.00     0.022 C 
HETATM   32  C18 UNL     1      -7.863   3.506  27.334  1.00  0.00     0.124 C 
HETATM   33  S3  UNL     1      -8.136   5.254  27.684  1.00  0.00    -0.135 SA
BRANCH  29  34
HETATM   34  C12 UNL     1      -4.370   3.486  28.851  1.00  0.00     0.228 C 
HETATM   35  O10 UNL     1      -4.226   3.497  30.071  1.00  0.00    -0.643 OA
HETATM   36  O11 UNL     1      -3.189   3.093  28.170  1.00  0.00    -0.643 OA
ENDBRANCH  29  34
BRANCH  31  37
HETATM   37  S2  UNL     1      -6.877   1.530  28.862  1.00  0.00    -0.124 SA
BRANCH  37  38
HETATM   38  C14 UNL     1      -6.878   0.911  30.421  1.00  0.00     0.149 C 
BRANCH  38  39
HETATM   39  C15 UNL     1      -5.626   0.082  30.712  1.00  0.00     0.127 A 
HETATM   40  O12 UNL     1      -4.522   0.215  30.050  1.00  0.00    -0.254 OA
HETATM   41  C16 UNL     1      -3.655  -0.653  30.564  1.00  0.00     0.418 A 
HETATM   42  O13 UNL     1      -2.458  -0.854  30.213  1.00  0.00    -0.229 OA
HETATM   43  O14 UNL     1      -4.235  -1.314  31.540  1.00  0.00    -0.229 OA
HETATM   44  C17 UNL     1      -5.470  -0.883  31.663  1.00  0.00     0.219 A 
BRANCH  44  45
HETATM   45  O15 UNL     1      -6.426  -1.315  32.572  1.00  0.00    -0.339 OA
ATOM     46  H15 UNL     1      -6.654  -2.216  32.772  1.00  0.00     0.220 HD
ENDBRANCH  44  45
ENDBRANCH  38  39
ENDBRANCH  37  38
ENDBRANCH  31  37
ENDBRANCH  23  25
ENDBRANCH   1  23
BRANCH   2  47
HETATM   47  O7  UNL     1      -7.759   7.477  21.762  1.00  0.00    -0.182 OA
BRANCH  47  48
HETATM   48  C8  UNL     1      -7.112   7.476  20.515  1.00  0.00     0.394 C 
HETATM   49  N5  UNL     1      -5.943   8.229  20.260  1.00  0.00    -0.031 NA
HETATM   50  O8  UNL     1      -7.569   6.782  19.553  1.00  0.00    -0.240 OA
ENDBRANCH  47  48
ENDBRANCH   2  47
TORSDOF 15
ENDMDL
MODEL 2
REMARK VINA RESULT: -9.021608486      2.547      9.748
REMARK  15 active torsions:
REMARK  status: ('A' for Active; 'I' for Inactive)
REMARK    1  A    between atoms: C2_3  and  C3_4 
REMARK       I    between atoms: C3_4  and  N2_6 
REMARK    2  A    between atoms: N2_6  and  C4_8 
REMARK    3  A    between atoms: C4_8  and  C5_9 
REMARK    4  A    between atoms: C5_9  and  S1_10 
REMARK    5  A    between atoms: C6_17  and  O6_18 
REMARK    6  A    between atoms: C6_17  and  C7_20 
REMARK    7  A    between atoms: C7_20  and  N6_27 
REMARK    8  A    between atoms: N4_21  and  O7_23 
REMARK    9  A    between atoms: O7_23  and  C8_24 
REMARK   10  A    between atoms: N6_27  and  C9_29 
REMARK   11  A    between atoms: C11_33  and  C12_34 
REMARK   12  A    between atoms: C13_37  and  S2_38 
REMARK   13  A    between atoms: S2_38  and  C14_39 
REMARK   14  A    between atoms: C14_39  and  C15_40 
REMARK   15  A    between atoms: C17_45  and  O15_46 
ROOT
HETATM    1  C7  UNL     1      -5.182   5.384  25.419  1.00  0.00     0.187 C 
HETATM    2  N4  UNL     1      -4.563   5.769  24.366  1.00  0.00    -0.237 N 
ATOM      3  H4  UNL     1      -4.599   6.762  24.137  1.00  0.00     0.196 HD
ENDROOT
BRANCH   1   4
HETATM    4  C6  UNL     1      -5.122   3.916  25.748  1.00  0.00     0.335 C 
HETATM    5  N1  UNL     1      -5.366   3.803  27.186  1.00  0.00    -0.302 N 
HETATM    6  C1  UNL     1      -4.843   4.702  28.177  1.00  0.00     0.157 C 
HETATM    7  C2  UNL     1      -6.190   2.680  27.339  1.00  0.00     0.197 C 
HETATM    8  N3  UNL     1      -6.726   2.387  26.156  1.00  0.00    -0.240 N 
HETATM    9  O5  UNL     1      -6.290   3.269  25.238  1.00  0.00    -0.209 OA
ATOM     10  H3  UNL     1      -7.368   1.615  25.975  1.00  0.00     0.196 HD
BRANCH   7  11
HETATM   11  C3  UNL     1      -6.461   1.916  28.547  1.00  0.00     0.287 C 
HETATM   12  O1  UNL     1      -7.703   1.617  28.752  1.00  0.00    -0.264 OA
HETATM   13  N2  UNL     1      -5.528   1.478  29.496  1.00  0.00    -0.353 N 
ATOM     14  H2  UNL     1      -4.538   1.682  29.364  1.00  0.00     0.162 HD
BRANCH  13  15
HETATM   15  C4  UNL     1      -5.960   0.736  30.664  1.00  0.00     0.140 C 
BRANCH  15  16
HETATM   16  C5  UNL     1      -5.214  -0.548  30.811  1.00  0.00     0.184 C 
BRANCH  16  17
HETATM   17  S1  UNL     1      -3.536  -0.142  31.278  1.00  0.00     0.103 S 
HETATM   18  O2  UNL     1      -3.141  -0.829  32.534  1.00  0.00    -0.595 OA
HETATM   19  O3  UNL     1      -3.488   1.345  31.494  1.00  0.00    -0.595 OA
HETATM   20  O4  UNL     1      -2.526  -0.507  30.005  1.00  0.00    -0.595 OA
ENDBRANCH  16  17
ENDBRANCH  15  16
ENDBRANCH  13  15
ENDBRANCH   7  11
BRANCH   4  21
HETATM   21  O6  UNL     1      -3.971   3.307  25.335  1.00  0.00    -0.341 OA
ATOM     22  H6  UNL     1      -3.667   3.599  24.484  1.00  0.00     0.215 HD
ENDBRANCH   4  21
ENDBRANCH   1   4
BRANCH   1  23
HETATM   23  N6  UNL     1      -5.902   6.221  26.277  1.00  0.00    -0.356 N 
ATOM     24  H6  UNL     1      -5.391   6.521  27.107  1.00  0.00     0.162 HD
BRANCH  23  25
HETATM   25  C9  UNL     1      -7.218   6.718  26.184  1.00  0.00     0.209 C 
HETATM   26  C10 UNL     1      -7.509   7.758  25.142  1.00  0.00     0.251 C 
HETATM   27  O9  UNL     1      -6.983   8.618  24.437  1.00  0.00    -0.271 OA
HETATM   28  N7  UNL     1      -8.870   7.317  25.285  1.00  0.00    -0.292 N 
HETATM   29  C11 UNL     1     -10.263   7.564  25.350  1.00  0.00     0.129 C 
HETATM   30  C19 UNL     1      -8.262   5.996  25.403  1.00  0.00     0.187 C 
HETATM   31  C13 UNL     1     -11.091   7.007  26.240  1.00  0.00     0.022 C 
HETATM   32  C18 UNL     1     -10.439   5.962  27.203  1.00  0.00     0.124 C 
HETATM   33  S3  UNL     1      -9.342   4.865  26.283  1.00  0.00    -0.135 SA
BRANCH  29  34
HETATM   34  C12 UNL     1     -10.802   8.430  24.325  1.00  0.00     0.228 C 
HETATM   35  O10 UNL     1     -11.834   8.319  23.668  1.00  0.00    -0.643 OA
HETATM   36  O11 UNL     1     -10.071   9.600  23.992  1.00  0.00    -0.643 OA
ENDBRANCH  29  34
BRANCH  31  37
HETATM   37  S2  UNL     1     -12.739   7.157  26.503  1.00  0.00    -0.124 SA
BRANCH  37  38
HETATM   38  C14 UNL     1     -13.914   8.353  26.445  1.00  0.00     0.149 C 
BRANCH  38  39
HETATM   39  C15 UNL     1     -15.288   7.831  26.869  1.00  0.00     0.127 A 
HETATM   40  O12 UNL     1     -15.860   6.816  26.307  1.00  0.00    -0.254 OA
HETATM   41  C16 UNL     1     -17.029   6.642  26.919  1.00  0.00     0.418 A 
HETATM   42  O13 UNL     1     -17.905   5.763  26.683  1.00  0.00    -0.229 OA
HETATM   43  O14 UNL     1     -17.164   7.554  27.855  1.00  0.00    -0.229 OA
HETATM   44  C17 UNL     1     -16.095   8.318  27.855  1.00  0.00     0.219 A 
BRANCH  44  45
HETATM   45  O15 UNL     1     -15.832   9.399  28.685  1.00  0.00    -0.339 OA
ATOM     46  H15 UNL     1     -16.423   9.783  29.324  1.00  0.00     0.220 HD
ENDBRANCH  44  45
ENDBRANCH  38  39
ENDBRANCH  37  38
ENDBRANCH  31  37
ENDBRANCH  23  25
ENDBRANCH   1  23
BRANCH   2  47
HETATM   47  O7  UNL     1      -3.861   4.956  23.527  1.00  0.00    -0.182 OA
BRANCH  47  48
HETATM   48  C8  UNL     1      -2.987   5.600  22.635  1.00  0.00     0.394 C 
HETATM   49  N5  UNL     1      -2.177   6.694  23.015  1.00  0.00    -0.031 NA
HETATM   50  O8  UNL     1      -2.896   5.210  21.428  1.00  0.00    -0.240 OA
ENDBRANCH  47  48
ENDBRANCH   2  47
TORSDOF 15
ENDMDL
MODEL 3
REMARK VINA RESULT: -9.021158732      2.674     10.202
REMARK  15 active torsions:
REMARK  status: ('A' for Active; 'I' for Inactive)
REMARK    1  A    between atoms: C2_3  and  C3_4 
REMARK       I    between atoms: C3_4  and  N2_6 
REMARK    2  A    between atoms: N2_6  and  C4_8 
REMARK    3  A    between atoms: C4_8  and  C5_9 
REMARK    4  A    between atoms: C5_9  and  S1_10 
REMARK    5  A    between atoms: C6_17  and  O6_18 
REMARK    6  A    between atoms: C6_17  and  C7_20 
REMARK    7  A    between atoms: C7_20  and  N6_27 
REMARK    8  A    between atoms: N4_21  and  O7_23 
REMARK    9  A    between atoms: O7_23  and  C8_24 
REMARK   10  A    between atoms: N6_27  and  C9_29 
REMARK   11  A    between atoms: C11_33  and  C12_34 
REMARK   12  A    between atoms: C13_37  and  S2_38 
REMARK   13  A    between atoms: S2_38  and  C14_39 
REMARK   14  A    between atoms: C14_39  and  C15_40 
REMARK   15  A    between atoms: C17_45  and  O15_46 
ROOT
HETATM    1  C7  UNL     1      -5.479   5.213  26.225  1.00  0.00     0.187 C 
HETATM    2  N4  UNL     1      -4.785   5.594  25.219  1.00  0.00    -0.237 N 
ATOM      3  H4  UNL     1      -4.827   6.581  24.967  1.00  0.00     0.196 HD
ENDROOT
BRANCH   1   4
HETATM    4  C6  UNL     1      -5.409   3.753  26.590  1.00  0.00     0.335 C 
HETATM    5  N1  UNL     1      -4.932   3.694  27.972  1.00  0.00    -0.302 N 
HETATM    6  C1  UNL     1      -3.910   4.540  28.521  1.00  0.00     0.157 C 
HETATM    7  C2  UNL     1      -5.682   2.680  28.582  1.00  0.00     0.197 C 
HETATM    8  N3  UNL     1      -6.751   2.433  27.828  1.00  0.00    -0.240 N 
HETATM    9  O5  UNL     1      -6.733   3.242  26.752  1.00  0.00    -0.209 OA
ATOM     10  H3  UNL     1      -7.470   1.740  28.034  1.00  0.00     0.196 HD
BRANCH   7  11
HETATM   11  C3  UNL     1      -5.404   1.973  29.824  1.00  0.00     0.287 C 
HETATM   12  O1  UNL     1      -6.354   1.990  30.701  1.00  0.00    -0.264 OA
HETATM   13  N2  UNL     1      -4.229   1.287  30.159  1.00  0.00    -0.353 N 
ATOM     14  H2  UNL     1      -3.461   1.239  29.489  1.00  0.00     0.162 HD
BRANCH  13  15
HETATM   15  C4  UNL     1      -4.097   0.643  31.451  1.00  0.00     0.140 C 
BRANCH  15  16
HETATM   16  C5  UNL     1      -2.947  -0.307  31.481  1.00  0.00     0.184 C 
BRANCH  16  17
HETATM   17  S1  UNL     1      -1.524   0.553  30.824  1.00  0.00     0.103 S 
HETATM   18  O2  UNL     1      -1.539   1.991  31.196  1.00  0.00    -0.595 OA
HETATM   19  O3  UNL     1      -1.589   0.431  29.326  1.00  0.00    -0.595 OA
HETATM   20  O4  UNL     1      -0.145  -0.225  31.341  1.00  0.00    -0.595 OA
ENDBRANCH  16  17
ENDBRANCH  15  16
ENDBRANCH  13  15
ENDBRANCH   7  11
BRANCH   4  21
HETATM   21  O6  UNL     1      -4.668   3.005  25.719  1.00  0.00    -0.341 OA
ATOM     22  H6  UNL     1      -3.762   3.282  25.652  1.00  0.00     0.215 HD
ENDBRANCH   4  21
ENDBRANCH   1   4
BRANCH   1  23
HETATM   23  N6  UNL     1      -6.291   6.045  27.001  1.00  0.00    -0.356 N 
ATOM     24  H6  UNL     1      -5.911   6.274  27.920  1.00  0.00     0.162 HD
BRANCH  23  25
HETATM   25  C9  UNL     1      -7.548   6.620  26.724  1.00  0.00     0.209 C 
HETATM   26  C10 UNL     1      -7.601   7.779  25.773  1.00  0.00     0.251 C 
HETATM   27  O9  UNL     1      -6.923   8.680  25.280  1.00  0.00    -0.271 OA
HETATM   28  N7  UNL     1      -8.978   7.400  25.610  1.00  0.00    -0.292 N 
HETATM   29  C11 UNL     1     -10.349   7.715  25.444  1.00  0.00     0.129 C 
HETATM   30  C19 UNL     1      -8.448   6.043  25.686  1.00  0.00     0.187 C 
HETATM   31  C13 UNL     1     -11.349   7.113  26.096  1.00  0.00     0.022 C 
HETATM   32  C18 UNL     1     -10.927   5.937  27.037  1.00  0.00     0.124 C 
HETATM   33  S3  UNL     1      -9.713   4.886  26.215  1.00  0.00    -0.135 SA
BRANCH  29  34
HETATM   34  C12 UNL     1     -10.654   8.713  24.444  1.00  0.00     0.228 C 
HETATM   35  O10 UNL     1     -11.744   9.081  24.011  1.00  0.00    -0.643 OA
HETATM   36  O11 UNL     1      -9.571   9.404  23.842  1.00  0.00    -0.643 OA
ENDBRANCH  29  34
BRANCH  31  37
HETATM   37  S2  UNL     1     -13.011   7.323  26.065  1.00  0.00    -0.124 SA
BRANCH  37  38
HETATM   38  C14 UNL     1     -14.135   8.492  26.494  1.00  0.00     0.149 C 
BRANCH  38  39
HETATM   39  C15 UNL     1     -15.467   7.878  26.927  1.00  0.00     0.127 A 
HETATM   40  O12 UNL     1     -15.951   6.800  26.401  1.00  0.00    -0.254 OA
HETATM   41  C16 UNL     1     -17.109   6.557  27.011  1.00  0.00     0.418 A 
HETATM   42  O13 UNL     1     -17.909   5.602  26.803  1.00  0.00    -0.229 OA
HETATM   43  O14 UNL     1     -17.326   7.491  27.908  1.00  0.00    -0.229 OA
HETATM   44  C17 UNL     1     -16.322   8.337  27.886  1.00  0.00     0.219 A 
BRANCH  44  45
HETATM   45  O15 UNL     1     -16.156   9.468  28.674  1.00  0.00    -0.339 OA
ATOM     46  H15 UNL     1     -16.408  10.358  28.452  1.00  0.00     0.220 HD
ENDBRANCH  44  45
ENDBRANCH  38  39
ENDBRANCH  37  38
ENDBRANCH  31  37
ENDBRANCH  23  25
ENDBRANCH   1  23
BRANCH   2  47
HETATM   47  O7  UNL     1      -3.993   4.785  24.460  1.00  0.00    -0.182 OA
BRANCH  47  48
HETATM   48  C8  UNL     1      -3.024   5.433  23.675  1.00  0.00     0.394 C 
HETATM   49  N5  UNL     1      -2.109   6.369  24.210  1.00  0.00    -0.031 NA
HETATM   50  O8  UNL     1      -2.939   5.194  22.429  1.00  0.00    -0.240 OA
ENDBRANCH  47  48
ENDBRANCH   2  47
TORSDOF 15
ENDMDL
MODEL 4
REMARK VINA RESULT: -9.007676485      2.565     10.157
REMARK  15 active torsions:
REMARK  status: ('A' for Active; 'I' for Inactive)
REMARK    1  A    between atoms: C2_3  and  C3_4 
REMARK       I    between atoms: C3_4  and  N2_6 
REMARK    2  A    between atoms: N2_6  and  C4_8 
REMARK    3  A    between atoms: C4_8  and  C5_9 
REMARK    4  A    between atoms: C5_9  and  S1_10 
REMARK    5  A    between atoms: C6_17  and  O6_18 
REMARK    6  A    between atoms: C6_17  and  C7_20 
REMARK    7  A    between atoms: C7_20  and  N6_27 
REMARK    8  A    between atoms: N4_21  and  O7_23 
REMARK    9  A    between atoms: O7_23  and  C8_24 
REMARK   10  A    between atoms: N6_27  and  C9_29 
REMARK   11  A    between atoms: C11_33  and  C12_34 
REMARK   12  A    between atoms: C13_37  and  S2_38 
REMARK   13  A    between atoms: S2_38  and  C14_39 
REMARK   14  A    between atoms: C14_39  and  C15_40 
REMARK   15  A    between atoms: C17_45  and  O15_46 
ROOT
HETATM    1  C7  UNL     1      -6.373   4.494  26.671  1.00  0.00     0.187 C 
HETATM    2  N4  UNL     1      -5.449   4.832  25.853  1.00  0.00    -0.237 N 
ATOM      3  H4  UNL     1      -5.268   5.829  25.736  1.00  0.00     0.196 HD
ENDROOT
BRANCH   1   4
HETATM    4  C6  UNL     1      -6.632   3.019  26.837  1.00  0.00     0.335 C 
HETATM    5  N1  UNL     1      -5.923   2.608  28.050  1.00  0.00    -0.302 N 
HETATM    6  C1  UNL     1      -4.620   3.076  28.433  1.00  0.00     0.157 C 
HETATM    7  C2  UNL     1      -6.783   1.713  28.700  1.00  0.00     0.197 C 
HETATM    8  N3  UNL     1      -8.007   1.866  28.199  1.00  0.00    -0.240 N 
HETATM    9  O5  UNL     1      -7.985   2.821  27.251  1.00  0.00    -0.209 OA
ATOM     10  H3  UNL     1      -8.832   1.340  28.489  1.00  0.00     0.196 HD
BRANCH   7  11
HETATM   11  C3  UNL     1      -6.465   0.755  29.748  1.00  0.00     0.287 C 
HETATM   12  O1  UNL     1      -6.646  -0.489  29.442  1.00  0.00    -0.264 OA
HETATM   13  N2  UNL     1      -5.991   1.040  31.036  1.00  0.00    -0.353 N 
ATOM     14  H2  UNL     1      -5.823   2.007  31.312  1.00  0.00     0.162 HD
BRANCH  13  15
HETATM   15  C4  UNL     1      -5.737  -0.032  31.979  1.00  0.00     0.140 C 
BRANCH  15  16
HETATM   16  C5  UNL     1      -4.494   0.210  32.770  1.00  0.00     0.184 C 
BRANCH  16  17
HETATM   17  S1  UNL     1      -3.107   0.025  31.657  1.00  0.00     0.103 S 
HETATM   18  O2  UNL     1      -1.874  -0.366  32.388  1.00  0.00    -0.595 OA
HETATM   19  O3  UNL     1      -2.888   1.360  31.001  1.00  0.00    -0.595 OA
HETATM   20  O4  UNL     1      -3.519  -1.068  30.469  1.00  0.00    -0.595 OA
ENDBRANCH  16  17
ENDBRANCH  15  16
ENDBRANCH  13  15
ENDBRANCH   7  11
BRANCH   4  21
HETATM   21  O6  UNL     1      -6.313   2.279  25.735  1.00  0.00    -0.341 OA
ATOM     22  H6  UNL     1      -5.524   2.569  25.294  1.00  0.00     0.215 HD
ENDBRANCH   4  21
ENDBRANCH   1   4
BRANCH   1  23
HETATM   23  N6  UNL     1      -7.153   5.386  27.414  1.00  0.00    -0.356 N 
ATOM     24  H6  UNL     1      -6.918   5.432  28.406  1.00  0.00     0.162 HD
BRANCH  23  25
HETATM   25  C9  UNL     1      -8.210   6.230  27.019  1.00  0.00     0.209 C 
HETATM   26  C10 UNL     1      -7.900   7.359  26.081  1.00  0.00     0.251 C 
HETATM   27  O9  UNL     1      -6.987   8.074  25.668  1.00  0.00    -0.271 OA
HETATM   28  N7  UNL     1      -9.304   7.304  25.776  1.00  0.00    -0.292 N 
HETATM   29  C11 UNL     1     -10.543   7.923  25.477  1.00  0.00     0.129 C 
HETATM   30  C19 UNL     1      -9.111   5.863  25.889  1.00  0.00     0.187 C 
HETATM   31  C13 UNL     1     -11.714   7.574  26.019  1.00  0.00     0.022 C 
HETATM   32  C18 UNL     1     -11.670   6.345  26.984  1.00  0.00     0.124 C 
HETATM   33  S3  UNL     1     -10.654   5.033  26.276  1.00  0.00    -0.135 SA
BRANCH  29  34
HETATM   34  C12 UNL     1     -10.509   8.952  24.463  1.00  0.00     0.228 C 
HETATM   35  O10 UNL     1     -11.399   9.712  24.087  1.00  0.00    -0.643 OA
HETATM   36  O11 UNL     1      -9.289   9.162  23.768  1.00  0.00    -0.643 OA
ENDBRANCH  29  34
BRANCH  31  37
HETATM   37  S2  UNL     1     -13.272   8.160  25.824  1.00  0.00    -0.124 SA
BRANCH  37  38
HETATM   38  C14 UNL     1     -14.401   9.037  26.702  1.00  0.00     0.149 C 
BRANCH  38  39
HETATM   39  C15 UNL     1     -15.630   8.199  27.058  1.00  0.00     0.127 A 
HETATM   40  O12 UNL     1     -15.957   7.121  26.420  1.00  0.00    -0.254 OA
HETATM   41  C16 UNL     1     -17.066   6.655  26.991  1.00  0.00     0.418 A 
HETATM   42  O13 UNL     1     -17.723   5.622  26.680  1.00  0.00    -0.229 OA
HETATM   43  O14 UNL     1     -17.410   7.453  27.976  1.00  0.00    -0.229 OA
HETATM   44  C17 UNL     1     -16.536   8.431  28.050  1.00  0.00     0.219 A 
BRANCH  44  45
HETATM   45  O15 UNL     1     -16.529   9.488  28.950  1.00  0.00    -0.339 OA
ATOM     46  H15 UNL     1     -16.091  10.325  28.841  1.00  0.00     0.220 HD
ENDBRANCH  44  45
ENDBRANCH  38  39
ENDBRANCH  37  38
ENDBRANCH  31  37
ENDBRANCH  23  25
ENDBRANCH   1  23
BRANCH   2  47
HETATM   47  O7  UNL     1      -4.687   3.966  25.127  1.00  0.00    -0.182 OA
BRANCH  47  48
HETATM   48  C8  UNL     1      -3.725   4.550  24.284  1.00  0.00     0.394 C 
HETATM   49  N5  UNL     1      -3.950   5.764  23.595  1.00  0.00    -0.031 NA
HETATM   50  O8  UNL     1      -2.597   3.991  24.112  1.00  0.00    -0.240 OA
ENDBRANCH  47  48
ENDBRANCH   2  47
TORSDOF 15
ENDMDL
MODEL 5
REMARK VINA RESULT: -8.997385447      2.589     10.330
REMARK  15 active torsions:
REMARK  status: ('A' for Active; 'I' for Inactive)
REMARK    1  A    between atoms: C2_3  and  C3_4 
REMARK       I    between atoms: C3_4  and  N2_6 
REMARK    2  A    between atoms: N2_6  and  C4_8 
REMARK    3  A    between atoms: C4_8  and  C5_9 
REMARK    4  A    between atoms: C5_9  and  S1_10 
REMARK    5  A    between atoms: C6_17  and  O6_18 
REMARK    6  A    between atoms: C6_17  and  C7_20 
REMARK    7  A    between atoms: C7_20  and  N6_27 
REMARK    8  A    between atoms: N4_21  and  O7_23 
REMARK    9  A    between atoms: O7_23  and  C8_24 
REMARK   10  A    between atoms: N6_27  and  C9_29 
REMARK   11  A    between atoms: C11_33  and  C12_34 
REMARK   12  A    between atoms: C13_37  and  S2_38 
REMARK   13  A    between atoms: S2_38  and  C14_39 
REMARK   14  A    between atoms: C14_39  and  C15_40 
REMARK   15  A    between atoms: C17_45  and  O15_46 
ROOT
HETATM    1  C7  UNL     1      -6.593   4.541  26.543  1.00  0.00     0.187 C 
HETATM    2  N4  UNL     1      -5.744   4.889  25.652  1.00  0.00    -0.237 N 
ATOM      3  H4  UNL     1      -5.617   5.888  25.489  1.00  0.00     0.196 HD
ENDROOT
BRANCH   1   4
HETATM    4  C6  UNL     1      -6.773   3.063  26.775  1.00  0.00     0.335 C 
HETATM    5  N1  UNL     1      -6.085   2.754  28.029  1.00  0.00    -0.302 N 
HETATM    6  C1  UNL     1      -4.825   3.315  28.431  1.00  0.00     0.157 C 
HETATM    7  C2  UNL     1      -6.915   1.842  28.695  1.00  0.00     0.197 C 
HETATM    8  N3  UNL     1      -8.127   1.897  28.148  1.00  0.00    -0.240 N 
HETATM    9  O5  UNL     1      -8.126   2.805  27.154  1.00  0.00    -0.209 OA
ATOM     10  H3  UNL     1      -8.930   1.339  28.437  1.00  0.00     0.196 HD
BRANCH   7  11
HETATM   11  C3  UNL     1      -6.580   0.956  29.801  1.00  0.00     0.287 C 
HETATM   12  O1  UNL     1      -7.501   0.809  30.697  1.00  0.00    -0.264 OA
HETATM   13  N2  UNL     1      -5.379   0.259  29.990  1.00  0.00    -0.353 N 
ATOM     14  H2  UNL     1      -4.633   0.339  29.300  1.00  0.00     0.162 HD
BRANCH  13  15
HETATM   15  C4  UNL     1      -5.190  -0.576  31.160  1.00  0.00     0.140 C 
BRANCH  15  16
HETATM   16  C5  UNL     1      -4.160  -0.012  32.081  1.00  0.00     0.184 C 
BRANCH  16  17
HETATM   17  S1  UNL     1      -2.660   0.210  31.133  1.00  0.00     0.103 S 
HETATM   18  O2  UNL     1      -2.621   1.545  30.483  1.00  0.00    -0.595 OA
HETATM   19  O3  UNL     1      -2.648  -0.855  30.072  1.00  0.00    -0.595 OA
HETATM   20  O4  UNL     1      -1.354  -0.051  32.134  1.00  0.00    -0.595 OA
ENDBRANCH  16  17
ENDBRANCH  15  16
ENDBRANCH  13  15
ENDBRANCH   7  11
BRANCH   4  21
HETATM   21  O6  UNL     1      -6.373   2.290  25.723  1.00  0.00    -0.341 OA
ATOM     22  H6  UNL     1      -6.796   2.512  24.902  1.00  0.00     0.215 HD
ENDBRANCH   4  21
ENDBRANCH   1   4
BRANCH   1  23
HETATM   23  N6  UNL     1      -7.360   5.423  27.311  1.00  0.00    -0.356 N 
ATOM     24  H6  UNL     1      -7.074   5.497  28.288  1.00  0.00     0.162 HD
BRANCH  23  25
HETATM   25  C9  UNL     1      -8.461   6.228  26.958  1.00  0.00     0.209 C 
HETATM   26  C10 UNL     1      -8.224   7.388  26.036  1.00  0.00     0.251 C 
HETATM   27  O9  UNL     1      -7.353   8.150  25.618  1.00  0.00    -0.271 OA
HETATM   28  N7  UNL     1      -9.631   7.277  25.762  1.00  0.00    -0.292 N 
HETATM   29  C11 UNL     1     -10.902   7.846  25.505  1.00  0.00     0.129 C 
HETATM   30  C19 UNL     1      -9.372   5.843  25.842  1.00  0.00     0.187 C 
HETATM   31  C13 UNL     1     -12.044   7.435  26.066  1.00  0.00     0.022 C 
HETATM   32  C18 UNL     1     -11.923   6.190  27.004  1.00  0.00     0.124 C 
HETATM   33  S3  UNL     1     -10.868   4.939  26.247  1.00  0.00    -0.135 SA
BRANCH  29  34
HETATM   34  C12 UNL     1     -10.937   8.896  24.511  1.00  0.00     0.228 C 
HETATM   35  O10 UNL     1     -11.899   9.509  24.053  1.00  0.00    -0.643 OA
HETATM   36  O11 UNL     1      -9.706   9.323  23.952  1.00  0.00    -0.643 OA
ENDBRANCH  29  34
BRANCH  31  37
HETATM   37  S2  UNL     1     -13.630   7.956  25.919  1.00  0.00    -0.124 SA
BRANCH  37  38
HETATM   38  C14 UNL     1     -15.161   7.464  26.398  1.00  0.00     0.149 C 
BRANCH  38  39
HETATM   39  C15 UNL     1     -15.777   8.418  27.423  1.00  0.00     0.127 A 
HETATM   40  O12 UNL     1     -15.170   9.474  27.857  1.00  0.00    -0.254 OA
HETATM   41  C16 UNL     1     -15.988  10.062  28.727  1.00  0.00     0.418 A 
HETATM   42  O13 UNL     1     -15.789  11.121  29.385  1.00  0.00    -0.229 OA
HETATM   43  O14 UNL     1     -17.094   9.359  28.818  1.00  0.00    -0.229 OA
HETATM   44  C17 UNL     1     -17.000   8.321  28.018  1.00  0.00     0.219 A 
BRANCH  44  45
HETATM   45  O15 UNL     1     -17.947   7.327  27.813  1.00  0.00    -0.339 OA
ATOM     46  H15 UNL     1     -18.034   6.515  28.301  1.00  0.00     0.220 HD
ENDBRANCH  44  45
ENDBRANCH  38  39
ENDBRANCH  37  38
ENDBRANCH  31  37
ENDBRANCH  23  25
ENDBRANCH   1  23
BRANCH   2  47
HETATM   47  O7  UNL     1      -4.997   4.031  24.901  1.00  0.00    -0.182 OA
BRANCH  47  48
HETATM   48  C8  UNL     1      -3.711   4.479  24.552  1.00  0.00     0.394 C 
HETATM   49  N5  UNL     1      -3.324   5.836  24.644  1.00  0.00    -0.031 NA
HETATM   50  O8  UNL     1      -2.836   3.659  24.131  1.00  0.00    -0.240 OA
ENDBRANCH  47  48
ENDBRANCH   2  47
TORSDOF 15
ENDMDL
